# DDEC6 charges by PACMAN v1.1 (https://github.com/mtap-research/PACMAN-charge/)
data_2015[Zn][nan]3[ASR]23
_chemical_formula_sum              "Zn36 H336 C648 O296"
_cell_length_a       26.0119
_cell_length_b       26.0119
_cell_length_c       26.0119
_cell_angle_alpha    90
_cell_angle_beta     90
_cell_angle_gamma    90

_symmetry_space_group_name_H-M    "P 1"
_symmetry_Int_Tables_number       1

loop_
  _symmetry_equiv_pos_as_xyz
  'x, y, z'

loop_
  _atom_site_type_symbol
  _atom_site_label
  _atom_site_symmetry_multiplicity
  _atom_site_fract_x
  _atom_site_fract_y
  _atom_site_fract_z
  _atom_site_occupancy
  _atom_site_charge
Zn  Zn1       1.0  0.45548  0.54749  0.54579  1.0000 0.960282886
Zn  Zn2       1.0  0.04452  0.45251  0.04579  1.0000 0.960282886
Zn  Zn3       1.0  0.54452  0.04749  0.95421  1.0000 0.960282886
Zn  Zn4       1.0  0.95548  0.95251  0.45421  1.0000 0.960282886
Zn  Zn5       1.0  0.54579  0.45548  0.54749  1.0000 0.960282886
Zn  Zn6       1.0  0.04579  0.04452  0.45251  1.0000 0.960282886
Zn  Zn7       1.0  0.95421  0.54452  0.04749  1.0000 0.960282886
Zn  Zn8       1.0  0.45421  0.95548  0.95251  1.0000 0.960282886
Zn  Zn9       1.0  0.54749  0.54579  0.45548  1.0000 0.960282886
Zn  Zn10      1.0  0.45251  0.04579  0.04452  1.0000 0.960282886
Zn  Zn11      1.0  0.04749  0.95421  0.54452  1.0000 0.960282886
Zn  Zn12      1.0  0.95251  0.45421  0.95548  1.0000 0.960282886
Zn  Zn13      1.0  0.29749  0.70548  0.70421  1.0000 0.960282886
Zn  Zn14      1.0  0.20251  0.29452  0.20421  1.0000 0.960282886
Zn  Zn15      1.0  0.79749  0.79452  0.29579  1.0000 0.960282886
Zn  Zn16      1.0  0.70251  0.20548  0.79579  1.0000 0.960282886
Zn  Zn17      1.0  0.20548  0.79579  0.70251  1.0000 0.960282886
Zn  Zn18      1.0  0.79452  0.29579  0.79749  1.0000 0.960282886
Zn  Zn19      1.0  0.29452  0.20421  0.20251  1.0000 0.960282886
Zn  Zn20      1.0  0.70548  0.70421  0.29749  1.0000 0.960282886
Zn  Zn21      1.0  0.29579  0.79749  0.79452  1.0000 0.960282886
Zn  Zn22      1.0  0.79579  0.70251  0.20548  1.0000 0.960282886
Zn  Zn23      1.0  0.70421  0.29749  0.70548  1.0000 0.960282886
Zn  Zn24      1.0  0.20421  0.20251  0.29452  1.0000 0.960282886
Zn  Zn25      1.0  0.12428  0.37428  0.12500  1.0000 1.0198709384
Zn  Zn26      1.0  0.37572  0.62572  0.62500  1.0000 1.0198709384
Zn  Zn27      1.0  0.87572  0.87428  0.37500  1.0000 1.0198709384
Zn  Zn28      1.0  0.62428  0.12572  0.87500  1.0000 1.0198709384
Zn  Zn29      1.0  0.12500  0.12428  0.37428  1.0000 1.0198709384
Zn  Zn30      1.0  0.62500  0.37572  0.62572  1.0000 1.0198709384
Zn  Zn31      1.0  0.37500  0.87572  0.87428  1.0000 1.0198709384
Zn  Zn32      1.0  0.87500  0.62428  0.12572  1.0000 1.0198709384
Zn  Zn33      1.0  0.37428  0.12500  0.12428  1.0000 1.0198709384
Zn  Zn34      1.0  0.62572  0.62500  0.37572  1.0000 1.0198709384
Zn  Zn35      1.0  0.87428  0.37500  0.87572  1.0000 1.0198709384
Zn  Zn36      1.0  0.12572  0.87500  0.62428  1.0000 1.0198709384
H   H1        1.0  0.26870  0.57310  0.37010  1.0000 0.1403254757
H   H2        1.0  0.23130  0.42690  0.87010  1.0000 0.1403254757
H   H3        1.0  0.73130  0.07310  0.12990  1.0000 0.1403254757
H   H4        1.0  0.76870  0.92690  0.62990  1.0000 0.1403254757
H   H5        1.0  0.37010  0.26870  0.57310  1.0000 0.1403254757
H   H6        1.0  0.87010  0.23130  0.42690  1.0000 0.1403254757
H   H7        1.0  0.12990  0.73130  0.07310  1.0000 0.1403254757
H   H8        1.0  0.62990  0.76870  0.92690  1.0000 0.1403254757
H   H9        1.0  0.57310  0.37010  0.26870  1.0000 0.1403254757
H   H10       1.0  0.42690  0.87010  0.23130  1.0000 0.1403254757
H   H11       1.0  0.07310  0.12990  0.73130  1.0000 0.1403254757
H   H12       1.0  0.92690  0.62990  0.76870  1.0000 0.1403254757
H   H13       1.0  0.32310  0.51870  0.87990  1.0000 0.1403254757
H   H14       1.0  0.17690  0.48130  0.37990  1.0000 0.1403254757
H   H15       1.0  0.82310  0.98130  0.12010  1.0000 0.1403254757
H   H16       1.0  0.67690  0.01870  0.62010  1.0000 0.1403254757
H   H17       1.0  0.01870  0.62010  0.67690  1.0000 0.1403254757
H   H18       1.0  0.98130  0.12010  0.82310  1.0000 0.1403254757
H   H19       1.0  0.48130  0.37990  0.17690  1.0000 0.1403254757
H   H20       1.0  0.51870  0.87990  0.32310  1.0000 0.1403254757
H   H21       1.0  0.12010  0.82310  0.98130  1.0000 0.1403254757
H   H22       1.0  0.62010  0.67690  0.01870  1.0000 0.1403254757
H   H23       1.0  0.87990  0.32310  0.51870  1.0000 0.1403254757
H   H24       1.0  0.37990  0.17690  0.48130  1.0000 0.1403254757
H   H25       1.0  0.24500  0.70250  0.44720  1.0000 0.1321050174
H   H26       1.0  0.25500  0.29750  0.94720  1.0000 0.1321050174
H   H27       1.0  0.75500  0.20250  0.05280  1.0000 0.1321050174
H   H28       1.0  0.74500  0.79750  0.55280  1.0000 0.1321050174
H   H29       1.0  0.44720  0.24500  0.70250  1.0000 0.1321050174
H   H30       1.0  0.94720  0.25500  0.29750  1.0000 0.1321050174
H   H31       1.0  0.05280  0.75500  0.20250  1.0000 0.1321050174
H   H32       1.0  0.55280  0.74500  0.79750  1.0000 0.1321050174
H   H33       1.0  0.70250  0.44720  0.24500  1.0000 0.1321050174
H   H34       1.0  0.29750  0.94720  0.25500  1.0000 0.1321050174
H   H35       1.0  0.20250  0.05280  0.75500  1.0000 0.1321050174
H   H36       1.0  0.79750  0.55280  0.74500  1.0000 0.1321050174
H   H37       1.0  0.45250  0.49500  0.80280  1.0000 0.1321050174
H   H38       1.0  0.04750  0.50500  0.30280  1.0000 0.1321050174
H   H39       1.0  0.95250  0.00500  0.19720  1.0000 0.1321050174
H   H40       1.0  0.54750  0.99500  0.69720  1.0000 0.1321050174
H   H41       1.0  0.99500  0.69720  0.54750  1.0000 0.1321050174
H   H42       1.0  0.00500  0.19720  0.95250  1.0000 0.1321050174
H   H43       1.0  0.50500  0.30280  0.04750  1.0000 0.1321050174
H   H44       1.0  0.49500  0.80280  0.45250  1.0000 0.1321050174
H   H45       1.0  0.19720  0.95250  0.00500  1.0000 0.1321050174
H   H46       1.0  0.69720  0.54750  0.99500  1.0000 0.1321050174
H   H47       1.0  0.80280  0.45250  0.49500  1.0000 0.1321050174
H   H48       1.0  0.30280  0.04750  0.50500  1.0000 0.1321050174
H   H49       1.0  0.21510  0.59270  0.31920  1.0000 0.1118607015
H   H50       1.0  0.28490  0.40730  0.81920  1.0000 0.1118607015
H   H51       1.0  0.78490  0.09270  0.18080  1.0000 0.1118607015
H   H52       1.0  0.71510  0.90730  0.68080  1.0000 0.1118607015
H   H53       1.0  0.31920  0.21510  0.59270  1.0000 0.1118607015
H   H54       1.0  0.81920  0.28490  0.40730  1.0000 0.1118607015
H   H55       1.0  0.18080  0.78490  0.09270  1.0000 0.1118607015
H   H56       1.0  0.68080  0.71510  0.90730  1.0000 0.1118607015
H   H57       1.0  0.59270  0.31920  0.21510  1.0000 0.1118607015
H   H58       1.0  0.40730  0.81920  0.28490  1.0000 0.1118607015
H   H59       1.0  0.09270  0.18080  0.78490  1.0000 0.1118607015
H   H60       1.0  0.90730  0.68080  0.71510  1.0000 0.1118607015
H   H61       1.0  0.34270  0.46510  0.93080  1.0000 0.1118607015
H   H62       1.0  0.15730  0.53490  0.43080  1.0000 0.1118607015
H   H63       1.0  0.84270  0.03490  0.06920  1.0000 0.1118607015
H   H64       1.0  0.65730  0.96510  0.56920  1.0000 0.1118607015
H   H65       1.0  0.96510  0.56920  0.65730  1.0000 0.1118607015
H   H66       1.0  0.03490  0.06920  0.84270  1.0000 0.1118607015
H   H67       1.0  0.53490  0.43080  0.15730  1.0000 0.1118607015
H   H68       1.0  0.46510  0.93080  0.34270  1.0000 0.1118607015
H   H69       1.0  0.06920  0.84270  0.03490  1.0000 0.1118607015
H   H70       1.0  0.56920  0.65730  0.96510  1.0000 0.1118607015
H   H71       1.0  0.93080  0.34270  0.46510  1.0000 0.1118607015
H   H72       1.0  0.43080  0.15730  0.53490  1.0000 0.1118607015
H   H73       1.0  0.09220  0.68010  0.28530  1.0000 0.1182476477
H   H74       1.0  0.40780  0.31990  0.78530  1.0000 0.1182476477
H   H75       1.0  0.90780  0.18010  0.21470  1.0000 0.1182476477
H   H76       1.0  0.59220  0.81990  0.71470  1.0000 0.1182476477
H   H77       1.0  0.28530  0.09220  0.68010  1.0000 0.1182476477
H   H78       1.0  0.78530  0.40780  0.31990  1.0000 0.1182476477
H   H79       1.0  0.21470  0.90780  0.18010  1.0000 0.1182476477
H   H80       1.0  0.71470  0.59220  0.81990  1.0000 0.1182476477
H   H81       1.0  0.68010  0.28530  0.09220  1.0000 0.1182476477
H   H82       1.0  0.31990  0.78530  0.40780  1.0000 0.1182476477
H   H83       1.0  0.18010  0.21470  0.90780  1.0000 0.1182476477
H   H84       1.0  0.81990  0.71470  0.59220  1.0000 0.1182476477
H   H85       1.0  0.43010  0.34220  0.96470  1.0000 0.1182476477
H   H86       1.0  0.06990  0.65780  0.46470  1.0000 0.1182476477
H   H87       1.0  0.93010  0.15780  0.03530  1.0000 0.1182476477
H   H88       1.0  0.56990  0.84220  0.53530  1.0000 0.1182476477
H   H89       1.0  0.84220  0.53530  0.56990  1.0000 0.1182476477
H   H90       1.0  0.15780  0.03530  0.93010  1.0000 0.1182476477
H   H91       1.0  0.65780  0.46470  0.06990  1.0000 0.1182476477
H   H92       1.0  0.34220  0.96470  0.43010  1.0000 0.1182476477
H   H93       1.0  0.03530  0.93010  0.15780  1.0000 0.1182476477
H   H94       1.0  0.53530  0.56990  0.84220  1.0000 0.1182476477
H   H95       1.0  0.96470  0.43010  0.34220  1.0000 0.1182476477
H   H96       1.0  0.46470  0.06990  0.65780  1.0000 0.1182476477
H   H97       1.0  0.18290  0.71690  0.40360  1.0000 0.1182476477
H   H98       1.0  0.31710  0.28310  0.90360  1.0000 0.1182476477
H   H99       1.0  0.81710  0.21690  0.09640  1.0000 0.1182476477
H   H100      1.0  0.68290  0.78310  0.59640  1.0000 0.1182476477
H   H101      1.0  0.40360  0.18290  0.71690  1.0000 0.1182476477
H   H102      1.0  0.90360  0.31710  0.28310  1.0000 0.1182476477
H   H103      1.0  0.09640  0.81710  0.21690  1.0000 0.1182476477
H   H104      1.0  0.59640  0.68290  0.78310  1.0000 0.1182476477
H   H105      1.0  0.71690  0.40360  0.18290  1.0000 0.1182476477
H   H106      1.0  0.28310  0.90360  0.31710  1.0000 0.1182476477
H   H107      1.0  0.21690  0.09640  0.81710  1.0000 0.1182476477
H   H108      1.0  0.78310  0.59640  0.68290  1.0000 0.1182476477
H   H109      1.0  0.46690  0.43290  0.84640  1.0000 0.1182476477
H   H110      1.0  0.03310  0.56710  0.34640  1.0000 0.1182476477
H   H111      1.0  0.96690  0.06710  0.15360  1.0000 0.1182476477
H   H112      1.0  0.53310  0.93290  0.65360  1.0000 0.1182476477
H   H113      1.0  0.93290  0.65360  0.53310  1.0000 0.1182476477
H   H114      1.0  0.06710  0.15360  0.96690  1.0000 0.1182476477
H   H115      1.0  0.56710  0.34640  0.03310  1.0000 0.1182476477
H   H116      1.0  0.43290  0.84640  0.46690  1.0000 0.1182476477
H   H117      1.0  0.15360  0.96690  0.06710  1.0000 0.1182476477
H   H118      1.0  0.65360  0.53310  0.93290  1.0000 0.1182476477
H   H119      1.0  0.84640  0.46690  0.43290  1.0000 0.1182476477
H   H120      1.0  0.34640  0.03310  0.56710  1.0000 0.1182476477
H   H121      1.0  0.20720  0.55910  0.24840  1.0000 0.1403254757
H   H122      1.0  0.29280  0.44090  0.74840  1.0000 0.1403254757
H   H123      1.0  0.79280  0.05910  0.25160  1.0000 0.1403254757
H   H124      1.0  0.70720  0.94090  0.75160  1.0000 0.1403254757
H   H125      1.0  0.24840  0.20720  0.55910  1.0000 0.1403254757
H   H126      1.0  0.74840  0.29280  0.44090  1.0000 0.1403254757
H   H127      1.0  0.25160  0.79280  0.05910  1.0000 0.1403254757
H   H128      1.0  0.75160  0.70720  0.94090  1.0000 0.1403254757
H   H129      1.0  0.55910  0.24840  0.20720  1.0000 0.1403254757
H   H130      1.0  0.44090  0.74840  0.29280  1.0000 0.1403254757
H   H131      1.0  0.05910  0.25160  0.79280  1.0000 0.1403254757
H   H132      1.0  0.94090  0.75160  0.70720  1.0000 0.1403254757
H   H133      1.0  0.30910  0.45720  0.00160  1.0000 0.1403254757
H   H134      1.0  0.19090  0.54280  0.50160  1.0000 0.1403254757
H   H135      1.0  0.80910  0.04280  0.99840  1.0000 0.1403254757
H   H136      1.0  0.69090  0.95720  0.49840  1.0000 0.1403254757
H   H137      1.0  0.95720  0.49840  0.69090  1.0000 0.1403254757
H   H138      1.0  0.04280  0.99840  0.80910  1.0000 0.1403254757
H   H139      1.0  0.54280  0.50160  0.19090  1.0000 0.1403254757
H   H140      1.0  0.45720  0.00160  0.30910  1.0000 0.1403254757
H   H141      1.0  0.99840  0.80910  0.04280  1.0000 0.1403254757
H   H142      1.0  0.49840  0.69090  0.95720  1.0000 0.1403254757
H   H143      1.0  0.00160  0.30910  0.45720  1.0000 0.1403254757
H   H144      1.0  0.50160  0.19090  0.54280  1.0000 0.1403254757
H   H145      1.0  0.06610  0.61970  0.23980  1.0000 0.1321050174
H   H146      1.0  0.43390  0.38030  0.73980  1.0000 0.1321050174
H   H147      1.0  0.93390  0.11970  0.26020  1.0000 0.1321050174
H   H148      1.0  0.56610  0.88030  0.76020  1.0000 0.1321050174
H   H149      1.0  0.23980  0.06610  0.61970  1.0000 0.1321050174
H   H150      1.0  0.73980  0.43390  0.38030  1.0000 0.1321050174
H   H151      1.0  0.26020  0.93390  0.11970  1.0000 0.1321050174
H   H152      1.0  0.76020  0.56610  0.88030  1.0000 0.1321050174
H   H153      1.0  0.61970  0.23980  0.06610  1.0000 0.1321050174
H   H154      1.0  0.38030  0.73980  0.43390  1.0000 0.1321050174
H   H155      1.0  0.11970  0.26020  0.93390  1.0000 0.1321050174
H   H156      1.0  0.88030  0.76020  0.56610  1.0000 0.1321050174
H   H157      1.0  0.36970  0.31610  0.01020  1.0000 0.1321050174
H   H158      1.0  0.13030  0.68390  0.51020  1.0000 0.1321050174
H   H159      1.0  0.86970  0.18390  0.98980  1.0000 0.1321050174
H   H160      1.0  0.63030  0.81610  0.48980  1.0000 0.1321050174
H   H161      1.0  0.81610  0.48980  0.63030  1.0000 0.1321050174
H   H162      1.0  0.18390  0.98980  0.86970  1.0000 0.1321050174
H   H163      1.0  0.68390  0.51020  0.13030  1.0000 0.1321050174
H   H164      1.0  0.31610  0.01020  0.36970  1.0000 0.1321050174
H   H165      1.0  0.98980  0.86970  0.18390  1.0000 0.1321050174
H   H166      1.0  0.48980  0.63030  0.81610  1.0000 0.1321050174
H   H167      1.0  0.01020  0.36970  0.31610  1.0000 0.1321050174
H   H168      1.0  0.51020  0.13030  0.68390  1.0000 0.1321050174
H   H169      1.0  0.05940  0.75190  0.29110  1.0000 0.1321050174
H   H170      1.0  0.44060  0.24810  0.79110  1.0000 0.1321050174
H   H171      1.0  0.94060  0.25190  0.20890  1.0000 0.1321050174
H   H172      1.0  0.55940  0.74810  0.70890  1.0000 0.1321050174
H   H173      1.0  0.29110  0.05940  0.75190  1.0000 0.1321050174
H   H174      1.0  0.79110  0.44060  0.24810  1.0000 0.1321050174
H   H175      1.0  0.20890  0.94060  0.25190  1.0000 0.1321050174
H   H176      1.0  0.70890  0.55940  0.74810  1.0000 0.1321050174
H   H177      1.0  0.75190  0.29110  0.05940  1.0000 0.1321050174
H   H178      1.0  0.24810  0.79110  0.44060  1.0000 0.1321050174
H   H179      1.0  0.25190  0.20890  0.94060  1.0000 0.1321050174
H   H180      1.0  0.74810  0.70890  0.55940  1.0000 0.1321050174
H   H181      1.0  0.50190  0.30940  0.95890  1.0000 0.1321050174
H   H182      1.0  0.99810  0.69060  0.45890  1.0000 0.1321050174
H   H183      1.0  0.00190  0.19060  0.04110  1.0000 0.1321050174
H   H184      1.0  0.49810  0.80940  0.54110  1.0000 0.1321050174
H   H185      1.0  0.80940  0.54110  0.49810  1.0000 0.1321050174
H   H186      1.0  0.19060  0.04110  0.00190  1.0000 0.1321050174
H   H187      1.0  0.69060  0.45890  0.99810  1.0000 0.1321050174
H   H188      1.0  0.30940  0.95890  0.50190  1.0000 0.1321050174
H   H189      1.0  0.04110  0.00190  0.19060  1.0000 0.1321050174
H   H190      1.0  0.54110  0.49810  0.80940  1.0000 0.1321050174
H   H191      1.0  0.95890  0.50190  0.30940  1.0000 0.1321050174
H   H192      1.0  0.45890  0.99810  0.69060  1.0000 0.1321050174
H   H193      1.0  0.12040  0.75980  0.43370  1.0000 0.1403254757
H   H194      1.0  0.37960  0.24020  0.93370  1.0000 0.1403254757
H   H195      1.0  0.87960  0.25980  0.06630  1.0000 0.1403254757
H   H196      1.0  0.62040  0.74020  0.56630  1.0000 0.1403254757
H   H197      1.0  0.43370  0.12040  0.75980  1.0000 0.1403254757
H   H198      1.0  0.93370  0.37960  0.24020  1.0000 0.1403254757
H   H199      1.0  0.06630  0.87960  0.25980  1.0000 0.1403254757
H   H200      1.0  0.56630  0.62040  0.74020  1.0000 0.1403254757
H   H201      1.0  0.75980  0.43370  0.12040  1.0000 0.1403254757
H   H202      1.0  0.24020  0.93370  0.37960  1.0000 0.1403254757
H   H203      1.0  0.25980  0.06630  0.87960  1.0000 0.1403254757
H   H204      1.0  0.74020  0.56630  0.62040  1.0000 0.1403254757
H   H205      1.0  0.50980  0.37040  0.81630  1.0000 0.1403254757
H   H206      1.0  0.99020  0.62960  0.31630  1.0000 0.1403254757
H   H207      1.0  0.00980  0.12960  0.18370  1.0000 0.1403254757
H   H208      1.0  0.49020  0.87040  0.68370  1.0000 0.1403254757
H   H209      1.0  0.87040  0.68370  0.49020  1.0000 0.1403254757
H   H210      1.0  0.12960  0.18370  0.00980  1.0000 0.1403254757
H   H211      1.0  0.62960  0.31630  0.99020  1.0000 0.1403254757
H   H212      1.0  0.37040  0.81630  0.50980  1.0000 0.1403254757
H   H213      1.0  0.18370  0.00980  0.12960  1.0000 0.1403254757
H   H214      1.0  0.68370  0.49020  0.87040  1.0000 0.1403254757
H   H215      1.0  0.81630  0.50980  0.37040  1.0000 0.1403254757
H   H216      1.0  0.31630  0.99020  0.62960  1.0000 0.1403254757
H   H217      1.0  0.29790  0.69090  0.53530  1.0000 0.3604357844
H   H218      1.0  0.20210  0.30910  0.03530  1.0000 0.3604357844
H   H219      1.0  0.70210  0.19090  0.96470  1.0000 0.3604357844
H   H220      1.0  0.79790  0.80910  0.46470  1.0000 0.3604357844
H   H221      1.0  0.53530  0.29790  0.69090  1.0000 0.3604357844
H   H222      1.0  0.03530  0.20210  0.30910  1.0000 0.3604357844
H   H223      1.0  0.96470  0.70210  0.19090  1.0000 0.3604357844
H   H224      1.0  0.46470  0.79790  0.80910  1.0000 0.3604357844
H   H225      1.0  0.69090  0.53530  0.29790  1.0000 0.3604357844
H   H226      1.0  0.30910  0.03530  0.20210  1.0000 0.3604357844
H   H227      1.0  0.19090  0.96470  0.70210  1.0000 0.3604357844
H   H228      1.0  0.80910  0.46470  0.79790  1.0000 0.3604357844
H   H229      1.0  0.44090  0.54790  0.71470  1.0000 0.3604357844
H   H230      1.0  0.05910  0.45210  0.21470  1.0000 0.3604357844
H   H231      1.0  0.94090  0.95210  0.28530  1.0000 0.3604357844
H   H232      1.0  0.55910  0.04790  0.78530  1.0000 0.3604357844
H   H233      1.0  0.04790  0.78530  0.55910  1.0000 0.3604357844
H   H234      1.0  0.95210  0.28530  0.94090  1.0000 0.3604357844
H   H235      1.0  0.45210  0.21470  0.05910  1.0000 0.3604357844
H   H236      1.0  0.54790  0.71470  0.44090  1.0000 0.3604357844
H   H237      1.0  0.28530  0.94090  0.95210  1.0000 0.3604357844
H   H238      1.0  0.78530  0.55910  0.04790  1.0000 0.3604357844
H   H239      1.0  0.71470  0.44090  0.54790  1.0000 0.3604357844
H   H240      1.0  0.21470  0.05910  0.45210  1.0000 0.3604357844
H   H241      1.0  0.18680  0.46880  0.16440  1.0000 0.3604357844
H   H242      1.0  0.31320  0.53120  0.66440  1.0000 0.3604357844
H   H243      1.0  0.81320  0.96880  0.33560  1.0000 0.3604357844
H   H244      1.0  0.68680  0.03120  0.83560  1.0000 0.3604357844
H   H245      1.0  0.16440  0.18680  0.46880  1.0000 0.3604357844
H   H246      1.0  0.66440  0.31320  0.53120  1.0000 0.3604357844
H   H247      1.0  0.33560  0.81320  0.96880  1.0000 0.3604357844
H   H248      1.0  0.83560  0.68680  0.03120  1.0000 0.3604357844
H   H249      1.0  0.46880  0.16440  0.18680  1.0000 0.3604357844
H   H250      1.0  0.53120  0.66440  0.31320  1.0000 0.3604357844
H   H251      1.0  0.96880  0.33560  0.81320  1.0000 0.3604357844
H   H252      1.0  0.03120  0.83560  0.68680  1.0000 0.3604357844
H   H253      1.0  0.21880  0.43680  0.08560  1.0000 0.3604357844
H   H254      1.0  0.28120  0.56320  0.58560  1.0000 0.3604357844
H   H255      1.0  0.71880  0.06320  0.91440  1.0000 0.3604357844
H   H256      1.0  0.78120  0.93680  0.41440  1.0000 0.3604357844
H   H257      1.0  0.93680  0.41440  0.78120  1.0000 0.3604357844
H   H258      1.0  0.06320  0.91440  0.71880  1.0000 0.3604357844
H   H259      1.0  0.56320  0.58560  0.28120  1.0000 0.3604357844
H   H260      1.0  0.43680  0.08560  0.21880  1.0000 0.3604357844
H   H261      1.0  0.91440  0.71880  0.06320  1.0000 0.3604357844
H   H262      1.0  0.41440  0.78120  0.93680  1.0000 0.3604357844
H   H263      1.0  0.08560  0.21880  0.43680  1.0000 0.3604357844
H   H264      1.0  0.58560  0.28120  0.56320  1.0000 0.3604357844
H   H265      1.0  0.96660  0.83010  0.31240  1.0000 0.3604357844
H   H266      1.0  0.53340  0.16990  0.81240  1.0000 0.3604357844
H   H267      1.0  0.03340  0.33010  0.18760  1.0000 0.3604357844
H   H268      1.0  0.46660  0.66990  0.68760  1.0000 0.3604357844
H   H269      1.0  0.31240  0.96660  0.83010  1.0000 0.3604357844
H   H270      1.0  0.81240  0.53340  0.16990  1.0000 0.3604357844
H   H271      1.0  0.18760  0.03340  0.33010  1.0000 0.3604357844
H   H272      1.0  0.68760  0.46660  0.66990  1.0000 0.3604357844
H   H273      1.0  0.83010  0.31240  0.96660  1.0000 0.3604357844
H   H274      1.0  0.16990  0.81240  0.53340  1.0000 0.3604357844
H   H275      1.0  0.33010  0.18760  0.03340  1.0000 0.3604357844
H   H276      1.0  0.66990  0.68760  0.46660  1.0000 0.3604357844
H   H277      1.0  0.58010  0.21660  0.93760  1.0000 0.3604357844
H   H278      1.0  0.91990  0.78340  0.43760  1.0000 0.3604357844
H   H279      1.0  0.08010  0.28340  0.06240  1.0000 0.3604357844
H   H280      1.0  0.41990  0.71660  0.56240  1.0000 0.3604357844
H   H281      1.0  0.71660  0.56240  0.41990  1.0000 0.3604357844
H   H282      1.0  0.28340  0.06240  0.08010  1.0000 0.3604357844
H   H283      1.0  0.78340  0.43760  0.91990  1.0000 0.3604357844
H   H284      1.0  0.21660  0.93760  0.58010  1.0000 0.3604357844
H   H285      1.0  0.06240  0.08010  0.28340  1.0000 0.3604357844
H   H286      1.0  0.56240  0.41990  0.71660  1.0000 0.3604357844
H   H287      1.0  0.93760  0.58010  0.21660  1.0000 0.3604357844
H   H288      1.0  0.43760  0.91990  0.78340  1.0000 0.3604357844
H   H289      1.0  0.04310  0.80880  0.48600  1.0000 0.3604357844
H   H290      1.0  0.45690  0.19120  0.98600  1.0000 0.3604357844
H   H291      1.0  0.95690  0.30880  0.01400  1.0000 0.3604357844
H   H292      1.0  0.54310  0.69120  0.51400  1.0000 0.3604357844
H   H293      1.0  0.48600  0.04310  0.80880  1.0000 0.3604357844
H   H294      1.0  0.98600  0.45690  0.19120  1.0000 0.3604357844
H   H295      1.0  0.01400  0.95690  0.30880  1.0000 0.3604357844
H   H296      1.0  0.51400  0.54310  0.69120  1.0000 0.3604357844
H   H297      1.0  0.80880  0.48600  0.04310  1.0000 0.3604357844
H   H298      1.0  0.19120  0.98600  0.45690  1.0000 0.3604357844
H   H299      1.0  0.30880  0.01400  0.95690  1.0000 0.3604357844
H   H300      1.0  0.69120  0.51400  0.54310  1.0000 0.3604357844
H   H301      1.0  0.55880  0.29310  0.76400  1.0000 0.3604357844
H   H302      1.0  0.94120  0.70690  0.26400  1.0000 0.3604357844
H   H303      1.0  0.05880  0.20690  0.23600  1.0000 0.3604357844
H   H304      1.0  0.44120  0.79310  0.73600  1.0000 0.3604357844
H   H305      1.0  0.79310  0.73600  0.44120  1.0000 0.3604357844
H   H306      1.0  0.20690  0.23600  0.05880  1.0000 0.3604357844
H   H307      1.0  0.70690  0.26400  0.94120  1.0000 0.3604357844
H   H308      1.0  0.29310  0.76400  0.55880  1.0000 0.3604357844
H   H309      1.0  0.23600  0.05880  0.20690  1.0000 0.3604357844
H   H310      1.0  0.73600  0.44120  0.79310  1.0000 0.3604357844
H   H311      1.0  0.76400  0.55880  0.29310  1.0000 0.3604357844
H   H312      1.0  0.26400  0.94120  0.70690  1.0000 0.3604357844
H   H313      1.0  0.35080  0.52320  0.43470  1.0000 0.3761993563
H   H314      1.0  0.14920  0.47680  0.93470  1.0000 0.3761993563
H   H315      1.0  0.64920  0.02320  0.06530  1.0000 0.3761993563
H   H316      1.0  0.85080  0.97680  0.56530  1.0000 0.3761993563
H   H317      1.0  0.43470  0.35080  0.52320  1.0000 0.3761993563
H   H318      1.0  0.93470  0.14920  0.47680  1.0000 0.3761993563
H   H319      1.0  0.06530  0.64920  0.02320  1.0000 0.3761993563
H   H320      1.0  0.56530  0.85080  0.97680  1.0000 0.3761993563
H   H321      1.0  0.52320  0.43470  0.35080  1.0000 0.3761993563
H   H322      1.0  0.47680  0.93470  0.14920  1.0000 0.3761993563
H   H323      1.0  0.02320  0.06530  0.64920  1.0000 0.3761993563
H   H324      1.0  0.97680  0.56530  0.85080  1.0000 0.3761993563
H   H325      1.0  0.27320  0.60080  0.81530  1.0000 0.3761993563
H   H326      1.0  0.22680  0.39920  0.31530  1.0000 0.3761993563
H   H327      1.0  0.77320  0.89920  0.18470  1.0000 0.3761993563
H   H328      1.0  0.72680  0.10080  0.68470  1.0000 0.3761993563
H   H329      1.0  0.10080  0.68470  0.72680  1.0000 0.3761993563
H   H330      1.0  0.89920  0.18470  0.77320  1.0000 0.3761993563
H   H331      1.0  0.39920  0.31530  0.22680  1.0000 0.3761993563
H   H332      1.0  0.60080  0.81530  0.27320  1.0000 0.3761993563
H   H333      1.0  0.18470  0.77320  0.89920  1.0000 0.3761993563
H   H334      1.0  0.68470  0.72680  0.10080  1.0000 0.3761993563
H   H335      1.0  0.81530  0.27320  0.60080  1.0000 0.3761993563
H   H336      1.0  0.31530  0.22680  0.39920  1.0000 0.3761993563
C   C1        1.0  0.37070  0.60150  0.50860  1.0000 0.6298551326
C   C2        1.0  0.12930  0.39850  0.00860  1.0000 0.6298551326
C   C3        1.0  0.62930  0.10150  0.99140  1.0000 0.6298551326
C   C4        1.0  0.87070  0.89850  0.49140  1.0000 0.6298551326
C   C5        1.0  0.50860  0.37070  0.60150  1.0000 0.6298551326
C   C6        1.0  0.00860  0.12930  0.39850  1.0000 0.6298551326
C   C7        1.0  0.99140  0.62930  0.10150  1.0000 0.6298551326
C   C8        1.0  0.49140  0.87070  0.89850  1.0000 0.6298551326
C   C9        1.0  0.60150  0.50860  0.37070  1.0000 0.6298551326
C   C10       1.0  0.39850  0.00860  0.12930  1.0000 0.6298551326
C   C11       1.0  0.10150  0.99140  0.62930  1.0000 0.6298551326
C   C12       1.0  0.89850  0.49140  0.87070  1.0000 0.6298551326
C   C13       1.0  0.35150  0.62070  0.74140  1.0000 0.6298551326
C   C14       1.0  0.14850  0.37930  0.24140  1.0000 0.6298551326
C   C15       1.0  0.85150  0.87930  0.25860  1.0000 0.6298551326
C   C16       1.0  0.64850  0.12070  0.75860  1.0000 0.6298551326
C   C17       1.0  0.12070  0.75860  0.64850  1.0000 0.6298551326
C   C18       1.0  0.87930  0.25860  0.85150  1.0000 0.6298551326
C   C19       1.0  0.37930  0.24140  0.14850  1.0000 0.6298551326
C   C20       1.0  0.62070  0.74140  0.35150  1.0000 0.6298551326
C   C21       1.0  0.25860  0.85150  0.87930  1.0000 0.6298551326
C   C22       1.0  0.75860  0.64850  0.12070  1.0000 0.6298551326
C   C23       1.0  0.74140  0.35150  0.62070  1.0000 0.6298551326
C   C24       1.0  0.24140  0.14850  0.37930  1.0000 0.6298551326
C   C25       1.0  0.33050  0.61540  0.47000  1.0000 -0.2891559561
C   C26       1.0  0.16950  0.38460  0.97000  1.0000 -0.2891559561
C   C27       1.0  0.66950  0.11540  0.03000  1.0000 -0.2891559561
C   C28       1.0  0.83050  0.88460  0.53000  1.0000 -0.2891559561
C   C29       1.0  0.47000  0.33050  0.61540  1.0000 -0.2891559561
C   C30       1.0  0.97000  0.16950  0.38460  1.0000 -0.2891559561
C   C31       1.0  0.03000  0.66950  0.11540  1.0000 -0.2891559561
C   C32       1.0  0.53000  0.83050  0.88460  1.0000 -0.2891559561
C   C33       1.0  0.61540  0.47000  0.33050  1.0000 -0.2891559561
C   C34       1.0  0.38460  0.97000  0.16950  1.0000 -0.2891559561
C   C35       1.0  0.11540  0.03000  0.66950  1.0000 -0.2891559561
C   C36       1.0  0.88460  0.53000  0.83050  1.0000 -0.2891559561
C   C37       1.0  0.36540  0.58050  0.78000  1.0000 -0.2891559561
C   C38       1.0  0.13460  0.41950  0.28000  1.0000 -0.2891559561
C   C39       1.0  0.86540  0.91950  0.22000  1.0000 -0.2891559561
C   C40       1.0  0.63460  0.08050  0.72000  1.0000 -0.2891559561
C   C41       1.0  0.08050  0.72000  0.63460  1.0000 -0.2891559561
C   C42       1.0  0.91950  0.22000  0.86540  1.0000 -0.2891559561
C   C43       1.0  0.41950  0.28000  0.13460  1.0000 -0.2891559561
C   C44       1.0  0.58050  0.78000  0.36540  1.0000 -0.2891559561
C   C45       1.0  0.22000  0.86540  0.91950  1.0000 -0.2891559561
C   C46       1.0  0.72000  0.63460  0.08050  1.0000 -0.2891559561
C   C47       1.0  0.78000  0.36540  0.58050  1.0000 -0.2891559561
C   C48       1.0  0.28000  0.13460  0.41950  1.0000 -0.2891559561
C   C49       1.0  0.31770  0.58260  0.42930  1.0000 0.3333425438
C   C50       1.0  0.18230  0.41740  0.92930  1.0000 0.3333425438
C   C51       1.0  0.68230  0.08260  0.07070  1.0000 0.3333425438
C   C52       1.0  0.81770  0.91740  0.57070  1.0000 0.3333425438
C   C53       1.0  0.42930  0.31770  0.58260  1.0000 0.3333425438
C   C54       1.0  0.92930  0.18230  0.41740  1.0000 0.3333425438
C   C55       1.0  0.07070  0.68230  0.08260  1.0000 0.3333425438
C   C56       1.0  0.57070  0.81770  0.91740  1.0000 0.3333425438
C   C57       1.0  0.58260  0.42930  0.31770  1.0000 0.3333425438
C   C58       1.0  0.41740  0.92930  0.18230  1.0000 0.3333425438
C   C59       1.0  0.08260  0.07070  0.68230  1.0000 0.3333425438
C   C60       1.0  0.91740  0.57070  0.81770  1.0000 0.3333425438
C   C61       1.0  0.33260  0.56770  0.82070  1.0000 0.3333425438
C   C62       1.0  0.16740  0.43230  0.32070  1.0000 0.3333425438
C   C63       1.0  0.83260  0.93230  0.17930  1.0000 0.3333425438
C   C64       1.0  0.66740  0.06770  0.67930  1.0000 0.3333425438
C   C65       1.0  0.06770  0.67930  0.66740  1.0000 0.3333425438
C   C66       1.0  0.93230  0.17930  0.83260  1.0000 0.3333425438
C   C67       1.0  0.43230  0.32070  0.16740  1.0000 0.3333425438
C   C68       1.0  0.56770  0.82070  0.33260  1.0000 0.3333425438
C   C69       1.0  0.17930  0.83260  0.93230  1.0000 0.3333425438
C   C70       1.0  0.67930  0.66740  0.06770  1.0000 0.3333425438
C   C71       1.0  0.82070  0.33260  0.56770  1.0000 0.3333425438
C   C72       1.0  0.32070  0.16740  0.43230  1.0000 0.3333425438
C   C73       1.0  0.27740  0.59570  0.39640  1.0000 -0.2818622413
C   C74       1.0  0.22260  0.40430  0.89640  1.0000 -0.2818622413
C   C75       1.0  0.72260  0.09570  0.10360  1.0000 -0.2818622413
C   C76       1.0  0.77740  0.90430  0.60360  1.0000 -0.2818622413
C   C77       1.0  0.39640  0.27740  0.59570  1.0000 -0.2818622413
C   C78       1.0  0.89640  0.22260  0.40430  1.0000 -0.2818622413
C   C79       1.0  0.10360  0.72260  0.09570  1.0000 -0.2818622413
C   C80       1.0  0.60360  0.77740  0.90430  1.0000 -0.2818622413
C   C81       1.0  0.59570  0.39640  0.27740  1.0000 -0.2818622413
C   C82       1.0  0.40430  0.89640  0.22260  1.0000 -0.2818622413
C   C83       1.0  0.09570  0.10360  0.72260  1.0000 -0.2818622413
C   C84       1.0  0.90430  0.60360  0.77740  1.0000 -0.2818622413
C   C85       1.0  0.34570  0.52740  0.85360  1.0000 -0.2818622413
C   C86       1.0  0.15430  0.47260  0.35360  1.0000 -0.2818622413
C   C87       1.0  0.84570  0.97260  0.14640  1.0000 -0.2818622413
C   C88       1.0  0.65430  0.02740  0.64640  1.0000 -0.2818622413
C   C89       1.0  0.02740  0.64640  0.65430  1.0000 -0.2818622413
C   C90       1.0  0.97260  0.14640  0.84570  1.0000 -0.2818622413
C   C91       1.0  0.47260  0.35360  0.15430  1.0000 -0.2818622413
C   C92       1.0  0.52740  0.85360  0.34570  1.0000 -0.2818622413
C   C93       1.0  0.14640  0.84570  0.97260  1.0000 -0.2818622413
C   C94       1.0  0.64640  0.65430  0.02740  1.0000 -0.2818622413
C   C95       1.0  0.85360  0.34570  0.52740  1.0000 -0.2818622413
C   C96       1.0  0.35360  0.15430  0.47260  1.0000 -0.2818622413
C   C97       1.0  0.25020  0.64020  0.40130  1.0000 0.1321050174
C   C98       1.0  0.24980  0.35980  0.90130  1.0000 0.1321050174
C   C99       1.0  0.74980  0.14020  0.09870  1.0000 0.1321050174
C   C100      1.0  0.75020  0.85980  0.59870  1.0000 0.1321050174
C   C101      1.0  0.40130  0.25020  0.64020  1.0000 0.1321050174
C   C102      1.0  0.90130  0.24980  0.35980  1.0000 0.1321050174
C   C103      1.0  0.09870  0.74980  0.14020  1.0000 0.1321050174
C   C104      1.0  0.59870  0.75020  0.85980  1.0000 0.1321050174
C   C105      1.0  0.64020  0.40130  0.25020  1.0000 0.1321050174
C   C106      1.0  0.35980  0.90130  0.24980  1.0000 0.1321050174
C   C107      1.0  0.14020  0.09870  0.74980  1.0000 0.1321050174
C   C108      1.0  0.85980  0.59870  0.75020  1.0000 0.1321050174
C   C109      1.0  0.39020  0.50020  0.84870  1.0000 0.1321050174
C   C110      1.0  0.10980  0.49980  0.34870  1.0000 0.1321050174
C   C111      1.0  0.89020  0.99980  0.15130  1.0000 0.1321050174
C   C112      1.0  0.60980  0.00020  0.65130  1.0000 0.1321050174
C   C113      1.0  0.00020  0.65130  0.60980  1.0000 0.1321050174
C   C114      1.0  0.99980  0.15130  0.89020  1.0000 0.1321050174
C   C115      1.0  0.49980  0.34870  0.10980  1.0000 0.1321050174
C   C116      1.0  0.50020  0.84870  0.39020  1.0000 0.1321050174
C   C117      1.0  0.15130  0.89020  0.99980  1.0000 0.1321050174
C   C118      1.0  0.65130  0.60980  0.00020  1.0000 0.1321050174
C   C119      1.0  0.84870  0.39020  0.50020  1.0000 0.1321050174
C   C120      1.0  0.34870  0.10980  0.49980  1.0000 0.1321050174
C   C121      1.0  0.26300  0.67200  0.44230  1.0000 -0.3190156901
C   C122      1.0  0.23700  0.32800  0.94230  1.0000 -0.3190156901
C   C123      1.0  0.73700  0.17200  0.05770  1.0000 -0.3190156901
C   C124      1.0  0.76300  0.82800  0.55770  1.0000 -0.3190156901
C   C125      1.0  0.44230  0.26300  0.67200  1.0000 -0.3190156901
C   C126      1.0  0.94230  0.23700  0.32800  1.0000 -0.3190156901
C   C127      1.0  0.05770  0.73700  0.17200  1.0000 -0.3190156901
C   C128      1.0  0.55770  0.76300  0.82800  1.0000 -0.3190156901
C   C129      1.0  0.67200  0.44230  0.26300  1.0000 -0.3190156901
C   C130      1.0  0.32800  0.94230  0.23700  1.0000 -0.3190156901
C   C131      1.0  0.17200  0.05770  0.73700  1.0000 -0.3190156901
C   C132      1.0  0.82800  0.55770  0.76300  1.0000 -0.3190156901
C   C133      1.0  0.42200  0.51300  0.80770  1.0000 -0.3190156901
C   C134      1.0  0.07800  0.48700  0.30770  1.0000 -0.3190156901
C   C135      1.0  0.92200  0.98700  0.19230  1.0000 -0.3190156901
C   C136      1.0  0.57800  0.01300  0.69230  1.0000 -0.3190156901
C   C137      1.0  0.01300  0.69230  0.57800  1.0000 -0.3190156901
C   C138      1.0  0.98700  0.19230  0.92200  1.0000 -0.3190156901
C   C139      1.0  0.48700  0.30770  0.07800  1.0000 -0.3190156901
C   C140      1.0  0.51300  0.80770  0.42200  1.0000 -0.3190156901
C   C141      1.0  0.19230  0.92200  0.98700  1.0000 -0.3190156901
C   C142      1.0  0.69230  0.57800  0.01300  1.0000 -0.3190156901
C   C143      1.0  0.80770  0.42200  0.51300  1.0000 -0.3190156901
C   C144      1.0  0.30770  0.07800  0.48700  1.0000 -0.3190156901
C   C145      1.0  0.30180  0.65940  0.47590  1.0000 0.3041929146
C   C146      1.0  0.19820  0.34060  0.97590  1.0000 0.3041929146
C   C147      1.0  0.69820  0.15940  0.02410  1.0000 0.3041929146
C   C148      1.0  0.80180  0.84060  0.52410  1.0000 0.3041929146
C   C149      1.0  0.47590  0.30180  0.65940  1.0000 0.3041929146
C   C150      1.0  0.97590  0.19820  0.34060  1.0000 0.3041929146
C   C151      1.0  0.02410  0.69820  0.15940  1.0000 0.3041929146
C   C152      1.0  0.52410  0.80180  0.84060  1.0000 0.3041929146
C   C153      1.0  0.65940  0.47590  0.30180  1.0000 0.3041929146
C   C154      1.0  0.34060  0.97590  0.19820  1.0000 0.3041929146
C   C155      1.0  0.15940  0.02410  0.69820  1.0000 0.3041929146
C   C156      1.0  0.84060  0.52410  0.80180  1.0000 0.3041929146
C   C157      1.0  0.40940  0.55180  0.77410  1.0000 0.3041929146
C   C158      1.0  0.09060  0.44820  0.27410  1.0000 0.3041929146
C   C159      1.0  0.90940  0.94820  0.22590  1.0000 0.3041929146
C   C160      1.0  0.59060  0.05180  0.72590  1.0000 0.3041929146
C   C161      1.0  0.05180  0.72590  0.59060  1.0000 0.3041929146
C   C162      1.0  0.94820  0.22590  0.90940  1.0000 0.3041929146
C   C163      1.0  0.44820  0.27410  0.09060  1.0000 0.3041929146
C   C164      1.0  0.55180  0.77410  0.40940  1.0000 0.3041929146
C   C165      1.0  0.22590  0.90940  0.94820  1.0000 0.3041929146
C   C166      1.0  0.72590  0.59060  0.05180  1.0000 0.3041929146
C   C167      1.0  0.77410  0.40940  0.55180  1.0000 0.3041929146
C   C168      1.0  0.27410  0.09060  0.44820  1.0000 0.3041929146
C   C169      1.0  0.20610  0.65400  0.36740  1.0000 0.0801281393
C   C170      1.0  0.29390  0.34600  0.86740  1.0000 0.0801281393
C   C171      1.0  0.79390  0.15400  0.13260  1.0000 0.0801281393
C   C172      1.0  0.70610  0.84600  0.63260  1.0000 0.0801281393
C   C173      1.0  0.36740  0.20610  0.65400  1.0000 0.0801281393
C   C174      1.0  0.86740  0.29390  0.34600  1.0000 0.0801281393
C   C175      1.0  0.13260  0.79390  0.15400  1.0000 0.0801281393
C   C176      1.0  0.63260  0.70610  0.84600  1.0000 0.0801281393
C   C177      1.0  0.65400  0.36740  0.20610  1.0000 0.0801281393
C   C178      1.0  0.34600  0.86740  0.29390  1.0000 0.0801281393
C   C179      1.0  0.15400  0.13260  0.79390  1.0000 0.0801281393
C   C180      1.0  0.84600  0.63260  0.70610  1.0000 0.0801281393
C   C181      1.0  0.40400  0.45610  0.88260  1.0000 0.0801281393
C   C182      1.0  0.09600  0.54390  0.38260  1.0000 0.0801281393
C   C183      1.0  0.90400  0.04390  0.11740  1.0000 0.0801281393
C   C184      1.0  0.59600  0.95610  0.61740  1.0000 0.0801281393
C   C185      1.0  0.95610  0.61740  0.59600  1.0000 0.0801281393
C   C186      1.0  0.04390  0.11740  0.90400  1.0000 0.0801281393
C   C187      1.0  0.54390  0.38260  0.09600  1.0000 0.0801281393
C   C188      1.0  0.45610  0.88260  0.40400  1.0000 0.0801281393
C   C189      1.0  0.11740  0.90400  0.04390  1.0000 0.0801281393
C   C190      1.0  0.61740  0.59600  0.95610  1.0000 0.0801281393
C   C191      1.0  0.88260  0.40400  0.45610  1.0000 0.0801281393
C   C192      1.0  0.38260  0.09600  0.54390  1.0000 0.0801281393
C   C193      1.0  0.19450  0.62130  0.32570  1.0000 -0.1941379293
C   C194      1.0  0.30550  0.37870  0.82570  1.0000 -0.1941379293
C   C195      1.0  0.80550  0.12130  0.17430  1.0000 -0.1941379293
C   C196      1.0  0.69450  0.87870  0.67430  1.0000 -0.1941379293
C   C197      1.0  0.32570  0.19450  0.62130  1.0000 -0.1941379293
C   C198      1.0  0.82570  0.30550  0.37870  1.0000 -0.1941379293
C   C199      1.0  0.17430  0.80550  0.12130  1.0000 -0.1941379293
C   C200      1.0  0.67430  0.69450  0.87870  1.0000 -0.1941379293
C   C201      1.0  0.62130  0.32570  0.19450  1.0000 -0.1941379293
C   C202      1.0  0.37870  0.82570  0.30550  1.0000 -0.1941379293
C   C203      1.0  0.12130  0.17430  0.80550  1.0000 -0.1941379293
C   C204      1.0  0.87870  0.67430  0.69450  1.0000 -0.1941379293
C   C205      1.0  0.37130  0.44450  0.92430  1.0000 -0.1941379293
C   C206      1.0  0.12870  0.55550  0.42430  1.0000 -0.1941379293
C   C207      1.0  0.87130  0.05550  0.07570  1.0000 -0.1941379293
C   C208      1.0  0.62870  0.94450  0.57570  1.0000 -0.1941379293
C   C209      1.0  0.94450  0.57570  0.62870  1.0000 -0.1941379293
C   C210      1.0  0.05550  0.07570  0.87130  1.0000 -0.1941379293
C   C211      1.0  0.55550  0.42430  0.12870  1.0000 -0.1941379293
C   C212      1.0  0.44450  0.92430  0.37130  1.0000 -0.1941379293
C   C213      1.0  0.07570  0.87130  0.05550  1.0000 -0.1941379293
C   C214      1.0  0.57570  0.62870  0.94450  1.0000 -0.1941379293
C   C215      1.0  0.92430  0.37130  0.44450  1.0000 -0.1941379293
C   C216      1.0  0.42430  0.12870  0.55550  1.0000 -0.1941379293
C   C217      1.0  0.15180  0.63170  0.29380  1.0000 0.0864727935
C   C218      1.0  0.34820  0.36830  0.79380  1.0000 0.0864727935
C   C219      1.0  0.84820  0.13170  0.20620  1.0000 0.0864727935
C   C220      1.0  0.65180  0.86830  0.70620  1.0000 0.0864727935
C   C221      1.0  0.29380  0.15180  0.63170  1.0000 0.0864727935
C   C222      1.0  0.79380  0.34820  0.36830  1.0000 0.0864727935
C   C223      1.0  0.20620  0.84820  0.13170  1.0000 0.0864727935
C   C224      1.0  0.70620  0.65180  0.86830  1.0000 0.0864727935
C   C225      1.0  0.63170  0.29380  0.15180  1.0000 0.0864727935
C   C226      1.0  0.36830  0.79380  0.34820  1.0000 0.0864727935
C   C227      1.0  0.13170  0.20620  0.84820  1.0000 0.0864727935
C   C228      1.0  0.86830  0.70620  0.65180  1.0000 0.0864727935
C   C229      1.0  0.38170  0.40180  0.95620  1.0000 0.0864727935
C   C230      1.0  0.11830  0.59820  0.45620  1.0000 0.0864727935
C   C231      1.0  0.88170  0.09820  0.04380  1.0000 0.0864727935
C   C232      1.0  0.61830  0.90180  0.54380  1.0000 0.0864727935
C   C233      1.0  0.90180  0.54380  0.61830  1.0000 0.0864727935
C   C234      1.0  0.09820  0.04380  0.88170  1.0000 0.0864727935
C   C235      1.0  0.59820  0.45620  0.11830  1.0000 0.0864727935
C   C236      1.0  0.40180  0.95620  0.38170  1.0000 0.0864727935
C   C237      1.0  0.04380  0.88170  0.09820  1.0000 0.0864727935
C   C238      1.0  0.54380  0.61830  0.90180  1.0000 0.0864727935
C   C239      1.0  0.95620  0.38170  0.40180  1.0000 0.0864727935
C   C240      1.0  0.45620  0.11830  0.59820  1.0000 0.0864727935
C   C241      1.0  0.12100  0.67360  0.30550  1.0000 -0.1783284788
C   C242      1.0  0.37900  0.32640  0.80550  1.0000 -0.1783284788
C   C243      1.0  0.87900  0.17360  0.19450  1.0000 -0.1783284788
C   C244      1.0  0.62100  0.82640  0.69450  1.0000 -0.1783284788
C   C245      1.0  0.30550  0.12100  0.67360  1.0000 -0.1783284788
C   C246      1.0  0.80550  0.37900  0.32640  1.0000 -0.1783284788
C   C247      1.0  0.19450  0.87900  0.17360  1.0000 -0.1783284788
C   C248      1.0  0.69450  0.62100  0.82640  1.0000 -0.1783284788
C   C249      1.0  0.67360  0.30550  0.12100  1.0000 -0.1783284788
C   C250      1.0  0.32640  0.80550  0.37900  1.0000 -0.1783284788
C   C251      1.0  0.17360  0.19450  0.87900  1.0000 -0.1783284788
C   C252      1.0  0.82640  0.69450  0.62100  1.0000 -0.1783284788
C   C253      1.0  0.42360  0.37100  0.94450  1.0000 -0.1783284788
C   C254      1.0  0.07640  0.62900  0.44450  1.0000 -0.1783284788
C   C255      1.0  0.92360  0.12900  0.05550  1.0000 -0.1783284788
C   C256      1.0  0.57640  0.87100  0.55550  1.0000 -0.1783284788
C   C257      1.0  0.87100  0.55550  0.57640  1.0000 -0.1783284788
C   C258      1.0  0.12900  0.05550  0.92360  1.0000 -0.1783284788
C   C259      1.0  0.62900  0.44450  0.07640  1.0000 -0.1783284788
C   C260      1.0  0.37100  0.94450  0.42360  1.0000 -0.1783284788
C   C261      1.0  0.05550  0.92360  0.12900  1.0000 -0.1783284788
C   C262      1.0  0.55550  0.57640  0.87100  1.0000 -0.1783284788
C   C263      1.0  0.94450  0.42360  0.37100  1.0000 -0.1783284788
C   C264      1.0  0.44450  0.07640  0.62900  1.0000 -0.1783284788
C   C265      1.0  0.13190  0.70570  0.34600  1.0000 0.0801281393
C   C266      1.0  0.36810  0.29430  0.84600  1.0000 0.0801281393
C   C267      1.0  0.86810  0.20570  0.15400  1.0000 0.0801281393
C   C268      1.0  0.63190  0.79430  0.65400  1.0000 0.0801281393
C   C269      1.0  0.34600  0.13190  0.70570  1.0000 0.0801281393
C   C270      1.0  0.84600  0.36810  0.29430  1.0000 0.0801281393
C   C271      1.0  0.15400  0.86810  0.20570  1.0000 0.0801281393
C   C272      1.0  0.65400  0.63190  0.79430  1.0000 0.0801281393
C   C273      1.0  0.70570  0.34600  0.13190  1.0000 0.0801281393
C   C274      1.0  0.29430  0.84600  0.36810  1.0000 0.0801281393
C   C275      1.0  0.20570  0.15400  0.86810  1.0000 0.0801281393
C   C276      1.0  0.79430  0.65400  0.63190  1.0000 0.0801281393
C   C277      1.0  0.45570  0.38190  0.90400  1.0000 0.0801281393
C   C278      1.0  0.04430  0.61810  0.40400  1.0000 0.0801281393
C   C279      1.0  0.95570  0.11810  0.09600  1.0000 0.0801281393
C   C280      1.0  0.54430  0.88190  0.59600  1.0000 0.0801281393
C   C281      1.0  0.88190  0.59600  0.54430  1.0000 0.0801281393
C   C282      1.0  0.11810  0.09600  0.95570  1.0000 0.0801281393
C   C283      1.0  0.61810  0.40400  0.04430  1.0000 0.0801281393
C   C284      1.0  0.38190  0.90400  0.45570  1.0000 0.0801281393
C   C285      1.0  0.09600  0.95570  0.11810  1.0000 0.0801281393
C   C286      1.0  0.59600  0.54430  0.88190  1.0000 0.0801281393
C   C287      1.0  0.90400  0.45570  0.38190  1.0000 0.0801281393
C   C288      1.0  0.40400  0.04430  0.61810  1.0000 0.0801281393
C   C289      1.0  0.17510  0.69510  0.37640  1.0000 -0.1783284788
C   C290      1.0  0.32490  0.30490  0.87640  1.0000 -0.1783284788
C   C291      1.0  0.82490  0.19510  0.12360  1.0000 -0.1783284788
C   C292      1.0  0.67510  0.80490  0.62360  1.0000 -0.1783284788
C   C293      1.0  0.37640  0.17510  0.69510  1.0000 -0.1783284788
C   C294      1.0  0.87640  0.32490  0.30490  1.0000 -0.1783284788
C   C295      1.0  0.12360  0.82490  0.19510  1.0000 -0.1783284788
C   C296      1.0  0.62360  0.67510  0.80490  1.0000 -0.1783284788
C   C297      1.0  0.69510  0.37640  0.17510  1.0000 -0.1783284788
C   C298      1.0  0.30490  0.87640  0.32490  1.0000 -0.1783284788
C   C299      1.0  0.19510  0.12360  0.82490  1.0000 -0.1783284788
C   C300      1.0  0.80490  0.62360  0.67510  1.0000 -0.1783284788
C   C301      1.0  0.44510  0.42510  0.87360  1.0000 -0.1783284788
C   C302      1.0  0.05490  0.57490  0.37360  1.0000 -0.1783284788
C   C303      1.0  0.94510  0.07490  0.12640  1.0000 -0.1783284788
C   C304      1.0  0.55490  0.92510  0.62640  1.0000 -0.1783284788
C   C305      1.0  0.92510  0.62640  0.55490  1.0000 -0.1783284788
C   C306      1.0  0.07490  0.12640  0.94510  1.0000 -0.1783284788
C   C307      1.0  0.57490  0.37360  0.05490  1.0000 -0.1783284788
C   C308      1.0  0.42510  0.87360  0.44510  1.0000 -0.1783284788
C   C309      1.0  0.12640  0.94510  0.07490  1.0000 -0.1783284788
C   C310      1.0  0.62640  0.55490  0.92510  1.0000 -0.1783284788
C   C311      1.0  0.87360  0.44510  0.42510  1.0000 -0.1783284788
C   C312      1.0  0.37360  0.05490  0.57490  1.0000 -0.1783284788
C   C313      1.0  0.13880  0.59620  0.25050  1.0000 0.1182476477
C   C314      1.0  0.36120  0.40380  0.75050  1.0000 0.1182476477
C   C315      1.0  0.86120  0.09620  0.24950  1.0000 0.1182476477
C   C316      1.0  0.63880  0.90380  0.74950  1.0000 0.1182476477
C   C317      1.0  0.25050  0.13880  0.59620  1.0000 0.1182476477
C   C318      1.0  0.75050  0.36120  0.40380  1.0000 0.1182476477
C   C319      1.0  0.24950  0.86120  0.09620  1.0000 0.1182476477
C   C320      1.0  0.74950  0.63880  0.90380  1.0000 0.1182476477
C   C321      1.0  0.59620  0.25050  0.13880  1.0000 0.1182476477
C   C322      1.0  0.40380  0.75050  0.36120  1.0000 0.1182476477
C   C323      1.0  0.09620  0.24950  0.86120  1.0000 0.1182476477
C   C324      1.0  0.90380  0.74950  0.63880  1.0000 0.1182476477
C   C325      1.0  0.34620  0.38880  0.99950  1.0000 0.1182476477
C   C326      1.0  0.15380  0.61120  0.49950  1.0000 0.1182476477
C   C327      1.0  0.84620  0.11120  0.00050  1.0000 0.1182476477
C   C328      1.0  0.65380  0.88880  0.50050  1.0000 0.1182476477
C   C329      1.0  0.88880  0.50050  0.65380  1.0000 0.1182476477
C   C330      1.0  0.11120  0.00050  0.84620  1.0000 0.1182476477
C   C331      1.0  0.61120  0.49950  0.15380  1.0000 0.1182476477
C   C332      1.0  0.38880  0.99950  0.34620  1.0000 0.1182476477
C   C333      1.0  0.00050  0.84620  0.11120  1.0000 0.1182476477
C   C334      1.0  0.50050  0.65380  0.88880  1.0000 0.1182476477
C   C335      1.0  0.99950  0.34620  0.38880  1.0000 0.1182476477
C   C336      1.0  0.49950  0.15380  0.61120  1.0000 0.1182476477
C   C337      1.0  0.17490  0.56030  0.23320  1.0000 -0.2748136902
C   C338      1.0  0.32510  0.43970  0.73320  1.0000 -0.2818622413
C   C339      1.0  0.82510  0.06030  0.26680  1.0000 -0.2818622413
C   C340      1.0  0.67490  0.93970  0.76680  1.0000 -0.2748136902
C   C341      1.0  0.23320  0.17490  0.56030  1.0000 -0.2748136902
C   C342      1.0  0.73320  0.32510  0.43970  1.0000 -0.2818622413
C   C343      1.0  0.26680  0.82510  0.06030  1.0000 -0.2748136902
C   C344      1.0  0.76680  0.67490  0.93970  1.0000 -0.2818622413
C   C345      1.0  0.56030  0.23320  0.17490  1.0000 -0.2748136902
C   C346      1.0  0.43970  0.73320  0.32510  1.0000 -0.2818622413
C   C347      1.0  0.06030  0.26680  0.82510  1.0000 -0.2748136902
C   C348      1.0  0.93970  0.76680  0.67490  1.0000 -0.2748136902
C   C349      1.0  0.31030  0.42490  0.01680  1.0000 -0.2748136902
C   C350      1.0  0.18970  0.57510  0.51680  1.0000 -0.2748136902
C   C351      1.0  0.81030  0.07510  0.98320  1.0000 -0.2818622413
C   C352      1.0  0.68970  0.92490  0.48320  1.0000 -0.2748136902
C   C353      1.0  0.92490  0.48320  0.68970  1.0000 -0.2818622413
C   C354      1.0  0.07510  0.98320  0.81030  1.0000 -0.2748136902
C   C355      1.0  0.57510  0.51680  0.18970  1.0000 -0.2748136902
C   C356      1.0  0.42490  0.01680  0.31030  1.0000 -0.2818622413
C   C357      1.0  0.98320  0.81030  0.07510  1.0000 -0.2748136902
C   C358      1.0  0.48320  0.68970  0.92490  1.0000 -0.2748136902
C   C359      1.0  0.01680  0.31030  0.42490  1.0000 -0.2748136902
C   C360      1.0  0.51680  0.18970  0.57510  1.0000 -0.2748136902
C   C361      1.0  0.16310  0.52670  0.19390  1.0000 0.3097587454
C   C362      1.0  0.33690  0.47330  0.69390  1.0000 0.3097587454
C   C363      1.0  0.83690  0.02670  0.30610  1.0000 0.3097587454
C   C364      1.0  0.66310  0.97330  0.80610  1.0000 0.3097587454
C   C365      1.0  0.19390  0.16310  0.52670  1.0000 0.3097587454
C   C366      1.0  0.69390  0.33690  0.47330  1.0000 0.3097587454
C   C367      1.0  0.30610  0.83690  0.02670  1.0000 0.3097587454
C   C368      1.0  0.80610  0.66310  0.97330  1.0000 0.3097587454
C   C369      1.0  0.52670  0.19390  0.16310  1.0000 0.3097587454
C   C370      1.0  0.47330  0.69390  0.33690  1.0000 0.3097587454
C   C371      1.0  0.02670  0.30610  0.83690  1.0000 0.3097587454
C   C372      1.0  0.97330  0.80610  0.66310  1.0000 0.3097587454
C   C373      1.0  0.27670  0.41310  0.05610  1.0000 0.3097587454
C   C374      1.0  0.22330  0.58690  0.55610  1.0000 0.3097587454
C   C375      1.0  0.77670  0.08690  0.94390  1.0000 0.3097587454
C   C376      1.0  0.72330  0.91310  0.44390  1.0000 0.3097587454
C   C377      1.0  0.91310  0.44390  0.72330  1.0000 0.3097587454
C   C378      1.0  0.08690  0.94390  0.77670  1.0000 0.3097587454
C   C379      1.0  0.58690  0.55610  0.22330  1.0000 0.3097587454
C   C380      1.0  0.41310  0.05610  0.27670  1.0000 0.3097587454
C   C381      1.0  0.94390  0.77670  0.08690  1.0000 0.3097587454
C   C382      1.0  0.44390  0.72330  0.91310  1.0000 0.3097587454
C   C383      1.0  0.05610  0.27670  0.41310  1.0000 0.3097587454
C   C384      1.0  0.55610  0.22330  0.58690  1.0000 0.3097587454
C   C385      1.0  0.11440  0.52750  0.17020  1.0000 -0.352357016
C   C386      1.0  0.38560  0.47250  0.67020  1.0000 -0.352357016
C   C387      1.0  0.88560  0.02750  0.32980  1.0000 -0.352357016
C   C388      1.0  0.61440  0.97250  0.82980  1.0000 -0.352357016
C   C389      1.0  0.17020  0.11440  0.52750  1.0000 -0.352357016
C   C390      1.0  0.67020  0.38560  0.47250  1.0000 -0.352357016
C   C391      1.0  0.32980  0.88560  0.02750  1.0000 -0.352357016
C   C392      1.0  0.82980  0.61440  0.97250  1.0000 -0.352357016
C   C393      1.0  0.52750  0.17020  0.11440  1.0000 -0.352357016
C   C394      1.0  0.47250  0.67020  0.38560  1.0000 -0.352357016
C   C395      1.0  0.02750  0.32980  0.88560  1.0000 -0.352357016
C   C396      1.0  0.97250  0.82980  0.61440  1.0000 -0.352357016
C   C397      1.0  0.27750  0.36440  0.07980  1.0000 -0.352357016
C   C398      1.0  0.22250  0.63560  0.57980  1.0000 -0.352357016
C   C399      1.0  0.77750  0.13560  0.92020  1.0000 -0.352357016
C   C400      1.0  0.72250  0.86440  0.42020  1.0000 -0.352357016
C   C401      1.0  0.86440  0.42020  0.72250  1.0000 -0.352357016
C   C402      1.0  0.13560  0.92020  0.77750  1.0000 -0.352357016
C   C403      1.0  0.63560  0.57980  0.22250  1.0000 -0.352357016
C   C404      1.0  0.36440  0.07980  0.27750  1.0000 -0.352357016
C   C405      1.0  0.92020  0.77750  0.13560  1.0000 -0.352357016
C   C406      1.0  0.42020  0.72250  0.86440  1.0000 -0.352357016
C   C407      1.0  0.07980  0.27750  0.36440  1.0000 -0.352357016
C   C408      1.0  0.57980  0.22250  0.63560  1.0000 -0.352357016
C   C409      1.0  0.07830  0.56260  0.18830  1.0000 0.347100473
C   C410      1.0  0.42170  0.43740  0.68830  1.0000 0.347100473
C   C411      1.0  0.92170  0.06260  0.31170  1.0000 0.347100473
C   C412      1.0  0.57830  0.93740  0.81170  1.0000 0.347100473
C   C413      1.0  0.18830  0.07830  0.56260  1.0000 0.347100473
C   C414      1.0  0.68830  0.42170  0.43740  1.0000 0.347100473
C   C415      1.0  0.31170  0.92170  0.06260  1.0000 0.347100473
C   C416      1.0  0.81170  0.57830  0.93740  1.0000 0.347100473
C   C417      1.0  0.56260  0.18830  0.07830  1.0000 0.347100473
C   C418      1.0  0.43740  0.68830  0.42170  1.0000 0.347100473
C   C419      1.0  0.06260  0.31170  0.92170  1.0000 0.347100473
C   C420      1.0  0.93740  0.81170  0.57830  1.0000 0.347100473
C   C421      1.0  0.31260  0.32830  0.06170  1.0000 0.347100473
C   C422      1.0  0.18740  0.67170  0.56170  1.0000 0.347100473
C   C423      1.0  0.81260  0.17170  0.93830  1.0000 0.347100473
C   C424      1.0  0.68740  0.82830  0.43830  1.0000 0.347100473
C   C425      1.0  0.82830  0.43830  0.68740  1.0000 0.347100473
C   C426      1.0  0.17170  0.93830  0.81260  1.0000 0.347100473
C   C427      1.0  0.67170  0.56170  0.18740  1.0000 0.347100473
C   C428      1.0  0.32830  0.06170  0.31260  1.0000 0.347100473
C   C429      1.0  0.93830  0.81260  0.17170  1.0000 0.347100473
C   C430      1.0  0.43830  0.68740  0.82830  1.0000 0.347100473
C   C431      1.0  0.06170  0.31260  0.32830  1.0000 0.347100473
C   C432      1.0  0.56170  0.18740  0.67170  1.0000 0.347100473
C   C433      1.0  0.09070  0.59650  0.22820  1.0000 -0.3063860856
C   C434      1.0  0.40930  0.40350  0.72820  1.0000 -0.3063860856
C   C435      1.0  0.90930  0.09650  0.27180  1.0000 -0.3063860856
C   C436      1.0  0.59070  0.90350  0.77180  1.0000 -0.3063860856
C   C437      1.0  0.22820  0.09070  0.59650  1.0000 -0.3063860856
C   C438      1.0  0.72820  0.40930  0.40350  1.0000 -0.3063860856
C   C439      1.0  0.27180  0.90930  0.09650  1.0000 -0.3063860856
C   C440      1.0  0.77180  0.59070  0.90350  1.0000 -0.3063860856
C   C441      1.0  0.59650  0.22820  0.09070  1.0000 -0.3063860856
C   C442      1.0  0.40350  0.72820  0.40930  1.0000 -0.3063860856
C   C443      1.0  0.09650  0.27180  0.90930  1.0000 -0.3063860856
C   C444      1.0  0.90350  0.77180  0.59070  1.0000 -0.3063860856
C   C445      1.0  0.34650  0.34070  0.02180  1.0000 -0.3063860856
C   C446      1.0  0.15350  0.65930  0.52180  1.0000 -0.3063860856
C   C447      1.0  0.84650  0.15930  0.97820  1.0000 -0.3063860856
C   C448      1.0  0.65350  0.84070  0.47820  1.0000 -0.3063860856
C   C449      1.0  0.84070  0.47820  0.65350  1.0000 -0.3063860856
C   C450      1.0  0.15930  0.97820  0.84650  1.0000 -0.3063860856
C   C451      1.0  0.65930  0.52180  0.15350  1.0000 -0.3063860856
C   C452      1.0  0.34070  0.02180  0.34650  1.0000 -0.3063860856
C   C453      1.0  0.97820  0.84650  0.15930  1.0000 -0.3063860856
C   C454      1.0  0.47820  0.65350  0.84070  1.0000 -0.3063860856
C   C455      1.0  0.02180  0.34650  0.34070  1.0000 -0.3063860856
C   C456      1.0  0.52180  0.15350  0.65930  1.0000 -0.3063860856
C   C457      1.0  0.10050  0.49020  0.12890  1.0000 0.6164070458
C   C458      1.0  0.39950  0.50980  0.62890  1.0000 0.6164070458
C   C459      1.0  0.89950  0.99020  0.37110  1.0000 0.6164070458
C   C460      1.0  0.60050  0.00980  0.87110  1.0000 0.6164070458
C   C461      1.0  0.12890  0.10050  0.49020  1.0000 0.6164070458
C   C462      1.0  0.62890  0.39950  0.50980  1.0000 0.6164070458
C   C463      1.0  0.37110  0.89950  0.99020  1.0000 0.6164070458
C   C464      1.0  0.87110  0.60050  0.00980  1.0000 0.6164070458
C   C465      1.0  0.49020  0.12890  0.10050  1.0000 0.6164070458
C   C466      1.0  0.50980  0.62890  0.39950  1.0000 0.6164070458
C   C467      1.0  0.99020  0.37110  0.89950  1.0000 0.6164070458
C   C468      1.0  0.00980  0.87110  0.60050  1.0000 0.6164070458
C   C469      1.0  0.24020  0.35050  0.12110  1.0000 0.6164070458
C   C470      1.0  0.25980  0.64950  0.62110  1.0000 0.6164070458
C   C471      1.0  0.74020  0.14950  0.87890  1.0000 0.6164070458
C   C472      1.0  0.75980  0.85050  0.37890  1.0000 0.6164070458
C   C473      1.0  0.85050  0.37890  0.75980  1.0000 0.6164070458
C   C474      1.0  0.14950  0.87890  0.74020  1.0000 0.6164070458
C   C475      1.0  0.64950  0.62110  0.25980  1.0000 0.6164070458
C   C476      1.0  0.35050  0.12110  0.24020  1.0000 0.6164070458
C   C477      1.0  0.87890  0.74020  0.14950  1.0000 0.6164070458
C   C478      1.0  0.37890  0.75980  0.85050  1.0000 0.6164070458
C   C479      1.0  0.12110  0.24020  0.35050  1.0000 0.6164070458
C   C480      1.0  0.62110  0.25980  0.64950  1.0000 0.6164070458
C   C481      1.0  0.09710  0.74850  0.35990  1.0000 0.1403254757
C   C482      1.0  0.40290  0.25150  0.85990  1.0000 0.1403254757
C   C483      1.0  0.90290  0.24850  0.14010  1.0000 0.1403254757
C   C484      1.0  0.59710  0.75150  0.64010  1.0000 0.1403254757
C   C485      1.0  0.35990  0.09710  0.74850  1.0000 0.1403254757
C   C486      1.0  0.85990  0.40290  0.25150  1.0000 0.1403254757
C   C487      1.0  0.14010  0.90290  0.24850  1.0000 0.1403254757
C   C488      1.0  0.64010  0.59710  0.75150  1.0000 0.1403254757
C   C489      1.0  0.74850  0.35990  0.09710  1.0000 0.1403254757
C   C490      1.0  0.25150  0.85990  0.40290  1.0000 0.1403254757
C   C491      1.0  0.24850  0.14010  0.90290  1.0000 0.1403254757
C   C492      1.0  0.75150  0.64010  0.59710  1.0000 0.1403254757
C   C493      1.0  0.49850  0.34710  0.89010  1.0000 0.1403254757
C   C494      1.0  0.00150  0.65290  0.39010  1.0000 0.1403254757
C   C495      1.0  0.99850  0.15290  0.10990  1.0000 0.1403254757
C   C496      1.0  0.50150  0.84710  0.60990  1.0000 0.1403254757
C   C497      1.0  0.84710  0.60990  0.50150  1.0000 0.1403254757
C   C498      1.0  0.15290  0.10990  0.99850  1.0000 0.1450243806
C   C499      1.0  0.65290  0.39010  0.00150  1.0000 0.1403254757
C   C500      1.0  0.34710  0.89010  0.49850  1.0000 0.1403254757
C   C501      1.0  0.10990  0.99850  0.15290  1.0000 0.1450243806
C   C502      1.0  0.60990  0.50150  0.84710  1.0000 0.1403254757
C   C503      1.0  0.89010  0.49850  0.34710  1.0000 0.1403254757
C   C504      1.0  0.39010  0.00150  0.65290  1.0000 0.1403254757
C   C505      1.0  0.06050  0.76630  0.32380  1.0000 -0.3030212854
C   C506      1.0  0.43950  0.23370  0.82380  1.0000 -0.3030212854
C   C507      1.0  0.93950  0.26630  0.17620  1.0000 -0.3030212854
C   C508      1.0  0.56050  0.73370  0.67620  1.0000 -0.3030212854
C   C509      1.0  0.32380  0.06050  0.76630  1.0000 -0.3030212854
C   C510      1.0  0.82380  0.43950  0.23370  1.0000 -0.3030212854
C   C511      1.0  0.17620  0.93950  0.26630  1.0000 -0.3030212854
C   C512      1.0  0.67620  0.56050  0.73370  1.0000 -0.3030212854
C   C513      1.0  0.76630  0.32380  0.06050  1.0000 -0.3030212854
C   C514      1.0  0.23370  0.82380  0.43950  1.0000 -0.3030212854
C   C515      1.0  0.26630  0.17620  0.93950  1.0000 -0.3030212854
C   C516      1.0  0.73370  0.67620  0.56050  1.0000 -0.3030212854
C   C517      1.0  0.51630  0.31050  0.92620  1.0000 -0.3030212854
C   C518      1.0  0.98370  0.68950  0.42620  1.0000 -0.3030212854
C   C519      1.0  0.01630  0.18950  0.07380  1.0000 -0.3030212854
C   C520      1.0  0.48370  0.81050  0.57380  1.0000 -0.3030212854
C   C521      1.0  0.81050  0.57380  0.48370  1.0000 -0.3030212854
C   C522      1.0  0.18950  0.07380  0.01630  1.0000 -0.3030212854
C   C523      1.0  0.68950  0.42620  0.98370  1.0000 -0.3030212854
C   C524      1.0  0.31050  0.92620  0.51630  1.0000 -0.3030212854
C   C525      1.0  0.07380  0.01630  0.18950  1.0000 -0.3030212854
C   C526      1.0  0.57380  0.48370  0.81050  1.0000 -0.3030212854
C   C527      1.0  0.92620  0.51630  0.31050  1.0000 -0.3030212854
C   C528      1.0  0.42620  0.98370  0.68950  1.0000 -0.3030212854
C   C529      1.0  0.02650  0.80470  0.33650  1.0000 0.2886055624
C   C530      1.0  0.47350  0.19530  0.83650  1.0000 0.2886055624
C   C531      1.0  0.97350  0.30470  0.16350  1.0000 0.2886055624
C   C532      1.0  0.52650  0.69530  0.66350  1.0000 0.2886055624
C   C533      1.0  0.33650  0.02650  0.80470  1.0000 0.2886055624
C   C534      1.0  0.83650  0.47350  0.19530  1.0000 0.2886055624
C   C535      1.0  0.16350  0.97350  0.30470  1.0000 0.2886055624
C   C536      1.0  0.66350  0.52650  0.69530  1.0000 0.2886055624
C   C537      1.0  0.80470  0.33650  0.02650  1.0000 0.2886055624
C   C538      1.0  0.19530  0.83650  0.47350  1.0000 0.2886055624
C   C539      1.0  0.30470  0.16350  0.97350  1.0000 0.2886055624
C   C540      1.0  0.69530  0.66350  0.52650  1.0000 0.2886055624
C   C541      1.0  0.55470  0.27650  0.91350  1.0000 0.2886055624
C   C542      1.0  0.94530  0.72350  0.41350  1.0000 0.2886055624
C   C543      1.0  0.05470  0.22350  0.08650  1.0000 0.2886055624
C   C544      1.0  0.44530  0.77650  0.58650  1.0000 0.2886055624
C   C545      1.0  0.77650  0.58650  0.44530  1.0000 0.2886055624
C   C546      1.0  0.22350  0.08650  0.05470  1.0000 0.2886055624
C   C547      1.0  0.72350  0.41350  0.94530  1.0000 0.2886055624
C   C548      1.0  0.27650  0.91350  0.55470  1.0000 0.2886055624
C   C549      1.0  0.08650  0.05470  0.22350  1.0000 0.2886055624
C   C550      1.0  0.58650  0.44530  0.77650  1.0000 0.2886055624
C   C551      1.0  0.91350  0.55470  0.27650  1.0000 0.2886055624
C   C552      1.0  0.41350  0.94530  0.72350  1.0000 0.2886055624
C   C553      1.0  0.02720  0.82680  0.38530  1.0000 -0.2891559561
C   C554      1.0  0.47280  0.17320  0.88530  1.0000 -0.2891559561
C   C555      1.0  0.97280  0.32680  0.11470  1.0000 -0.2891559561
C   C556      1.0  0.52720  0.67320  0.61470  1.0000 -0.2891559561
C   C557      1.0  0.38530  0.02720  0.82680  1.0000 -0.2891559561
C   C558      1.0  0.88530  0.47280  0.17320  1.0000 -0.2891559561
C   C559      1.0  0.11470  0.97280  0.32680  1.0000 -0.2891559561
C   C560      1.0  0.61470  0.52720  0.67320  1.0000 -0.2891559561
C   C561      1.0  0.82680  0.38530  0.02720  1.0000 -0.2891559561
C   C562      1.0  0.17320  0.88530  0.47280  1.0000 -0.2891559561
C   C563      1.0  0.32680  0.11470  0.97280  1.0000 -0.2891559561
C   C564      1.0  0.67320  0.61470  0.52720  1.0000 -0.2891559561
C   C565      1.0  0.57680  0.27720  0.86470  1.0000 -0.2891559561
C   C566      1.0  0.92320  0.72280  0.36470  1.0000 -0.2891559561
C   C567      1.0  0.07680  0.22280  0.13530  1.0000 -0.2891559561
C   C568      1.0  0.42320  0.77720  0.63530  1.0000 -0.2891559561
C   C569      1.0  0.77720  0.63530  0.42320  1.0000 -0.2891559561
C   C570      1.0  0.22280  0.13530  0.07680  1.0000 -0.2891559561
C   C571      1.0  0.72280  0.36470  0.92320  1.0000 -0.2891559561
C   C572      1.0  0.27720  0.86470  0.57680  1.0000 -0.2891559561
C   C573      1.0  0.13530  0.07680  0.22280  1.0000 -0.2891559561
C   C574      1.0  0.63530  0.42320  0.77720  1.0000 -0.2891559561
C   C575      1.0  0.86470  0.57680  0.27720  1.0000 -0.2891559561
C   C576      1.0  0.36470  0.92320  0.72280  1.0000 -0.2891559561
C   C577      1.0  0.06330  0.80980  0.42090  1.0000 0.3097587454
C   C578      1.0  0.43670  0.19020  0.92090  1.0000 0.3097587454
C   C579      1.0  0.93670  0.30980  0.07910  1.0000 0.3097587454
C   C580      1.0  0.56330  0.69020  0.57910  1.0000 0.3097587454
C   C581      1.0  0.42090  0.06330  0.80980  1.0000 0.3097587454
C   C582      1.0  0.92090  0.43670  0.19020  1.0000 0.3097587454
C   C583      1.0  0.07910  0.93670  0.30980  1.0000 0.3097587454
C   C584      1.0  0.57910  0.56330  0.69020  1.0000 0.3097587454
C   C585      1.0  0.80980  0.42090  0.06330  1.0000 0.3097587454
C   C586      1.0  0.19020  0.92090  0.43670  1.0000 0.3097587454
C   C587      1.0  0.30980  0.07910  0.93670  1.0000 0.3097587454
C   C588      1.0  0.69020  0.57910  0.56330  1.0000 0.3097587454
C   C589      1.0  0.55980  0.31330  0.82910  1.0000 0.3097587454
C   C590      1.0  0.94020  0.68670  0.32910  1.0000 0.3097587454
C   C591      1.0  0.05980  0.18670  0.17090  1.0000 0.3097587454
C   C592      1.0  0.44020  0.81330  0.67090  1.0000 0.3097587454
C   C593      1.0  0.81330  0.67090  0.44020  1.0000 0.3097587454
C   C594      1.0  0.18670  0.17090  0.05980  1.0000 0.3097587454
C   C595      1.0  0.68670  0.32910  0.94020  1.0000 0.3097587454
C   C596      1.0  0.31330  0.82910  0.55980  1.0000 0.3097587454
C   C597      1.0  0.17090  0.05980  0.18670  1.0000 0.3097587454
C   C598      1.0  0.67090  0.44020  0.81330  1.0000 0.3097587454
C   C599      1.0  0.82910  0.55980  0.31330  1.0000 0.3097587454
C   C600      1.0  0.32910  0.94020  0.68670  1.0000 0.3097587454
C   C601      1.0  0.09710  0.77120  0.40900  1.0000 -0.3190156901
C   C602      1.0  0.40290  0.22880  0.90900  1.0000 -0.3190156901
C   C603      1.0  0.90290  0.27120  0.09100  1.0000 -0.3190156901
C   C604      1.0  0.59710  0.72880  0.59100  1.0000 -0.3190156901
C   C605      1.0  0.40900  0.09710  0.77120  1.0000 -0.3190156901
C   C606      1.0  0.90900  0.40290  0.22880  1.0000 -0.3190156901
C   C607      1.0  0.09100  0.90290  0.27120  1.0000 -0.3190156901
C   C608      1.0  0.59100  0.59710  0.72880  1.0000 -0.3190156901
C   C609      1.0  0.77120  0.40900  0.09710  1.0000 -0.3190156901
C   C610      1.0  0.22880  0.90900  0.40290  1.0000 -0.3190156901
C   C611      1.0  0.27120  0.09100  0.90290  1.0000 -0.3190156901
C   C612      1.0  0.72880  0.59100  0.59710  1.0000 -0.3190156901
C   C613      1.0  0.52120  0.34710  0.84100  1.0000 -0.3190156901
C   C614      1.0  0.97880  0.65290  0.34100  1.0000 -0.3190156901
C   C615      1.0  0.02120  0.15290  0.15900  1.0000 -0.3190156901
C   C616      1.0  0.47880  0.84710  0.65900  1.0000 -0.3190156901
C   C617      1.0  0.84710  0.65900  0.47880  1.0000 -0.3190156901
C   C618      1.0  0.15290  0.15900  0.02120  1.0000 -0.3190156901
C   C619      1.0  0.65290  0.34100  0.97880  1.0000 -0.3190156901
C   C620      1.0  0.34710  0.84100  0.52120  1.0000 -0.3190156901
C   C621      1.0  0.15900  0.02120  0.15290  1.0000 -0.3190156901
C   C622      1.0  0.65900  0.47880  0.84710  1.0000 -0.3190156901
C   C623      1.0  0.84100  0.52120  0.34710  1.0000 -0.3190156901
C   C624      1.0  0.34100  0.97880  0.65290  1.0000 -0.3190156901
C   C625      1.0  0.99020  0.86830  0.39980  1.0000 0.6298551326
C   C626      1.0  0.50980  0.13170  0.89980  1.0000 0.6298551326
C   C627      1.0  0.00980  0.36830  0.10020  1.0000 0.6298551326
C   C628      1.0  0.49020  0.63170  0.60020  1.0000 0.6298551326
C   C629      1.0  0.39980  0.99020  0.86830  1.0000 0.6298551326
C   C630      1.0  0.89980  0.50980  0.13170  1.0000 0.6298551326
C   C631      1.0  0.10020  0.00980  0.36830  1.0000 0.6298551326
C   C632      1.0  0.60020  0.49020  0.63170  1.0000 0.6298551326
C   C633      1.0  0.86830  0.39980  0.99020  1.0000 0.6298551326
C   C634      1.0  0.13170  0.89980  0.50980  1.0000 0.6298551326
C   C635      1.0  0.36830  0.10020  0.00980  1.0000 0.6298551326
C   C636      1.0  0.63170  0.60020  0.49020  1.0000 0.6298551326
C   C637      1.0  0.61830  0.24020  0.85020  1.0000 0.6298551326
C   C638      1.0  0.88170  0.75980  0.35020  1.0000 0.6298551326
C   C639      1.0  0.11830  0.25980  0.14980  1.0000 0.6298551326
C   C640      1.0  0.38170  0.74020  0.64980  1.0000 0.6298551326
C   C641      1.0  0.74020  0.64980  0.38170  1.0000 0.6298551326
C   C642      1.0  0.25980  0.14980  0.11830  1.0000 0.6298551326
C   C643      1.0  0.75980  0.35020  0.88170  1.0000 0.6298551326
C   C644      1.0  0.24020  0.85020  0.61830  1.0000 0.6298551326
C   C645      1.0  0.14980  0.11830  0.25980  1.0000 0.6298551326
C   C646      1.0  0.64980  0.38170  0.74020  1.0000 0.6298551326
C   C647      1.0  0.85020  0.61830  0.24020  1.0000 0.6298551326
C   C648      1.0  0.35020  0.88170  0.75980  1.0000 0.6298551326
O   O1        1.0  0.50320  0.50320  0.50320  1.0000 -0.8071207488
O   O2        1.0  0.99680  0.49680  0.00320  1.0000 -0.8071207488
O   O3        1.0  0.49680  0.00320  0.99680  1.0000 -0.8045940185
O   O4        1.0  0.00320  0.99680  0.49680  1.0000 -0.8071207488
O   O5        1.0  0.25320  0.75320  0.74680  1.0000 -0.8071207488
O   O6        1.0  0.24680  0.24680  0.24680  1.0000 -0.8071207488
O   O7        1.0  0.75320  0.74680  0.25320  1.0000 -0.8071207488
O   O8        1.0  0.74680  0.25320  0.75320  1.0000 -0.8045940185
O   O9        1.0  0.39670  0.56020  0.50020  1.0000 -0.5180729439
O   O10       1.0  0.10330  0.43980  0.00020  1.0000 -0.5180729439
O   O11       1.0  0.60330  0.06020  0.99980  1.0000 -0.5180729439
O   O12       1.0  0.89670  0.93980  0.49980  1.0000 -0.5180729439
O   O13       1.0  0.50020  0.39670  0.56020  1.0000 -0.5180729439
O   O14       1.0  0.00020  0.10330  0.43980  1.0000 -0.5180729439
O   O15       1.0  0.99980  0.60330  0.06020  1.0000 -0.5180729439
O   O16       1.0  0.49980  0.89670  0.93980  1.0000 -0.5180729439
O   O17       1.0  0.56020  0.50020  0.39670  1.0000 -0.5180729439
O   O18       1.0  0.43980  0.00020  0.10330  1.0000 -0.5180729439
O   O19       1.0  0.06020  0.99980  0.60330  1.0000 -0.5180729439
O   O20       1.0  0.93980  0.49980  0.89670  1.0000 -0.5180729439
O   O21       1.0  0.31020  0.64670  0.74980  1.0000 -0.5180729439
O   O22       1.0  0.18980  0.35330  0.24980  1.0000 -0.5180729439
O   O23       1.0  0.81020  0.85330  0.25020  1.0000 -0.5180729439
O   O24       1.0  0.68980  0.14670  0.75020  1.0000 -0.5180729439
O   O25       1.0  0.14670  0.75020  0.68980  1.0000 -0.5180729439
O   O26       1.0  0.85330  0.25020  0.81020  1.0000 -0.5180729439
O   O27       1.0  0.35330  0.24980  0.18980  1.0000 -0.5180729439
O   O28       1.0  0.64670  0.74980  0.31020  1.0000 -0.5180729439
O   O29       1.0  0.25020  0.81020  0.85330  1.0000 -0.5180729439
O   O30       1.0  0.75020  0.68980  0.14670  1.0000 -0.5180729439
O   O31       1.0  0.74980  0.31020  0.64670  1.0000 -0.5180729439
O   O32       1.0  0.24980  0.18980  0.35330  1.0000 -0.5180729439
O   O33       1.0  0.37810  0.63020  0.54540  1.0000 -0.5307077751
O   O34       1.0  0.12190  0.36980  0.04540  1.0000 -0.5307077751
O   O35       1.0  0.62190  0.13020  0.95460  1.0000 -0.5307077751
O   O36       1.0  0.87810  0.86980  0.45460  1.0000 -0.5307077751
O   O37       1.0  0.54540  0.37810  0.63020  1.0000 -0.5307077751
O   O38       1.0  0.04540  0.12190  0.36980  1.0000 -0.5307077751
O   O39       1.0  0.95460  0.62190  0.13020  1.0000 -0.5307077751
O   O40       1.0  0.45460  0.87810  0.86980  1.0000 -0.5307077751
O   O41       1.0  0.63020  0.54540  0.37810  1.0000 -0.5307077751
O   O42       1.0  0.36980  0.04540  0.12190  1.0000 -0.5307077751
O   O43       1.0  0.13020  0.95460  0.62190  1.0000 -0.5307077751
O   O44       1.0  0.86980  0.45460  0.87810  1.0000 -0.5307077751
O   O45       1.0  0.38020  0.62810  0.70460  1.0000 -0.5307077751
O   O46       1.0  0.11980  0.37190  0.20460  1.0000 -0.5307077751
O   O47       1.0  0.88020  0.87190  0.29540  1.0000 -0.5307077751
O   O48       1.0  0.61980  0.12810  0.79540  1.0000 -0.5307077751
O   O49       1.0  0.12810  0.79540  0.61980  1.0000 -0.5307077751
O   O50       1.0  0.87190  0.29540  0.88020  1.0000 -0.5307077751
O   O51       1.0  0.37190  0.20460  0.11980  1.0000 -0.5307077751
O   O52       1.0  0.62810  0.70460  0.38020  1.0000 -0.5307077751
O   O53       1.0  0.29540  0.88020  0.87190  1.0000 -0.5307077751
O   O54       1.0  0.79540  0.61980  0.12810  1.0000 -0.5307077751
O   O55       1.0  0.70460  0.38020  0.62810  1.0000 -0.5307077751
O   O56       1.0  0.20460  0.11980  0.37190  1.0000 -0.5307077751
O   O57       1.0  0.13170  0.45430  0.12090  1.0000 -0.5741119067
O   O58       1.0  0.36830  0.54570  0.62090  1.0000 -0.5741119067
O   O59       1.0  0.86830  0.95430  0.37910  1.0000 -0.5741119067
O   O60       1.0  0.63170  0.04570  0.87910  1.0000 -0.5741119067
O   O61       1.0  0.12090  0.13170  0.45430  1.0000 -0.5741119067
O   O62       1.0  0.62090  0.36830  0.54570  1.0000 -0.5741119067
O   O63       1.0  0.37910  0.86830  0.95430  1.0000 -0.5741119067
O   O64       1.0  0.87910  0.63170  0.04570  1.0000 -0.5741119067
O   O65       1.0  0.45430  0.12090  0.13170  1.0000 -0.5741119067
O   O66       1.0  0.54570  0.62090  0.36830  1.0000 -0.5741119067
O   O67       1.0  0.95430  0.37910  0.86830  1.0000 -0.5741119067
O   O68       1.0  0.04570  0.87910  0.63170  1.0000 -0.5741119067
O   O69       1.0  0.20430  0.38170  0.12910  1.0000 -0.5741119067
O   O70       1.0  0.29570  0.61830  0.62910  1.0000 -0.5741119067
O   O71       1.0  0.70430  0.11830  0.87090  1.0000 -0.5741119067
O   O72       1.0  0.79570  0.88170  0.37090  1.0000 -0.5741119067
O   O73       1.0  0.88170  0.37090  0.79570  1.0000 -0.5741119067
O   O74       1.0  0.11830  0.87090  0.70430  1.0000 -0.5741119067
O   O75       1.0  0.61830  0.62910  0.29570  1.0000 -0.5741119067
O   O76       1.0  0.38170  0.12910  0.20430  1.0000 -0.5741119067
O   O77       1.0  0.87090  0.70430  0.11830  1.0000 -0.5752925063
O   O78       1.0  0.37090  0.79570  0.88170  1.0000 -0.5741119067
O   O79       1.0  0.12910  0.20430  0.38170  1.0000 -0.5741119067
O   O80       1.0  0.62910  0.29570  0.61830  1.0000 -0.5741119067
O   O81       1.0  0.06150  0.49820  0.10260  1.0000 -0.4774692106
O   O82       1.0  0.43850  0.50180  0.60260  1.0000 -0.4774692106
O   O83       1.0  0.93850  0.99820  0.39740  1.0000 -0.4774692106
O   O84       1.0  0.56150  0.00180  0.89740  1.0000 -0.4774692106
O   O85       1.0  0.10260  0.06150  0.49820  1.0000 -0.4774692106
O   O86       1.0  0.60260  0.43850  0.50180  1.0000 -0.4774692106
O   O87       1.0  0.39740  0.93850  0.99820  1.0000 -0.4774692106
O   O88       1.0  0.89740  0.56150  0.00180  1.0000 -0.4774692106
O   O89       1.0  0.49820  0.10260  0.06150  1.0000 -0.4774692106
O   O90       1.0  0.50180  0.60260  0.43850  1.0000 -0.4774692106
O   O91       1.0  0.99820  0.39740  0.93850  1.0000 -0.4774692106
O   O92       1.0  0.00180  0.89740  0.56150  1.0000 -0.4774692106
O   O93       1.0  0.24820  0.31150  0.14740  1.0000 -0.4774692106
O   O94       1.0  0.25180  0.68850  0.64740  1.0000 -0.4774692106
O   O95       1.0  0.74820  0.18850  0.85260  1.0000 -0.4774692106
O   O96       1.0  0.75180  0.81150  0.35260  1.0000 -0.4774692106
O   O97       1.0  0.81150  0.35260  0.75180  1.0000 -0.4774692106
O   O98       1.0  0.18850  0.85260  0.74820  1.0000 -0.4774692106
O   O99       1.0  0.68850  0.64740  0.25180  1.0000 -0.4774692106
O   O100      1.0  0.31150  0.14740  0.24820  1.0000 -0.4774692106
O   O101      1.0  0.85260  0.74820  0.18850  1.0000 -0.4774692106
O   O102      1.0  0.35260  0.75180  0.81150  1.0000 -0.4774692106
O   O103      1.0  0.14740  0.24820  0.31150  1.0000 -0.4774692106
O   O104      1.0  0.64740  0.25180  0.68850  1.0000 -0.4774692106
O   O105      1.0  0.95410  0.87850  0.36880  1.0000 -0.6038182064
O   O106      1.0  0.54590  0.12150  0.86880  1.0000 -0.6038182064
O   O107      1.0  0.04590  0.37850  0.13120  1.0000 -0.6038182064
O   O108      1.0  0.45410  0.62150  0.63120  1.0000 -0.6038182064
O   O109      1.0  0.36880  0.95410  0.87850  1.0000 -0.6038182064
O   O110      1.0  0.86880  0.54590  0.12150  1.0000 -0.6038182064
O   O111      1.0  0.13120  0.04590  0.37850  1.0000 -0.6038182064
O   O112      1.0  0.63120  0.45410  0.62150  1.0000 -0.6038182064
O   O113      1.0  0.87850  0.36880  0.95410  1.0000 -0.6038182064
O   O114      1.0  0.12150  0.86880  0.54590  1.0000 -0.6038182064
O   O115      1.0  0.37850  0.13120  0.04590  1.0000 -0.6038182064
O   O116      1.0  0.62150  0.63120  0.45410  1.0000 -0.6038182064
O   O117      1.0  0.62850  0.20410  0.88120  1.0000 -0.6038182064
O   O118      1.0  0.87150  0.79590  0.38120  1.0000 -0.6038182064
O   O119      1.0  0.12850  0.29590  0.11880  1.0000 -0.6038182064
O   O120      1.0  0.37150  0.70410  0.61880  1.0000 -0.6038182064
O   O121      1.0  0.70410  0.61880  0.37150  1.0000 -0.6038182064
O   O122      1.0  0.29590  0.11880  0.12850  1.0000 -0.6038182064
O   O123      1.0  0.79590  0.38120  0.87150  1.0000 -0.6038182064
O   O124      1.0  0.20410  0.88120  0.62850  1.0000 -0.6038182064
O   O125      1.0  0.11880  0.12850  0.29590  1.0000 -0.6038182064
O   O126      1.0  0.61880  0.37150  0.70410  1.0000 -0.6038182064
O   O127      1.0  0.88120  0.62850  0.20410  1.0000 -0.6038182064
O   O128      1.0  0.38120  0.87150  0.79590  1.0000 -0.6038182064
O   O129      1.0  0.99820  0.89300  0.44010  1.0000 -0.4891693105
O   O130      1.0  0.50180  0.10700  0.94010  1.0000 -0.4891693105
O   O131      1.0  0.00180  0.39300  0.05990  1.0000 -0.4891693105
O   O132      1.0  0.49820  0.60700  0.55990  1.0000 -0.4891693105
O   O133      1.0  0.44010  0.99820  0.89300  1.0000 -0.4891693105
O   O134      1.0  0.94010  0.50180  0.10700  1.0000 -0.4891693105
O   O135      1.0  0.05990  0.00180  0.39300  1.0000 -0.4891693105
O   O136      1.0  0.55990  0.49820  0.60700  1.0000 -0.4891693105
O   O137      1.0  0.89300  0.44010  0.99820  1.0000 -0.4891693105
O   O138      1.0  0.10700  0.94010  0.50180  1.0000 -0.4891693105
O   O139      1.0  0.39300  0.05990  0.00180  1.0000 -0.4891693105
O   O140      1.0  0.60700  0.55990  0.49820  1.0000 -0.4891693105
O   O141      1.0  0.64300  0.24820  0.80990  1.0000 -0.4891693105
O   O142      1.0  0.85700  0.75180  0.30990  1.0000 -0.4891693105
O   O143      1.0  0.14300  0.25180  0.19010  1.0000 -0.4891693105
O   O144      1.0  0.35700  0.74820  0.69010  1.0000 -0.4891693105
O   O145      1.0  0.74820  0.69010  0.35700  1.0000 -0.4891693105
O   O146      1.0  0.25180  0.19010  0.14300  1.0000 -0.4891693105
O   O147      1.0  0.75180  0.30990  0.85700  1.0000 -0.4891693105
O   O148      1.0  0.24820  0.80990  0.64300  1.0000 -0.4891693105
O   O149      1.0  0.19010  0.14300  0.25180  1.0000 -0.4891693105
O   O150      1.0  0.69010  0.35700  0.74820  1.0000 -0.4891693105
O   O151      1.0  0.80990  0.64300  0.24820  1.0000 -0.4891693105
O   O152      1.0  0.30990  0.85700  0.75180  1.0000 -0.4891693105
O   O153      1.0  0.31420  0.69500  0.50860  1.0000 -0.3633543896
O   O154      1.0  0.18580  0.30500  0.00860  1.0000 -0.3633543896
O   O155      1.0  0.68580  0.19500  0.99140  1.0000 -0.3633543896
O   O156      1.0  0.81420  0.80500  0.49140  1.0000 -0.3633543896
O   O157      1.0  0.50860  0.31420  0.69500  1.0000 -0.3633543896
O   O158      1.0  0.00860  0.18580  0.30500  1.0000 -0.3633543896
O   O159      1.0  0.99140  0.68580  0.19500  1.0000 -0.3633543896
O   O160      1.0  0.49140  0.81420  0.80500  1.0000 -0.3633543896
O   O161      1.0  0.69500  0.50860  0.31420  1.0000 -0.3633543896
O   O162      1.0  0.30500  0.00860  0.18580  1.0000 -0.3633543896
O   O163      1.0  0.19500  0.99140  0.68580  1.0000 -0.3633543896
O   O164      1.0  0.80500  0.49140  0.81420  1.0000 -0.3633543896
O   O165      1.0  0.44500  0.56420  0.74140  1.0000 -0.3633543896
O   O166      1.0  0.05500  0.43580  0.24140  1.0000 -0.3633543896
O   O167      1.0  0.94500  0.93580  0.25860  1.0000 -0.3633543896
O   O168      1.0  0.55500  0.06420  0.75860  1.0000 -0.3633543896
O   O169      1.0  0.06420  0.75860  0.55500  1.0000 -0.3633543896
O   O170      1.0  0.93580  0.25860  0.94500  1.0000 -0.3633543896
O   O171      1.0  0.43580  0.24140  0.05500  1.0000 -0.3633543896
O   O172      1.0  0.56420  0.74140  0.44500  1.0000 -0.3633543896
O   O173      1.0  0.25860  0.94500  0.93580  1.0000 -0.3633543896
O   O174      1.0  0.75860  0.55500  0.06420  1.0000 -0.3633543896
O   O175      1.0  0.74140  0.44500  0.56420  1.0000 -0.3633543896
O   O176      1.0  0.24140  0.05500  0.43580  1.0000 -0.3633543896
O   O177      1.0  0.19960  0.49170  0.18200  1.0000 -0.4002353857
O   O178      1.0  0.30040  0.50830  0.68200  1.0000 -0.4002353857
O   O179      1.0  0.80040  0.99170  0.31800  1.0000 -0.4002353857
O   O180      1.0  0.69960  0.00830  0.81800  1.0000 -0.4002353857
O   O181      1.0  0.18200  0.19960  0.49170  1.0000 -0.4002353857
O   O182      1.0  0.68200  0.30040  0.50830  1.0000 -0.4002353857
O   O183      1.0  0.31800  0.80040  0.99170  1.0000 -0.4002353857
O   O184      1.0  0.81800  0.69960  0.00830  1.0000 -0.4002353857
O   O185      1.0  0.49170  0.18200  0.19960  1.0000 -0.4002353857
O   O186      1.0  0.50830  0.68200  0.30040  1.0000 -0.4002353857
O   O187      1.0  0.99170  0.31800  0.80040  1.0000 -0.4002353857
O   O188      1.0  0.00830  0.81800  0.69960  1.0000 -0.4002353857
O   O189      1.0  0.24170  0.44960  0.06800  1.0000 -0.4002353857
O   O190      1.0  0.25830  0.55040  0.56800  1.0000 -0.4002353857
O   O191      1.0  0.74170  0.05040  0.93200  1.0000 -0.4002353857
O   O192      1.0  0.75830  0.94960  0.43200  1.0000 -0.4002353857
O   O193      1.0  0.94960  0.43200  0.75830  1.0000 -0.4002353857
O   O194      1.0  0.05040  0.93200  0.74170  1.0000 -0.4002353857
O   O195      1.0  0.55040  0.56800  0.25830  1.0000 -0.4002353857
O   O196      1.0  0.44960  0.06800  0.24170  1.0000 -0.4002353857
O   O197      1.0  0.93200  0.74170  0.05040  1.0000 -0.4002353857
O   O198      1.0  0.43200  0.75830  0.94960  1.0000 -0.4002353857
O   O199      1.0  0.06800  0.24170  0.44960  1.0000 -0.4002353857
O   O200      1.0  0.56800  0.25830  0.55040  1.0000 -0.4002353857
O   O201      1.0  0.99240  0.81780  0.29920  1.0000 -0.4213323305
O   O202      1.0  0.50760  0.18220  0.79920  1.0000 -0.4213323305
O   O203      1.0  0.00760  0.31780  0.20080  1.0000 -0.4213323305
O   O204      1.0  0.49240  0.68220  0.70080  1.0000 -0.4213323305
O   O205      1.0  0.29920  0.99240  0.81780  1.0000 -0.4213323305
O   O206      1.0  0.79920  0.50760  0.18220  1.0000 -0.4213323305
O   O207      1.0  0.20080  0.00760  0.31780  1.0000 -0.4213323305
O   O208      1.0  0.70080  0.49240  0.68220  1.0000 -0.4213323305
O   O209      1.0  0.81780  0.29920  0.99240  1.0000 -0.4213323305
O   O210      1.0  0.18220  0.79920  0.50760  1.0000 -0.4213323305
O   O211      1.0  0.31780  0.20080  0.00760  1.0000 -0.4213323305
O   O212      1.0  0.68220  0.70080  0.49240  1.0000 -0.4213323305
O   O213      1.0  0.56780  0.24240  0.95080  1.0000 -0.4213323305
O   O214      1.0  0.93220  0.75760  0.45080  1.0000 -0.4213323305
O   O215      1.0  0.06780  0.25760  0.04920  1.0000 -0.4213323305
O   O216      1.0  0.43220  0.74240  0.54920  1.0000 -0.4213323305
O   O217      1.0  0.74240  0.54920  0.43220  1.0000 -0.4213323305
O   O218      1.0  0.25760  0.04920  0.06780  1.0000 -0.4213323305
O   O219      1.0  0.75760  0.45080  0.93220  1.0000 -0.4213323305
O   O220      1.0  0.24240  0.95080  0.56780  1.0000 -0.4213323305
O   O221      1.0  0.04920  0.06780  0.25760  1.0000 -0.4213323305
O   O222      1.0  0.54920  0.43220  0.74240  1.0000 -0.4213323305
O   O223      1.0  0.95080  0.56780  0.24240  1.0000 -0.4213323305
O   O224      1.0  0.45080  0.93220  0.75760  1.0000 -0.4213323305
O   O225      1.0  0.03700  0.56100  0.18100  1.0000 -0.1783284788
O   O226      1.0  0.46300  0.43900  0.68100  1.0000 -0.1783284788
O   O227      1.0  0.96300  0.06100  0.31900  1.0000 -0.1783284788
O   O228      1.0  0.53700  0.93900  0.81900  1.0000 -0.1783284788
O   O229      1.0  0.18100  0.03700  0.56100  1.0000 -0.1783284788
O   O230      1.0  0.68100  0.46300  0.43900  1.0000 -0.1783284788
O   O231      1.0  0.31900  0.96300  0.06100  1.0000 -0.1783284788
O   O232      1.0  0.81900  0.53700  0.93900  1.0000 -0.1783284788
O   O233      1.0  0.56100  0.18100  0.03700  1.0000 -0.1783284788
O   O234      1.0  0.43900  0.68100  0.46300  1.0000 -0.1783284788
O   O235      1.0  0.06100  0.31900  0.96300  1.0000 -0.1783284788
O   O236      1.0  0.93900  0.81900  0.53700  1.0000 -0.1783284788
O   O237      1.0  0.31100  0.28700  0.06900  1.0000 -0.1783284788
O   O238      1.0  0.18900  0.71300  0.56900  1.0000 -0.1783284788
O   O239      1.0  0.81100  0.21300  0.93100  1.0000 -0.1783284788
O   O240      1.0  0.68900  0.78700  0.43100  1.0000 -0.1783284788
O   O241      1.0  0.78700  0.43100  0.68900  1.0000 -0.1783284788
O   O242      1.0  0.21300  0.93100  0.81100  1.0000 -0.1783284788
O   O243      1.0  0.71300  0.56900  0.18900  1.0000 -0.1783284788
O   O244      1.0  0.28700  0.06900  0.31100  1.0000 -0.1783284788
O   O245      1.0  0.93100  0.81100  0.21300  1.0000 -0.1783284788
O   O246      1.0  0.43100  0.68900  0.78700  1.0000 -0.1783284788
O   O247      1.0  0.06900  0.31100  0.28700  1.0000 -0.1783284788
O   O248      1.0  0.56900  0.18900  0.71300  1.0000 -0.1783284788
O   O249      1.0  0.06250  0.82680  0.46880  1.0000 -0.3633543896
O   O250      1.0  0.43750  0.17320  0.96880  1.0000 -0.3633543896
O   O251      1.0  0.93750  0.32680  0.03120  1.0000 -0.3633543896
O   O252      1.0  0.56250  0.67320  0.53120  1.0000 -0.3633543896
O   O253      1.0  0.46880  0.06250  0.82680  1.0000 -0.3633543896
O   O254      1.0  0.96880  0.43750  0.17320  1.0000 -0.3633543896
O   O255      1.0  0.03120  0.93750  0.32680  1.0000 -0.3633543896
O   O256      1.0  0.53120  0.56250  0.67320  1.0000 -0.3633543896
O   O257      1.0  0.82680  0.46880  0.06250  1.0000 -0.3633543896
O   O258      1.0  0.17320  0.96880  0.43750  1.0000 -0.3633543896
O   O259      1.0  0.32680  0.03120  0.93750  1.0000 -0.3633543896
O   O260      1.0  0.67320  0.53120  0.56250  1.0000 -0.3633543896
O   O261      1.0  0.57680  0.31250  0.78120  1.0000 -0.3633543896
O   O262      1.0  0.92320  0.68750  0.28120  1.0000 -0.3633543896
O   O263      1.0  0.07680  0.18750  0.21880  1.0000 -0.3633543896
O   O264      1.0  0.42320  0.81250  0.71880  1.0000 -0.3633543896
O   O265      1.0  0.81250  0.71880  0.42320  1.0000 -0.3633543896
O   O266      1.0  0.18750  0.21880  0.07680  1.0000 -0.3633543896
O   O267      1.0  0.68750  0.28120  0.92320  1.0000 -0.3633543896
O   O268      1.0  0.31250  0.78120  0.57680  1.0000 -0.3633543896
O   O269      1.0  0.21880  0.07680  0.18750  1.0000 -0.3633543896
O   O270      1.0  0.71880  0.42320  0.81250  1.0000 -0.3633543896
O   O271      1.0  0.78120  0.57680  0.31250  1.0000 -0.3633543896
O   O272      1.0  0.28120  0.92320  0.68750  1.0000 -0.3633543896
O   O273      1.0  0.35100  0.54720  0.41430  1.0000 -0.383722187
O   O274      1.0  0.14900  0.45280  0.91430  1.0000 -0.383722187
O   O275      1.0  0.64900  0.04720  0.08570  1.0000 -0.383722187
O   O276      1.0  0.85100  0.95280  0.58570  1.0000 -0.383722187
O   O277      1.0  0.41430  0.35100  0.54720  1.0000 -0.383722187
O   O278      1.0  0.91430  0.14900  0.45280  1.0000 -0.383722187
O   O279      1.0  0.08570  0.64900  0.04720  1.0000 -0.383722187
O   O280      1.0  0.58570  0.85100  0.95280  1.0000 -0.383722187
O   O281      1.0  0.54720  0.41430  0.35100  1.0000 -0.383722187
O   O282      1.0  0.45280  0.91430  0.14900  1.0000 -0.383722187
O   O283      1.0  0.04720  0.08570  0.64900  1.0000 -0.383722187
O   O284      1.0  0.95280  0.58570  0.85100  1.0000 -0.383722187
O   O285      1.0  0.29720  0.60100  0.83570  1.0000 -0.383722187
O   O286      1.0  0.20280  0.39900  0.33570  1.0000 -0.383722187
O   O287      1.0  0.79720  0.89900  0.16430  1.0000 -0.383722187
O   O288      1.0  0.70280  0.10100  0.66430  1.0000 -0.383722187
O   O289      1.0  0.10100  0.66430  0.70280  1.0000 -0.383722187
O   O290      1.0  0.89900  0.16430  0.79720  1.0000 -0.383722187
O   O291      1.0  0.39900  0.33570  0.20280  1.0000 -0.383722187
O   O292      1.0  0.60100  0.83570  0.29720  1.0000 -0.383722187
O   O293      1.0  0.16430  0.79720  0.89900  1.0000 -0.383722187
O   O294      1.0  0.66430  0.70280  0.10100  1.0000 -0.383722187
O   O295      1.0  0.83570  0.29720  0.60100  1.0000 -0.383722187
O   O296      1.0  0.33570  0.20280  0.39900  1.0000 -0.383722187
