# DDEC6 charges by PACMAN v1.1 (https://github.com/mtap-research/PACMAN-charge/)
data_2015[Ni][mog]3[ASR]1
_chemical_formula_sum              "Ni4 H132 C128 N16 O20"
_cell_length_a       13.89
_cell_length_b       14.33
_cell_length_c       19.017
_cell_angle_alpha    68.31
_cell_angle_beta     75.83
_cell_angle_gamma    84.36

_symmetry_space_group_name_H-M    "P 1"
_symmetry_Int_Tables_number       1

loop_
  _symmetry_equiv_pos_as_xyz
  'x, y, z'

loop_
  _atom_site_type_symbol
  _atom_site_label
  _atom_site_symmetry_multiplicity
  _atom_site_fract_x
  _atom_site_fract_y
  _atom_site_fract_z
  _atom_site_occupancy
  _atom_site_charge
Ni  Ni1       1.0  0.42223  0.62370  0.21767  1.0000 0.737266816
Ni  Ni2       1.0  0.57777  0.37630  0.78233  1.0000 0.737266816
Ni  Ni3       1.0  0.17112  0.86447  0.61185  1.0000 0.746067114
Ni  Ni4       1.0  0.82888  0.13553  0.38815  1.0000 0.746067114
H   H1        1.0  0.61660  0.48780  0.18400  1.0000 0.14055732
H   H2        1.0  0.38340  0.51220  0.81600  1.0000 0.14055732
H   H3        1.0  0.67430  0.55850  0.91650  1.0000 0.14055732
H   H4        1.0  0.32570  0.44150  0.08350  1.0000 0.14055732
H   H5        1.0  0.78190  0.45610  0.98840  1.0000 0.110539906
H   H6        1.0  0.21810  0.54390  0.01160  1.0000 0.110539906
H   H7        1.0  0.75340  0.42010  0.12050  1.0000 0.110539906
H   H8        1.0  0.24660  0.57990  0.87950  1.0000 0.110539906
H   H9        1.0  0.31640  0.71700  0.09530  1.0000 0.1716487182
H   H10       1.0  0.68360  0.28300  0.90470  1.0000 0.1716487182
H   H11       1.0  0.30480  0.69140  0.02450  1.0000 0.14055732
H   H12       1.0  0.69520  0.30860  0.97550  1.0000 0.14055732
H   H13       1.0  0.36520  0.78600  0.01040  1.0000 0.1489460243
H   H14       1.0  0.63480  0.21400  0.98960  1.0000 0.1489460243
H   H15       1.0  0.41890  0.68990  0.90520  1.0000 0.110539906
H   H16       1.0  0.58110  0.31010  0.09480  1.0000 0.110539906
H   H17       1.0  0.51910  0.63960  0.87740  1.0000 0.110539906
H   H18       1.0  0.48090  0.36040  0.12260  1.0000 0.110539906
H   H19       1.0  0.50810  0.83340  0.88770  1.0000 0.110539906
H   H20       1.0  0.49190  0.16660  0.11230  1.0000 0.110539906
H   H21       1.0  0.60700  0.78330  0.85740  1.0000 0.110539906
H   H22       1.0  0.39300  0.21670  0.14260  1.0000 0.110539906
H   H23       1.0  0.44940  0.84860  0.78010  1.0000 0.0997672573
H   H24       1.0  0.55060  0.15140  0.21990  1.0000 0.0997672573
H   H25       1.0  0.55410  0.89870  0.75140  1.0000 0.110539906
H   H26       1.0  0.44590  0.10130  0.24860  1.0000 0.110539906
H   H27       1.0  0.51050  0.71350  0.75010  1.0000 0.110539906
H   H28       1.0  0.48950  0.28650  0.24990  1.0000 0.110539906
H   H29       1.0  0.61990  0.74370  0.73810  1.0000 0.110539906
H   H30       1.0  0.38010  0.25630  0.26190  1.0000 0.110539906
H   H31       1.0  0.61620  0.86640  0.61900  1.0000 0.1209015661
H   H32       1.0  0.38380  0.13360  0.38100  1.0000 0.1209015661
H   H33       1.0  0.57940  0.76620  0.61930  1.0000 0.1209015661
H   H34       1.0  0.42060  0.23380  0.38070  1.0000 0.1209015661
H   H35       1.0  0.57580  0.04120  0.59620  1.0000 0.1324230896
H   H36       1.0  0.42420  0.95880  0.40380  1.0000 0.1324230896
H   H37       1.0  0.50790  0.19940  0.55860  1.0000 0.1209015661
H   H38       1.0  0.49210  0.80060  0.44140  1.0000 0.1209015661
H   H39       1.0  0.34850  0.22560  0.53700  1.0000 0.110539906
H   H40       1.0  0.65150  0.77440  0.46300  1.0000 0.110539906
H   H41       1.0  0.24950  0.09140  0.56350  1.0000 0.14055732
H   H42       1.0  0.75050  0.90860  0.43650  1.0000 0.14055732
H   H43       1.0  0.32630  0.70440  0.62250  1.0000 0.1783486975
H   H44       1.0  0.67370  0.29560  0.37750  1.0000 0.1783486975
H   H45       1.0  0.36320  0.68160  0.69890  1.0000 0.1489460243
H   H46       1.0  0.63680  0.31840  0.30110  1.0000 0.1489460243
H   H47       1.0  0.44010  0.69120  0.62100  1.0000 0.1489460243
H   H48       1.0  0.55990  0.30880  0.37900  1.0000 0.1489460243
H   H49       1.0  0.51960  0.80800  0.05920  1.0000 0.14055732
H   H50       1.0  0.48040  0.19200  0.94080  1.0000 0.14055732
H   H51       1.0  0.61570  0.93900  0.96890  1.0000 0.1209015661
H   H52       1.0  0.38430  0.06100  0.03110  1.0000 0.1209015661
H   H53       1.0  0.74790  0.98830  0.99470  1.0000 0.1209015661
H   H54       1.0  0.25210  0.01170  0.00530  1.0000 0.1209015661
H   H55       1.0  0.78560  0.91620  0.11420  1.0000 0.1209015661
H   H56       1.0  0.21440  0.08380  0.88580  1.0000 0.1209015661
H   H57       1.0  0.52980  0.57390  0.35180  1.0000 0.1716487182
H   H58       1.0  0.47020  0.42610  0.64820  1.0000 0.1716487182
H   H59       1.0  0.61440  0.61940  0.37050  1.0000 0.14055732
H   H60       1.0  0.38560  0.38060  0.62950  1.0000 0.14055732
H   H61       1.0  0.64020  0.53940  0.33030  1.0000 0.1593457607
H   H62       1.0  0.35980  0.46060  0.66970  1.0000 0.1593457607
H   H63       1.0  0.77180  0.83810  0.24950  1.0000 0.110539906
H   H64       1.0  0.22820  0.16190  0.75050  1.0000 0.110539906
H   H65       1.0  0.70760  0.76500  0.32710  1.0000 0.110539906
H   H66       1.0  0.29240  0.23500  0.67290  1.0000 0.110539906
H   H67       1.0  0.85600  0.69240  0.23400  1.0000 0.110539906
H   H68       1.0  0.14400  0.30760  0.76600  1.0000 0.0997672573
H   H69       1.0  0.80440  0.63550  0.32130  1.0000 0.110539906
H   H70       1.0  0.19560  0.36450  0.67870  1.0000 0.110539906
H   H71       1.0  0.88250  0.78370  0.33810  1.0000 0.0892905322
H   H72       1.0  0.11750  0.21630  0.66190  1.0000 0.0892905322
H   H73       1.0  0.94250  0.68290  0.34460  1.0000 0.110539906
H   H74       1.0  0.05750  0.31710  0.65540  1.0000 0.110539906
H   H75       1.0  0.03630  0.74720  0.22390  1.0000 0.1209015661
H   H76       1.0  0.96370  0.25280  0.77610  1.0000 0.1209015661
H   H77       1.0  0.95470  0.82570  0.19460  1.0000 0.0997672573
H   H78       1.0  0.04530  0.17430  0.80540  1.0000 0.0997672573
H   H79       1.0  0.07090  0.84540  0.29150  1.0000 0.110539906
H   H80       1.0  0.92910  0.15460  0.70850  1.0000 0.110539906
H   H81       1.0  0.09360  0.90340  0.20140  1.0000 0.110539906
H   H82       1.0  0.90640  0.09660  0.79860  1.0000 0.110539906
H   H83       1.0  0.97560  0.96910  0.42620  1.0000 0.18592488
H   H84       1.0  0.02440  0.03090  0.57380  1.0000 0.18592488
H   H85       1.0  0.05190  0.90890  0.38290  1.0000 0.14055732
H   H86       1.0  0.94810  0.09110  0.61710  1.0000 0.14055732
H   H87       1.0  0.94480  0.86700  0.42570  1.0000 0.1593457607
H   H88       1.0  0.05520  0.13300  0.57430  1.0000 0.1593457607
H   H89       1.0  0.96520  0.99480  0.10290  1.0000 0.1209015661
H   H90       1.0  0.03480  0.00520  0.89710  1.0000 0.1209015661
H   H91       1.0  0.87260  0.12500  0.03710  1.0000 0.1209015661
H   H92       1.0  0.12740  0.87500  0.96290  1.0000 0.1209015661
H   H93       1.0  0.77420  0.22090  0.09810  1.0000 0.110539906
H   H94       1.0  0.22580  0.77910  0.90190  1.0000 0.110539906
H   H95       1.0  0.77290  0.20390  0.22510  1.0000 0.14055732
H   H96       1.0  0.22710  0.79610  0.77490  1.0000 0.14055732
H   H97       1.0  0.86500  0.38550  0.84240  1.0000 0.1489460243
H   H98       1.0  0.13500  0.61450  0.15760  1.0000 0.1489460243
H   H99       1.0  0.10400  0.55500  0.78770  1.0000 0.1209015661
H   H100      1.0  0.89600  0.44500  0.21230  1.0000 0.1209015661
H   H101      1.0  0.87650  0.66470  0.68380  1.0000 0.1324230896
H   H102      1.0  0.12350  0.33530  0.31620  1.0000 0.1324230896
H   H103      1.0  0.17220  0.39520  0.85480  1.0000 0.0997672573
H   H104      1.0  0.82780  0.60480  0.14520  1.0000 0.0997672573
H   H105      1.0  0.11460  0.46090  0.90250  1.0000 0.0892905322
H   H106      1.0  0.88540  0.53910  0.09750  1.0000 0.0892905322
H   H107      1.0  0.19610  0.31550  0.97790  1.0000 0.110539906
H   H108      1.0  0.80390  0.68450  0.02210  1.0000 0.110539906
H   H109      1.0  0.12100  0.24890  0.96820  1.0000 0.110539906
H   H110      1.0  0.87900  0.75110  0.03180  1.0000 0.110539906
H   H111      1.0  0.30280  0.94620  0.17830  1.0000 0.14055732
H   H112      1.0  0.69720  0.05380  0.82170  1.0000 0.14055732
H   H113      1.0  0.19950  0.05860  0.34750  1.0000 0.14055732
H   H114      1.0  0.80050  0.94140  0.65250  1.0000 0.14055732
H   H115      1.0  0.29170  0.77140  0.40090  1.0000 0.1324230896
H   H116      1.0  0.70830  0.22860  0.59910  1.0000 0.1324230896
H   H117      1.0  0.22830  0.21110  0.23680  1.0000 0.0997672573
H   H118      1.0  0.77170  0.78890  0.76320  1.0000 0.0997672573
H   H119      1.0  0.12200  0.16600  0.25500  1.0000 0.0997672573
H   H120      1.0  0.87800  0.83400  0.74500  1.0000 0.0997672573
H   H121      1.0  0.22260  0.26880  0.10020  1.0000 0.110539906
H   H122      1.0  0.77740  0.73120  0.89980  1.0000 0.110539906
H   H123      1.0  0.15500  0.32880  0.14810  1.0000 0.110539906
H   H124      1.0  0.84500  0.67120  0.85190  1.0000 0.110539906
H   H125      1.0  0.01650  0.23890  0.15960  1.0000 0.0997672573
H   H126      1.0  0.98350  0.76110  0.84040  1.0000 0.0997672573
H   H127      1.0  0.08390  0.17750  0.11280  1.0000 0.0997672573
H   H128      1.0  0.91610  0.82250  0.88720  1.0000 0.0997672573
H   H129      1.0  0.98960  0.31400  0.03800  1.0000 0.0997672573
H   H130      1.0  0.01040  0.68600  0.96200  1.0000 0.0997672573
H   H131      1.0  0.06090  0.38810  0.04350  1.0000 0.0997672573
H   H132      1.0  0.93910  0.61190  0.95650  1.0000 0.0997672573
C   C1        1.0  0.62750  0.50120  0.13100  1.0000 -0.1783154584
C   C2        1.0  0.37250  0.49880  0.86900  1.0000 -0.1783154584
C   C3        1.0  0.56280  0.56090  0.08836  1.0000 0.1209015661
C   C4        1.0  0.43720  0.43910  0.91164  1.0000 0.1209015661
C   C5        1.0  0.57960  0.58250  0.00910  1.0000 0.0892905322
C   C6        1.0  0.42040  0.41750  0.99090  1.0000 0.0831008089
C   C7        1.0  0.66270  0.54380  0.96980  1.0000 -0.1783154584
C   C8        1.0  0.33730  0.45620  0.03020  1.0000 -0.1783154584
C   C9        1.0  0.72620  0.48330  0.01290  1.0000 -0.1017295199
C   C10       1.0  0.27380  0.51670  0.98710  1.0000 -0.1017295199
C   C11       1.0  0.70920  0.46160  0.09270  1.0000 -0.1309379193
C   C12       1.0  0.29080  0.53840  0.90730  1.0000 -0.1309379193
C   C13       1.0  0.43990  0.65650  0.04794  1.0000 0.3669079912
C   C14       1.0  0.56010  0.34350  0.95206  1.0000 0.3669079912
C   C15       1.0  0.34860  0.71810  0.04420  1.0000 -0.5464801716
C   C16       1.0  0.65140  0.28190  0.95580  1.0000 -0.5464801716
C   C17       1.0  0.48930  0.68470  0.90441  1.0000 -0.1017295199
C   C18       1.0  0.51070  0.31530  0.09559  1.0000 -0.1017295199
C   C19       1.0  0.53620  0.78890  0.85970  1.0000 -0.1926017376
C   C20       1.0  0.46380  0.21110  0.14030  1.0000 -0.1926017376
C   C21       1.0  0.51980  0.83500  0.77740  1.0000 -0.1611270907
C   C22       1.0  0.48020  0.16500  0.22260  1.0000 -0.1611270907
C   C23       1.0  0.55500  0.77020  0.72980  1.0000 -0.1926017376
C   C24       1.0  0.44500  0.22980  0.27020  1.0000 -0.1926017376
C   C25       1.0  0.56300  0.81780  0.64201  1.0000 -0.1017295199
C   C26       1.0  0.43700  0.18220  0.35799  1.0000 -0.1017295199
C   C27       1.0  0.45180  0.96960  0.60275  1.0000 0.0831008089
C   C28       1.0  0.54820  0.03040  0.39725  1.0000 0.0831008089
C   C29       1.0  0.51100  0.05100  0.58960  1.0000 -0.1783154584
C   C30       1.0  0.48900  0.94900  0.41040  1.0000 -0.1783154584
C   C31       1.0  0.47040  0.14450  0.56670  1.0000 -0.0909735935
C   C32       1.0  0.52960  0.85550  0.43330  1.0000 -0.0909735935
C   C33       1.0  0.37320  0.16050  0.55490  1.0000 -0.1309379193
C   C34       1.0  0.62680  0.83950  0.44510  1.0000 -0.1309379193
C   C35       1.0  0.31460  0.08100  0.56960  1.0000 -0.1611270907
C   C36       1.0  0.68540  0.91900  0.43040  1.0000 -0.1611270907
C   C37       1.0  0.35400  0.98470  0.59354  1.0000 0.14055732
C   C38       1.0  0.64600  0.01530  0.40646  1.0000 0.14055732
C   C39       1.0  0.38600  0.82400  0.62580  1.0000 0.3600430859
C   C40       1.0  0.61400  0.17600  0.37420  1.0000 0.3600430859
C   C41       1.0  0.37820  0.71600  0.64360  1.0000 -0.5311357367
C   C42       1.0  0.62180  0.28400  0.35640  1.0000 -0.5311357367
C   C43       1.0  0.57490  0.82660  0.07030  1.0000 -0.1507552567
C   C44       1.0  0.42510  0.17340  0.92970  1.0000 -0.1507552567
C   C45       1.0  0.63150  0.90560  0.01690  1.0000 -0.1069756935
C   C46       1.0  0.36850  0.09440  0.98310  1.0000 -0.1069756935
C   C47       1.0  0.70950  0.93560  0.03280  1.0000 -0.0909735935
C   C48       1.0  0.29050  0.06440  0.96720  1.0000 -0.0909735935
C   C49       1.0  0.73440  0.89180  0.10240  1.0000 -0.1926017376
C   C50       1.0  0.26560  0.10820  0.89760  1.0000 -0.1926017376
C   C51       1.0  0.67930  0.80780  0.15590  1.0000 0.0831008089
C   C52       1.0  0.32070  0.19220  0.84410  1.0000 0.0831008089
C   C53       1.0  0.59980  0.77460  0.14040  1.0000 0.1209015661
C   C54       1.0  0.40020  0.22540  0.85960  1.0000 0.1209015661
C   C55       1.0  0.61150  0.67840  0.25530  1.0000 0.3669079912
C   C56       1.0  0.38850  0.32160  0.74470  1.0000 0.3669079912
C   C57       1.0  0.59770  0.59520  0.33420  1.0000 -0.5311357367
C   C58       1.0  0.40230  0.40480  0.66580  1.0000 -0.5311357367
C   C59       1.0  0.74650  0.77030  0.27590  1.0000 -0.1217774173
C   C60       1.0  0.25350  0.22970  0.72410  1.0000 -0.1217774173
C   C61       1.0  0.82790  0.70040  0.28350  1.0000 -0.196847146
C   C62       1.0  0.17210  0.29960  0.71650  1.0000 -0.196847146
C   C63       1.0  0.91140  0.73920  0.31040  1.0000 -0.1507552567
C   C64       1.0  0.08860  0.26080  0.68960  1.0000 -0.1507552567
C   C65       1.0  0.98770  0.79490  0.23720  1.0000 -0.196847146
C   C66       1.0  0.01230  0.20510  0.76280  1.0000 -0.196847146
C   C67       1.0  0.04080  0.87570  0.24710  1.0000 -0.1069756935
C   C68       1.0  0.95920  0.12430  0.75290  1.0000 -0.1069756935
C   C69       1.0  0.98310  0.92680  0.39600  1.0000 -0.5311357367
C   C70       1.0  0.01690  0.07320  0.60400  1.0000 -0.5311357367
C   C71       1.0  0.94760  0.98150  0.32360  1.0000 0.3600430859
C   C72       1.0  0.05240  0.01850  0.67640  1.0000 0.3600430859
C   C73       1.0  0.92510  0.02410  0.20380  1.0000 0.0692422611
C   C74       1.0  0.07490  0.97590  0.79620  1.0000 0.0692422611
C   C75       1.0  0.92740  0.03670  0.12680  1.0000 -0.1926017376
C   C76       1.0  0.07260  0.96330  0.87320  1.0000 -0.1926017376
C   C77       1.0  0.87160  0.11270  0.08880  1.0000 -0.1017295199
C   C78       1.0  0.12840  0.88730  0.91120  1.0000 -0.1017295199
C   C79       1.0  0.81390  0.17170  0.12540  1.0000 -0.1217774173
C   C80       1.0  0.18610  0.82830  0.87460  1.0000 -0.1217774173
C   C81       1.0  0.81150  0.16210  0.20170  1.0000 -0.1507552567
C   C82       1.0  0.18850  0.83790  0.79830  1.0000 -0.1507552567
C   C83       1.0  0.87050  0.08570  0.24004  1.0000 0.1324230896
C   C84       1.0  0.12950  0.91430  0.75996  1.0000 0.1324230896
C   C85       1.0  0.75200  0.50950  0.75530  1.0000 0.5312831971
C   C86       1.0  0.24800  0.49050  0.24470  1.0000 0.5312831971
C   C87       1.0  0.85490  0.52310  0.76280  1.0000 0.0080036874
C   C88       1.0  0.14510  0.47690  0.23720  1.0000 0.0080036874
C   C89       1.0  0.89810  0.44600  0.81446  1.0000 -0.2307041811
C   C90       1.0  0.10190  0.55400  0.18554  1.0000 -0.2307041811
C   C91       1.0  0.99000  0.45820  0.82497  1.0000 0.2346405906
C   C92       1.0  0.01000  0.54180  0.17503  1.0000 0.2346405906
C   C93       1.0  0.04140  0.54730  0.78130  1.0000 -0.2490937265
C   C94       1.0  0.95860  0.45270  0.21870  1.0000 -0.2490937265
C   C95       1.0  0.99920  0.62460  0.72814  1.0000 0.0080036874
C   C96       1.0  0.00080  0.37540  0.27186  1.0000 0.0080036874
C   C97       1.0  0.90540  0.61290  0.71895  1.0000 -0.1507552567
C   C98       1.0  0.09460  0.38710  0.28105  1.0000 -0.1507552567
C   C99       1.0  0.05740  0.71950  0.68268  1.0000 0.5312831971
C   C100      1.0  0.94260  0.28050  0.31732  1.0000 0.5312831971
C   C101      1.0  0.11660  0.39600  0.89700  1.0000 -0.0364530964
C   C102      1.0  0.88340  0.60400  0.10300  1.0000 -0.0364530964
C   C103      1.0  0.12920  0.31330  0.97180  1.0000 -0.2103332358
C   C104      1.0  0.87080  0.68670  0.02820  1.0000 -0.2103332358
C   C105      1.0  0.34420  0.75930  0.26041  1.0000 0.5312831971
C   C106      1.0  0.65580  0.24070  0.73959  1.0000 0.5312831971
C   C107      1.0  0.30340  0.84570  0.28540  1.0000 0.0049455825
C   C108      1.0  0.69660  0.15430  0.71460  1.0000 0.0080036874
C   C109      1.0  0.28660  0.93750  0.23080  1.0000 -0.2490937265
C   C110      1.0  0.71340  0.06250  0.76920  1.0000 -0.2490937265
C   C111      1.0  0.24600  0.01600  0.25380  1.0000 0.2470576537
C   C112      1.0  0.75400  0.98400  0.74620  1.0000 0.2470576537
C   C113      1.0  0.22470  0.00480  0.33208  1.0000 -0.241297655
C   C114      1.0  0.77530  0.99520  0.66792  1.0000 -0.241297655
C   C115      1.0  0.24150  0.91240  0.38675  1.0000 -0.0017313557
C   C116      1.0  0.75850  0.08760  0.61325  1.0000 -0.0017313557
C   C117      1.0  0.28060  0.83310  0.36399  1.0000 -0.1507552567
C   C118      1.0  0.71940  0.16690  0.63601  1.0000 -0.1507552567
C   C119      1.0  0.21210  0.89670  0.47157  1.0000 0.5206610931
C   C120      1.0  0.78790  0.10330  0.52843  1.0000 0.5206610931
C   C121      1.0  0.18370  0.18550  0.21616  1.0000 -0.0293776302
C   C122      1.0  0.81630  0.81450  0.78384  1.0000 -0.0293776302
C   C123      1.0  0.16450  0.26420  0.14179  1.0000 -0.2103332358
C   C124      1.0  0.83550  0.73580  0.85821  1.0000 -0.2103332358
C   C125      1.0  0.07480  0.24260  0.11840  1.0000 -0.1507552567
C   C126      1.0  0.92520  0.75740  0.88160  1.0000 -0.1507552567
C   C127      1.0  0.05640  0.32170  0.04220  1.0000 -0.1611270907
C   C128      1.0  0.94360  0.67830  0.95780  1.0000 -0.1611270907
N   N1        1.0  0.47471  0.60800  0.11171  1.0000 -0.4179033267
N   N2        1.0  0.52529  0.39200  0.88829  1.0000 -0.4179033267
N   N3        1.0  0.50230  0.64210  0.98469  1.0000 -0.0786569959
N   N4        1.0  0.49770  0.35790  0.01531  1.0000 -0.0786569959
N   N5        1.0  0.46991  0.86800  0.62385  1.0000 -0.0731296411
N   N6        1.0  0.53009  0.13200  0.37615  1.0000 -0.0731296411
N   N7        1.0  0.31412  0.89114  0.60915  1.0000 -0.4179033267
N   N8        1.0  0.68588  0.10886  0.39085  1.0000 -0.4179033267
N   N9        1.0  0.55860  0.69180  0.20500  1.0000 -0.4105251806
N   N10       1.0  0.44140  0.30820  0.79500  1.0000 -0.4105251806
N   N11       1.0  0.68170  0.74960  0.23090  1.0000 -0.0731296411
N   N12       1.0  0.31830  0.25040  0.76910  1.0000 -0.0731296411
N   N13       1.0  0.97410  0.95650  0.25845  1.0000 -0.0786569959
N   N14       1.0  0.02590  0.04350  0.74155  1.0000 -0.0786569959
N   N15       1.0  0.88572  0.05910  0.31471  1.0000 -0.4105251806
N   N16       1.0  0.11428  0.94090  0.68529  1.0000 -0.4105251806
O   O1        1.0  0.72025  0.42460  0.77468  1.0000 -0.5123215544
O   O2        1.0  0.27975  0.57540  0.22532  1.0000 -0.5123215544
O   O3        1.0  0.70500  0.58530  0.72910  1.0000 -0.5424757379
O   O4        1.0  0.29500  0.41470  0.27090  1.0000 -0.5424757379
O   O5        1.0  0.36221  0.77089  0.18956  1.0000 -0.5311357367
O   O6        1.0  0.63779  0.22911  0.81044  1.0000 -0.5311357367
O   O7        1.0  0.36136  0.67571  0.31043  1.0000 -0.5123215544
O   O8        1.0  0.63864  0.32429  0.68957  1.0000 -0.5123215544
O   O9        1.0  0.14110  0.72463  0.69702  1.0000 -0.5424757379
O   O10       1.0  0.85890  0.27537  0.30298  1.0000 -0.5424757379
O   O11       1.0  0.02526  0.79244  0.63331  1.0000 -0.5123215544
O   O12       1.0  0.97474  0.20756  0.36669  1.0000 -0.5158794748
O   O13       1.0  0.21985  0.80999  0.52025  1.0000 -0.4998741376
O   O14       1.0  0.78015  0.19001  0.47975  1.0000 -0.4998741376
O   O15       1.0  0.18047  0.96775  0.49519  1.0000 -0.5311357367
O   O16       1.0  0.81953  0.03225  0.50481  1.0000 -0.5311357367
O   O17       1.0  0.02605  0.37970  0.88059  1.0000 -0.196847146
O   O18       1.0  0.97395  0.62030  0.11941  1.0000 -0.196847146
O   O19       1.0  0.22812  0.10168  0.19544  1.0000 -0.1926017376
O   O20       1.0  0.77188  0.89832  0.80456  1.0000 -0.1926017376
