# DDEC6 charges by PACMAN v1.1 (https://github.com/mtap-research/PACMAN-charge/)
data_2015[Cd][bto]3[ASR]1
_chemical_formula_sum              "Cd6 H54 C126 O36"
_cell_length_a       14.0306
_cell_length_b       14.0306
_cell_length_c       28.178
_cell_angle_alpha    90
_cell_angle_beta     90
_cell_angle_gamma    120

_symmetry_space_group_name_H-M    "P 1"
_symmetry_Int_Tables_number       1

loop_
  _symmetry_equiv_pos_as_xyz
  'x, y, z'

loop_
  _atom_site_type_symbol
  _atom_site_label
  _atom_site_symmetry_multiplicity
  _atom_site_fract_x
  _atom_site_fract_y
  _atom_site_fract_z
  _atom_site_occupancy
  _atom_site_charge
Cd  Cd1       1.0  0.09083  0.42990  0.97528  1.0000 1.0124572858
Cd  Cd2       1.0  0.33907  0.90917  0.30861  1.0000 1.0124572858
Cd  Cd3       1.0  0.57010  0.66093  0.64195  1.0000 1.0124572858
Cd  Cd4       1.0  0.42990  0.09083  0.02472  1.0000 1.019395952
Cd  Cd5       1.0  0.90917  0.33907  0.69139  1.0000 1.019395952
Cd  Cd6       1.0  0.66093  0.57010  0.35805  1.0000 1.0124572858
H   H1        1.0  0.86520  0.13900  0.86490  1.0000 0.1402210315
H   H2        1.0  0.27380  0.13480  0.19823  1.0000 0.1402210315
H   H3        1.0  0.86100  0.72620  0.53157  1.0000 0.1402210315
H   H4        1.0  0.79090  0.97280  0.82610  1.0000 0.1233091971
H   H5        1.0  0.18190  0.20910  0.15943  1.0000 0.1233091971
H   H6        1.0  0.02720  0.81810  0.49277  1.0000 0.1233091971
H   H7        1.0  0.03450  0.04980  0.94900  1.0000 0.1233091971
H   H8        1.0  0.01530  0.96550  0.28233  1.0000 0.1233091971
H   H9        1.0  0.95020  0.98470  0.61567  1.0000 0.1233091971
H   H10       1.0  0.73240  0.82730  0.79140  1.0000 0.1286370985
H   H11       1.0  0.09490  0.26760  0.12473  1.0000 0.1286370985
H   H12       1.0  0.17270  0.90510  0.45807  1.0000 0.1286370985
H   H13       1.0  0.72630  0.54150  0.77000  1.0000 0.1286370985
H   H14       1.0  0.81520  0.27370  0.10333  1.0000 0.1286370985
H   H15       1.0  0.45850  0.18480  0.43667  1.0000 0.1286370985
H   H16       1.0  0.82400  0.56920  0.83880  1.0000 0.1286370985
H   H17       1.0  0.74520  0.17600  0.17213  1.0000 0.1286370985
H   H18       1.0  0.43080  0.25480  0.50547  1.0000 0.1286370985
H   H19       1.0  0.91760  0.59540  0.89730  1.0000 0.1286370985
H   H20       1.0  0.67780  0.08240  0.23063  1.0000 0.1286370985
H   H21       1.0  0.40460  0.32220  0.56397  1.0000 0.1286370985
H   H22       1.0  0.10400  0.79720  0.99710  1.0000 0.1402210315
H   H23       1.0  0.69320  0.89600  0.33043  1.0000 0.1402210315
H   H24       1.0  0.20280  0.30680  0.66377  1.0000 0.1402210315
H   H25       1.0  0.07020  0.93040  0.97200  1.0000 0.1233091971
H   H26       1.0  0.86020  0.92980  0.30533  1.0000 0.1233091971
H   H27       1.0  0.06960  0.13980  0.63867  1.0000 0.1233091971
H   H28       1.0  0.13900  0.86520  0.13510  1.0000 0.1402210315
H   H29       1.0  0.13480  0.27380  0.80177  1.0000 0.1402210315
H   H30       1.0  0.72620  0.86100  0.46843  1.0000 0.1402210315
H   H31       1.0  0.97280  0.79090  0.17390  1.0000 0.1233091971
H   H32       1.0  0.20910  0.18190  0.84057  1.0000 0.1233091971
H   H33       1.0  0.81810  0.02720  0.50723  1.0000 0.1233091971
H   H34       1.0  0.04980  0.03450  0.05100  1.0000 0.1233091971
H   H35       1.0  0.96550  0.01530  0.71767  1.0000 0.1233091971
H   H36       1.0  0.98470  0.95020  0.38433  1.0000 0.1233091971
H   H37       1.0  0.82730  0.73240  0.20860  1.0000 0.1286370985
H   H38       1.0  0.26760  0.09490  0.87527  1.0000 0.1286370985
H   H39       1.0  0.90510  0.17270  0.54193  1.0000 0.1286370985
H   H40       1.0  0.54150  0.72630  0.23000  1.0000 0.1286370985
H   H41       1.0  0.27370  0.81520  0.89667  1.0000 0.1286370985
H   H42       1.0  0.18480  0.45850  0.56333  1.0000 0.1286370985
H   H43       1.0  0.56920  0.82400  0.16120  1.0000 0.1286370985
H   H44       1.0  0.17600  0.74520  0.82787  1.0000 0.1286370985
H   H45       1.0  0.25480  0.43080  0.49453  1.0000 0.1286370985
H   H46       1.0  0.59540  0.91760  0.10270  1.0000 0.1286370985
H   H47       1.0  0.08240  0.67780  0.76937  1.0000 0.1286370985
H   H48       1.0  0.32220  0.40460  0.43603  1.0000 0.1286370985
H   H49       1.0  0.79720  0.10400  0.00290  1.0000 0.1402210315
H   H50       1.0  0.89600  0.69320  0.66957  1.0000 0.1402210315
H   H51       1.0  0.30680  0.20280  0.33623  1.0000 0.1402210315
H   H52       1.0  0.93040  0.07020  0.02800  1.0000 0.1233091971
H   H53       1.0  0.92980  0.86020  0.69467  1.0000 0.1233091971
H   H54       1.0  0.13980  0.06960  0.36133  1.0000 0.1233091971
C   C1        1.0  0.01210  0.21970  0.93520  1.0000 0.5426865133
C   C2        1.0  0.20760  0.98790  0.26853  1.0000 0.5426865133
C   C3        1.0  0.78030  0.79240  0.60187  1.0000 0.5426865133
C   C4        1.0  0.95940  0.11130  0.91010  1.0000 -0.0131530139
C   C5        1.0  0.15190  0.04060  0.24343  1.0000 -0.0131530139
C   C6        1.0  0.88870  0.84810  0.57677  1.0000 -0.0131530139
C   C7        1.0  0.88510  0.08760  0.87390  1.0000 -0.0787818263
C   C8        1.0  0.20250  0.11490  0.20723  1.0000 -0.0787818263
C   C9        1.0  0.91240  0.79750  0.54057  1.0000 -0.0787818263
C   C10       1.0  0.84000  0.98740  0.85100  1.0000 -0.1374844487
C   C11       1.0  0.14740  0.16000  0.18433  1.0000 -0.1374844487
C   C12       1.0  0.01260  0.85260  0.51767  1.0000 -0.1374844487
C   C13       1.0  0.86730  0.90480  0.86470  1.0000 0.0302307299
C   C14       1.0  0.03750  0.13270  0.19803  1.0000 0.0302307299
C   C15       1.0  0.09520  0.96250  0.53137  1.0000 0.0302307299
C   C16       1.0  0.94090  0.92930  0.90150  1.0000 0.0302307299
C   C17       1.0  0.98840  0.05910  0.23483  1.0000 0.0302307299
C   C18       1.0  0.07070  0.01160  0.56817  1.0000 0.0302307299
C   C19       1.0  0.98560  0.03360  0.92390  1.0000 -0.1342672959
C   C20       1.0  0.04800  0.01440  0.25723  1.0000 -0.1342672959
C   C21       1.0  0.96640  0.95200  0.59057  1.0000 -0.1342672959
C   C22       1.0  0.81950  0.80040  0.83840  1.0000 0.0302307299
C   C23       1.0  0.98090  0.18050  0.17173  1.0000 0.0302307299
C   C24       1.0  0.19960  0.01910  0.50507  1.0000 0.0302307299
C   C25       1.0  0.75370  0.77670  0.80010  1.0000 -0.1374844487
C   C26       1.0  0.02300  0.24630  0.13343  1.0000 -0.1374844487
C   C27       1.0  0.22330  0.97700  0.46677  1.0000 -0.1374844487
C   C28       1.0  0.71610  0.68410  0.77310  1.0000 0.0173168225
C   C29       1.0  0.96800  0.28390  0.10643  1.0000 0.0173168225
C   C30       1.0  0.31590  0.03200  0.43977  1.0000 0.0173168225
C   C31       1.0  0.65220  0.66710  0.72750  1.0000 0.5426865133
C   C32       1.0  0.01490  0.34780  0.06083  1.0000 0.5426865133
C   C33       1.0  0.33290  0.98510  0.39417  1.0000 0.5426865133
C   C34       1.0  0.74750  0.60470  0.78790  1.0000 -0.0787818263
C   C35       1.0  0.85720  0.25250  0.12123  1.0000 -0.0787818263
C   C36       1.0  0.39530  0.14280  0.45457  1.0000 -0.0787818263
C   C37       1.0  0.80840  0.62270  0.82820  1.0000 -0.1491351033
C   C38       1.0  0.81430  0.19160  0.16153  1.0000 -0.1491351033
C   C39       1.0  0.37730  0.18570  0.49487  1.0000 -0.1491351033
C   C40       1.0  0.84730  0.72020  0.85380  1.0000 0.0393955926
C   C41       1.0  0.87290  0.15270  0.18713  1.0000 0.0393955926
C   C42       1.0  0.27980  0.12710  0.52047  1.0000 0.0393955926
C   C43       1.0  0.92110  0.74500  0.89460  1.0000 0.0393955926
C   C44       1.0  0.82390  0.07890  0.22793  1.0000 0.0393955926
C   C45       1.0  0.25500  0.17610  0.56127  1.0000 0.0393955926
C   C46       1.0  0.94850  0.66390  0.91200  1.0000 -0.1374844487
C   C47       1.0  0.71540  0.05150  0.24533  1.0000 -0.1374844487
C   C48       1.0  0.33610  0.28460  0.57867  1.0000 -0.1374844487
C   C49       1.0  0.01570  0.68550  0.94790  1.0000 0.0173168225
C   C50       1.0  0.66980  0.98430  0.28123  1.0000 0.0173168225
C   C51       1.0  0.31450  0.33020  0.61457  1.0000 0.0173168225
C   C52       1.0  0.04760  0.59960  0.96170  1.0000 0.5426865133
C   C53       1.0  0.55200  0.95240  0.29503  1.0000 0.5426865133
C   C54       1.0  0.40040  0.44800  0.62837  1.0000 0.5426865133
C   C55       1.0  0.05860  0.78400  0.97090  1.0000 -0.0883556709
C   C56       1.0  0.72540  0.94140  0.30423  1.0000 -0.0883556709
C   C57       1.0  0.21600  0.27460  0.63757  1.0000 -0.0883556709
C   C58       1.0  0.03660  0.86270  0.95660  1.0000 -0.1232738189
C   C59       1.0  0.82610  0.96340  0.28993  1.0000 -0.1232738189
C   C60       1.0  0.13730  0.17390  0.62327  1.0000 -0.1232738189
C   C61       1.0  0.96500  0.84470  0.91940  1.0000 0.0393955926
C   C62       1.0  0.87970  0.03500  0.25273  1.0000 0.0393955926
C   C63       1.0  0.15530  0.12030  0.58607  1.0000 0.0393955926
C   C64       1.0  0.21970  0.01210  0.06480  1.0000 0.5426865133
C   C65       1.0  0.98790  0.20760  0.73147  1.0000 0.5426865133
C   C66       1.0  0.79240  0.78030  0.39813  1.0000 0.5426865133
C   C67       1.0  0.11130  0.95940  0.08990  1.0000 -0.0131530139
C   C68       1.0  0.04060  0.15190  0.75657  1.0000 -0.0131530139
C   C69       1.0  0.84810  0.88870  0.42323  1.0000 -0.0131530139
C   C70       1.0  0.08760  0.88510  0.12610  1.0000 -0.0787818263
C   C71       1.0  0.11490  0.20250  0.79277  1.0000 -0.0787818263
C   C72       1.0  0.79750  0.91240  0.45943  1.0000 -0.0787818263
C   C73       1.0  0.98740  0.84000  0.14900  1.0000 -0.1374844487
C   C74       1.0  0.16000  0.14740  0.81567  1.0000 -0.1374844487
C   C75       1.0  0.85260  0.01260  0.48233  1.0000 -0.1374844487
C   C76       1.0  0.90480  0.86730  0.13530  1.0000 0.0302307299
C   C77       1.0  0.13270  0.03750  0.80197  1.0000 0.0302307299
C   C78       1.0  0.96250  0.09520  0.46863  1.0000 0.0302307299
C   C79       1.0  0.92930  0.94090  0.09850  1.0000 0.0302307299
C   C80       1.0  0.05910  0.98840  0.76517  1.0000 0.0302307299
C   C81       1.0  0.01160  0.07070  0.43183  1.0000 0.0302307299
C   C82       1.0  0.03360  0.98560  0.07610  1.0000 -0.1374844487
C   C83       1.0  0.01440  0.04800  0.74277  1.0000 -0.1342672959
C   C84       1.0  0.95200  0.96640  0.40943  1.0000 -0.1342672959
C   C85       1.0  0.80040  0.81950  0.16160  1.0000 0.0302307299
C   C86       1.0  0.18050  0.98090  0.82827  1.0000 0.0302307299
C   C87       1.0  0.01910  0.19960  0.49493  1.0000 0.0302307299
C   C88       1.0  0.77670  0.75370  0.19990  1.0000 -0.1374844487
C   C89       1.0  0.24630  0.02300  0.86657  1.0000 -0.1374844487
C   C90       1.0  0.97700  0.22330  0.53323  1.0000 -0.1374844487
C   C91       1.0  0.68410  0.71610  0.22690  1.0000 0.0173168225
C   C92       1.0  0.28390  0.96800  0.89357  1.0000 0.0173168225
C   C93       1.0  0.03200  0.31590  0.56023  1.0000 0.0173168225
C   C94       1.0  0.66710  0.65220  0.27250  1.0000 0.5426865133
C   C95       1.0  0.34780  0.01490  0.93917  1.0000 0.5426865133
C   C96       1.0  0.98510  0.33290  0.60583  1.0000 0.5426865133
C   C97       1.0  0.60470  0.74750  0.21210  1.0000 -0.0787818263
C   C98       1.0  0.25250  0.85720  0.87877  1.0000 -0.0787818263
C   C99       1.0  0.14280  0.39530  0.54543  1.0000 -0.0787818263
C   C100      1.0  0.62270  0.80840  0.17180  1.0000 -0.1491351033
C   C101      1.0  0.19160  0.81430  0.83847  1.0000 -0.1491351033
C   C102      1.0  0.18570  0.37730  0.50513  1.0000 -0.1491351033
C   C103      1.0  0.72020  0.84730  0.14620  1.0000 0.0393955926
C   C104      1.0  0.15270  0.87290  0.81287  1.0000 0.0393955926
C   C105      1.0  0.12710  0.27980  0.47953  1.0000 0.0393955926
C   C106      1.0  0.74500  0.92110  0.10540  1.0000 0.0393955926
C   C107      1.0  0.07890  0.82390  0.77207  1.0000 0.0393955926
C   C108      1.0  0.17610  0.25500  0.43873  1.0000 0.0393955926
C   C109      1.0  0.66390  0.94850  0.08800  1.0000 -0.1374844487
C   C110      1.0  0.05150  0.71540  0.75467  1.0000 -0.1374844487
C   C111      1.0  0.28460  0.33610  0.42133  1.0000 -0.1374844487
C   C112      1.0  0.68550  0.01570  0.05210  1.0000 0.0173168225
C   C113      1.0  0.98430  0.66980  0.71877  1.0000 0.0173168225
C   C114      1.0  0.33020  0.31450  0.38543  1.0000 0.0173168225
C   C115      1.0  0.59960  0.04760  0.03830  1.0000 0.5426865133
C   C116      1.0  0.95240  0.55200  0.70497  1.0000 0.5426865133
C   C117      1.0  0.44800  0.40040  0.37163  1.0000 0.5426865133
C   C118      1.0  0.78400  0.05860  0.02910  1.0000 -0.0883556709
C   C119      1.0  0.94140  0.72540  0.69577  1.0000 -0.0883556709
C   C120      1.0  0.27460  0.21600  0.36243  1.0000 -0.0883556709
C   C121      1.0  0.86270  0.03660  0.04340  1.0000 -0.1232738189
C   C122      1.0  0.96340  0.82610  0.71007  1.0000 -0.1232738189
C   C123      1.0  0.17390  0.13730  0.37673  1.0000 -0.1232738189
C   C124      1.0  0.84470  0.96500  0.08060  1.0000 0.0393955926
C   C125      1.0  0.03500  0.87970  0.74727  1.0000 0.0393955926
C   C126      1.0  0.12030  0.15530  0.41393  1.0000 0.0393955926
O   O1        1.0  0.07220  0.23770  0.97007  1.0000 -0.5192832157
O   O2        1.0  0.16550  0.92780  0.30340  1.0000 -0.5192832157
O   O3        1.0  0.76230  0.83450  0.63674  1.0000 -0.5192832157
O   O4        1.0  0.98840  0.29090  0.92030  1.0000 -0.4955232694
O   O5        1.0  0.30250  0.01160  0.25363  1.0000 -0.4915604646
O   O6        1.0  0.70910  0.69750  0.58697  1.0000 -0.4955232694
O   O7        1.0  0.60250  0.72030  0.72160  1.0000 -0.5192832157
O   O8        1.0  0.11780  0.39750  0.05493  1.0000 -0.5192832157
O   O9        1.0  0.27970  0.88220  0.38827  1.0000 -0.5192832157
O   O10       1.0  0.65190  0.60040  0.69780  1.0000 -0.4915604646
O   O11       1.0  0.94850  0.34810  0.03113  1.0000 -0.4915604646
O   O12       1.0  0.39960  0.05150  0.36447  1.0000 -0.4955232694
O   O13       1.0  0.00160  0.51060  0.93910  1.0000 -0.4915604646
O   O14       1.0  0.50900  0.99840  0.27243  1.0000 -0.4915604646
O   O15       1.0  0.48940  0.49100  0.60577  1.0000 -0.4915604646
O   O16       1.0  0.11340  0.61860  0.99330  1.0000 -0.4533302491
O   O17       1.0  0.50520  0.88660  0.32663  1.0000 -0.4533302491
O   O18       1.0  0.38140  0.49480  0.65997  1.0000 -0.4533302491
O   O19       1.0  0.23770  0.07220  0.02993  1.0000 -0.5192832157
O   O20       1.0  0.92780  0.16550  0.69660  1.0000 -0.5192832157
O   O21       1.0  0.83450  0.76230  0.36326  1.0000 -0.5192832157
O   O22       1.0  0.29090  0.98840  0.07970  1.0000 -0.4955232694
O   O23       1.0  0.01160  0.30250  0.74637  1.0000 -0.4955232694
O   O24       1.0  0.69750  0.70910  0.41303  1.0000 -0.4955232694
O   O25       1.0  0.72030  0.60250  0.27840  1.0000 -0.5192832157
O   O26       1.0  0.39750  0.11780  0.94507  1.0000 -0.5192832157
O   O27       1.0  0.88220  0.27970  0.61173  1.0000 -0.5192832157
O   O28       1.0  0.60040  0.65190  0.30220  1.0000 -0.4955232694
O   O29       1.0  0.34810  0.94850  0.96887  1.0000 -0.4955232694
O   O30       1.0  0.05150  0.39960  0.63553  1.0000 -0.4955232694
O   O31       1.0  0.51060  0.00160  0.06090  1.0000 -0.4915604646
O   O32       1.0  0.99840  0.50900  0.72757  1.0000 -0.4915604646
O   O33       1.0  0.49100  0.48940  0.39423  1.0000 -0.4915604646
O   O34       1.0  0.61860  0.11340  0.00670  1.0000 -0.4533302491
O   O35       1.0  0.88660  0.50520  0.67337  1.0000 -0.4533302491
O   O36       1.0  0.49480  0.38140  0.34003  1.0000 -0.4533302491
