# DDEC6 charges by PACMAN v1.1 (https://github.com/mtap-research/PACMAN-charge/)
data_2015[Er][rob]3[ASR]1
_chemical_formula_sum              "Er8 H168 C276 O72"
_cell_length_a       14.4221
_cell_length_b       19.0983
_cell_length_c       30.556
_cell_angle_alpha    90
_cell_angle_beta     90
_cell_angle_gamma    90

_symmetry_space_group_name_H-M    "P 1"
_symmetry_Int_Tables_number       1

loop_
  _symmetry_equiv_pos_as_xyz
  'x, y, z'

loop_
  _atom_site_type_symbol
  _atom_site_label
  _atom_site_symmetry_multiplicity
  _atom_site_fract_x
  _atom_site_fract_y
  _atom_site_fract_z
  _atom_site_occupancy
  _atom_site_charge
Er  Er1       1.0  0.46220  0.14126  0.74751  1.0000 2.0499215741
Er  Er2       1.0  0.53780  0.85874  0.24751  1.0000 2.0499215741
Er  Er3       1.0  0.96220  0.35874  0.24751  1.0000 2.0499215741
Er  Er4       1.0  0.03780  0.64126  0.74751  1.0000 2.0499215741
Er  Er5       1.0  0.52419  0.18785  0.62327  1.0000 2.0566885491
Er  Er6       1.0  0.47581  0.81215  0.12327  1.0000 2.0566885491
Er  Er7       1.0  0.02419  0.31215  0.12327  1.0000 2.0566885491
Er  Er8       1.0  0.97581  0.68785  0.62327  1.0000 2.0566885491
H   H1        1.0  0.24290  0.13020  0.58200  1.0000 0.1270248555
H   H2        1.0  0.75710  0.86980  0.08200  1.0000 0.1270248555
H   H3        1.0  0.74290  0.36980  0.08200  1.0000 0.1270248555
H   H4        1.0  0.25710  0.63020  0.58200  1.0000 0.1270248555
H   H5        1.0  0.73990  0.18870  0.78540  1.0000 0.1194651004
H   H6        1.0  0.26010  0.81130  0.28540  1.0000 0.1194651004
H   H7        1.0  0.23990  0.31130  0.28540  1.0000 0.1194651004
H   H8        1.0  0.76010  0.68870  0.78540  1.0000 0.1194651004
H   H9        1.0  0.67470  0.04380  0.85490  1.0000 0.1194651004
H   H10       1.0  0.32530  0.95620  0.35490  1.0000 0.1194651004
H   H11       1.0  0.17470  0.45620  0.35490  1.0000 0.1194651004
H   H12       1.0  0.82530  0.54380  0.85490  1.0000 0.1194651004
H   H13       1.0  0.22440  0.09750  0.72360  1.0000 0.3476892655
H   H14       1.0  0.77560  0.90250  0.22360  1.0000 0.3476892655
H   H15       1.0  0.72440  0.40250  0.22360  1.0000 0.3476892655
H   H16       1.0  0.27560  0.59750  0.72360  1.0000 0.3476892655
H   H17       1.0  0.76810  0.25060  0.64530  1.0000 0.3580550273
H   H18       1.0  0.23190  0.74940  0.14530  1.0000 0.3580550273
H   H19       1.0  0.26810  0.24940  0.14530  1.0000 0.3580550273
H   H20       1.0  0.73190  0.75060  0.64530  1.0000 0.3580550273
H   H21       1.0  0.52700  0.24170  0.86630  1.0000 0.3357704226
H   H22       1.0  0.47300  0.75830  0.36630  1.0000 0.3357704226
H   H23       1.0  0.02700  0.25830  0.36630  1.0000 0.3357704226
H   H24       1.0  0.97300  0.74170  0.86630  1.0000 0.3357704226
H   H25       1.0  0.13640  0.11720  0.52200  1.0000 0.1194651004
H   H26       1.0  0.86360  0.88280  0.02200  1.0000 0.1194651004
H   H27       1.0  0.63640  0.38280  0.02200  1.0000 0.1194651004
H   H28       1.0  0.36360  0.61720  0.52200  1.0000 0.1194651004
H   H29       1.0  0.92930  0.06020  0.68320  1.0000 0.1095161324
H   H30       1.0  0.07070  0.93980  0.18320  1.0000 0.1095161324
H   H31       1.0  0.42930  0.43980  0.18320  1.0000 0.1095161324
H   H32       1.0  0.57070  0.56020  0.68320  1.0000 0.1095161324
H   H33       1.0  0.99030  0.09530  0.71930  1.0000 0.1095161324
H   H34       1.0  0.00970  0.90470  0.21930  1.0000 0.1095161324
H   H35       1.0  0.49030  0.40470  0.21930  1.0000 0.1095161324
H   H36       1.0  0.50970  0.59530  0.71930  1.0000 0.1095161324
H   H37       1.0  0.84900  0.19530  0.84600  1.0000 0.1194651004
H   H38       1.0  0.15100  0.80470  0.34600  1.0000 0.1194651004
H   H39       1.0  0.34900  0.30470  0.34600  1.0000 0.1194651004
H   H40       1.0  0.65100  0.69530  0.84600  1.0000 0.1194651004
H   H41       1.0  0.06030  0.26570  0.68840  1.0000 0.1095161324
H   H42       1.0  0.93970  0.73430  0.18840  1.0000 0.1095161324
H   H43       1.0  0.56030  0.23430  0.18840  1.0000 0.1095161324
H   H44       1.0  0.43970  0.76570  0.68840  1.0000 0.1095161324
H   H45       1.0  0.00120  0.22970  0.65210  1.0000 0.1095161324
H   H46       1.0  0.99880  0.77030  0.15210  1.0000 0.1095161324
H   H47       1.0  0.50120  0.27030  0.15210  1.0000 0.1095161324
H   H48       1.0  0.49880  0.72970  0.65210  1.0000 0.1095161324
H   H49       1.0  0.78390  0.98410  0.90440  1.0000 0.1095161324
H   H50       1.0  0.21610  0.01590  0.40440  1.0000 0.1095161324
H   H51       1.0  0.28390  0.51590  0.40440  1.0000 0.1095161324
H   H52       1.0  0.71610  0.48410  0.90440  1.0000 0.1095161324
H   H53       1.0  0.68590  0.25860  0.98550  1.0000 0.1095161324
H   H54       1.0  0.31410  0.74140  0.48550  1.0000 0.1095161324
H   H55       1.0  0.18590  0.24140  0.48550  1.0000 0.1095161324
H   H56       1.0  0.81410  0.75860  0.98550  1.0000 0.1095161324
H   H57       1.0  0.64140  0.30120  0.94720  1.0000 0.1095161324
H   H58       1.0  0.35860  0.69880  0.44720  1.0000 0.1095161324
H   H59       1.0  0.14140  0.19880  0.44720  1.0000 0.1095161324
H   H60       1.0  0.85860  0.80120  0.94720  1.0000 0.1095161324
H   H61       1.0  0.01280  0.40100  0.93870  1.0000 0.1194651004
H   H62       1.0  0.98720  0.59900  0.43870  1.0000 0.1194651004
H   H63       1.0  0.51280  0.09900  0.43870  1.0000 0.1194651004
H   H64       1.0  0.48720  0.90100  0.93870  1.0000 0.1194651004
H   H65       1.0  0.99080  0.09860  0.49710  1.0000 0.1095161324
H   H66       1.0  0.00920  0.90140  0.99710  1.0000 0.1095161324
H   H67       1.0  0.49080  0.40140  0.99710  1.0000 0.1095161324
H   H68       1.0  0.50920  0.59860  0.49710  1.0000 0.1095161324
H   H69       1.0  0.90030  0.06420  0.61930  1.0000 0.1194651004
H   H70       1.0  0.09970  0.93580  0.11930  1.0000 0.1194651004
H   H71       1.0  0.40030  0.43580  0.11930  1.0000 0.1194651004
H   H72       1.0  0.59970  0.56420  0.61930  1.0000 0.1194651004
H   H73       1.0  0.99780  0.21050  0.87230  1.0000 0.1194651004
H   H74       1.0  0.00220  0.78950  0.37230  1.0000 0.1194651004
H   H75       1.0  0.49780  0.28950  0.37230  1.0000 0.1194651004
H   H76       1.0  0.50220  0.71050  0.87230  1.0000 0.1194651004
H   H77       1.0  0.08800  0.25800  0.75310  1.0000 0.1194651004
H   H78       1.0  0.91200  0.74200  0.25310  1.0000 0.1194651004
H   H79       1.0  0.58800  0.24200  0.25310  1.0000 0.1194651004
H   H80       1.0  0.41200  0.75800  0.75310  1.0000 0.1194651004
H   H81       1.0  0.80190  0.17970  0.99340  1.0000 0.1095161324
H   H82       1.0  0.19810  0.82030  0.49340  1.0000 0.1095161324
H   H83       1.0  0.30190  0.32030  0.49340  1.0000 0.1095161324
H   H84       1.0  0.69810  0.67970  0.99340  1.0000 0.1095161324
H   H85       1.0  0.88020  0.98490  0.96390  1.0000 0.1095161324
H   H86       1.0  0.11980  0.01510  0.46390  1.0000 0.1095161324
H   H87       1.0  0.38020  0.51510  0.46390  1.0000 0.1095161324
H   H88       1.0  0.61980  0.48490  0.96390  1.0000 0.1095161324
H   H89       1.0  0.86020  0.28380  0.03920  1.0000 0.3476892655
H   H90       1.0  0.13980  0.71620  0.53920  1.0000 0.3476892655
H   H91       1.0  0.36020  0.21620  0.53920  1.0000 0.3476892655
H   H92       1.0  0.63980  0.78380  0.03920  1.0000 0.3476892655
H   H93       1.0  0.86980  0.07770  0.54760  1.0000 0.1194651004
H   H94       1.0  0.13020  0.92230  0.04760  1.0000 0.1194651004
H   H95       1.0  0.36980  0.42230  0.04760  1.0000 0.1194651004
H   H96       1.0  0.63020  0.57770  0.54760  1.0000 0.1194651004
H   H97       1.0  0.11560  0.23870  0.82360  1.0000 0.1095161324
H   H98       1.0  0.88440  0.76130  0.32360  1.0000 0.1095161324
H   H99       1.0  0.61560  0.26130  0.32360  1.0000 0.1095161324
H   H100      1.0  0.38440  0.73870  0.82360  1.0000 0.1095161324
H   H101      1.0  0.88530  0.07940  0.00910  1.0000 0.1194651004
H   H102      1.0  0.11470  0.92060  0.50910  1.0000 0.1194651004
H   H103      1.0  0.38530  0.42060  0.50910  1.0000 0.1194651004
H   H104      1.0  0.61470  0.57940  0.00910  1.0000 0.1194651004
H   H105      1.0  0.97970  0.42510  0.86040  1.0000 0.1194651004
H   H106      1.0  0.02030  0.57490  0.36040  1.0000 0.1194651004
H   H107      1.0  0.47970  0.07490  0.36040  1.0000 0.1194651004
H   H108      1.0  0.52030  0.92510  0.86040  1.0000 0.1194651004
H   H109      1.0  0.98020  0.08350  0.78310  1.0000 0.1095161324
H   H110      1.0  0.01980  0.91650  0.28310  1.0000 0.1095161324
H   H111      1.0  0.48020  0.41650  0.28310  1.0000 0.1095161324
H   H112      1.0  0.51980  0.58350  0.78310  1.0000 0.1095161324
H   H113      1.0  0.01070  0.89740  0.63770  1.0000 0.3476892655
H   H114      1.0  0.98930  0.10260  0.13770  1.0000 0.3476892655
H   H115      1.0  0.51070  0.60260  0.13770  1.0000 0.3476892655
H   H116      1.0  0.48930  0.39740  0.63770  1.0000 0.3476892655
H   H117      1.0  0.99290  0.23830  0.58660  1.0000 0.1095161324
H   H118      1.0  0.00710  0.76170  0.08660  1.0000 0.1095161324
H   H119      1.0  0.49290  0.26170  0.08660  1.0000 0.1095161324
H   H120      1.0  0.50710  0.73830  0.58660  1.0000 0.1095161324
H   H121      1.0  0.99950  0.43040  0.72970  1.0000 0.3476892655
H   H122      1.0  0.00050  0.56960  0.22970  1.0000 0.3476892655
H   H123      1.0  0.49950  0.06960  0.22970  1.0000 0.3476892655
H   H124      1.0  0.50050  0.93040  0.72970  1.0000 0.3476892655
H   H125      1.0  0.69240  0.32040  0.87270  1.0000 0.1095161324
H   H126      1.0  0.30760  0.67960  0.37270  1.0000 0.1095161324
H   H127      1.0  0.19240  0.17960  0.37270  1.0000 0.1095161324
H   H128      1.0  0.80760  0.82040  0.87270  1.0000 0.1095161324
H   H129      1.0  0.88590  0.41660  0.80120  1.0000 0.1194651004
H   H130      1.0  0.11410  0.58340  0.30120  1.0000 0.1194651004
H   H131      1.0  0.38590  0.08340  0.30120  1.0000 0.1194651004
H   H132      1.0  0.61410  0.91660  0.80120  1.0000 0.1194651004
H   H133      1.0  0.96870  0.06470  0.85640  1.0000 0.1095161324
H   H134      1.0  0.03130  0.93530  0.35640  1.0000 0.1095161324
H   H135      1.0  0.46870  0.43530  0.35640  1.0000 0.1095161324
H   H136      1.0  0.53130  0.56470  0.85640  1.0000 0.1095161324
H   H137      1.0  0.99520  0.86040  0.84200  1.0000 0.1194651004
H   H138      1.0  0.00480  0.13960  0.34200  1.0000 0.1194651004
H   H139      1.0  0.49520  0.63960  0.34200  1.0000 0.1194651004
H   H140      1.0  0.50480  0.36040  0.84200  1.0000 0.1194651004
H   H141      1.0  0.01250  0.80960  0.76810  1.0000 0.1194651004
H   H142      1.0  0.98750  0.19040  0.26810  1.0000 0.1194651004
H   H143      1.0  0.51250  0.69040  0.26810  1.0000 0.1194651004
H   H144      1.0  0.48750  0.30960  0.76810  1.0000 0.1194651004
H   H145      1.0  0.01340  0.24970  0.51460  1.0000 0.1095161324
H   H146      1.0  0.98660  0.75030  0.01460  1.0000 0.1095161324
H   H147      1.0  0.51340  0.25030  0.01460  1.0000 0.1095161324
H   H148      1.0  0.48660  0.74970  0.51460  1.0000 0.1095161324
H   H149      1.0  0.00690  0.45870  0.52560  1.0000 0.1194651004
H   H150      1.0  0.99310  0.54130  0.02560  1.0000 0.1194651004
H   H151      1.0  0.50690  0.04130  0.02560  1.0000 0.1194651004
H   H152      1.0  0.49310  0.95870  0.52560  1.0000 0.1194651004
H   H153      1.0  0.99340  0.51230  0.59650  1.0000 0.1270248555
H   H154      1.0  0.00660  0.48770  0.09650  1.0000 0.1270248555
H   H155      1.0  0.49340  0.98770  0.09650  1.0000 0.1270248555
H   H156      1.0  0.50660  0.01230  0.59650  1.0000 0.1270248555
H   H157      1.0  0.74120  0.36710  0.80880  1.0000 0.1194651004
H   H158      1.0  0.25880  0.63290  0.30880  1.0000 0.1194651004
H   H159      1.0  0.24120  0.13290  0.30880  1.0000 0.1194651004
H   H160      1.0  0.75880  0.86710  0.80880  1.0000 0.1194651004
H   H161      1.0  0.97350  0.95420  0.88640  1.0000 0.1095161324
H   H162      1.0  0.02650  0.04580  0.38640  1.0000 0.1095161324
H   H163      1.0  0.47350  0.54580  0.38640  1.0000 0.1095161324
H   H164      1.0  0.52650  0.45420  0.88640  1.0000 0.1095161324
H   H165      1.0  0.02280  0.36040  0.48080  1.0000 0.1095161324
H   H166      1.0  0.97720  0.63960  0.98080  1.0000 0.1095161324
H   H167      1.0  0.52280  0.13960  0.98080  1.0000 0.1095161324
H   H168      1.0  0.47720  0.86040  0.48080  1.0000 0.1095161324
C   C1        1.0  0.31710  0.13550  0.66020  1.0000 0.6713520308
C   C2        1.0  0.68290  0.86450  0.16020  1.0000 0.6713520308
C   C3        1.0  0.81710  0.36450  0.16020  1.0000 0.6713520308
C   C4        1.0  0.18290  0.63550  0.66020  1.0000 0.6713520308
C   C5        1.0  0.67060  0.19360  0.70770  1.0000 0.6602389533
C   C6        1.0  0.32940  0.80640  0.20770  1.0000 0.6602389533
C   C7        1.0  0.17060  0.30640  0.20770  1.0000 0.6602389533
C   C8        1.0  0.82940  0.69360  0.70770  1.0000 0.6602389533
C   C9        1.0  0.55640  0.13510  0.82700  1.0000 0.5840341915
C   C10       1.0  0.44360  0.86490  0.32700  1.0000 0.5840341915
C   C11       1.0  0.05640  0.36490  0.32700  1.0000 0.5840341915
C   C12       1.0  0.94360  0.63510  0.82700  1.0000 0.5840341915
C   C13       1.0  0.21990  0.11650  0.64580  1.0000 -0.1594885655
C   C14       1.0  0.78010  0.88350  0.14580  1.0000 -0.1594885655
C   C15       1.0  0.71990  0.38350  0.14580  1.0000 -0.1594885655
C   C16       1.0  0.28010  0.61650  0.64580  1.0000 -0.1594885655
C   C17       1.0  0.76770  0.21190  0.72300  1.0000 -0.1493828613
C   C18       1.0  0.23230  0.78810  0.22300  1.0000 -0.1493828613
C   C19       1.0  0.26770  0.28810  0.22300  1.0000 -0.1493828613
C   C20       1.0  0.73230  0.71190  0.72300  1.0000 -0.1493828613
C   C21       1.0  0.61700  0.13850  0.86590  1.0000 -0.1594885655
C   C22       1.0  0.38300  0.86150  0.36590  1.0000 -0.1594885655
C   C23       1.0  0.11700  0.36150  0.36590  1.0000 -0.1594885655
C   C24       1.0  0.88300  0.63850  0.86590  1.0000 -0.1594885655
C   C25       1.0  0.19720  0.11840  0.60210  1.0000 -0.1399710224
C   C26       1.0  0.80280  0.88160  0.10210  1.0000 -0.1399710224
C   C27       1.0  0.69720  0.38160  0.10210  1.0000 -0.1399710224
C   C28       1.0  0.30280  0.61840  0.60210  1.0000 -0.1399710224
C   C29       1.0  0.15060  0.09540  0.67620  1.0000 0.2185830046
C   C30       1.0  0.84940  0.90460  0.17620  1.0000 0.2185830046
C   C31       1.0  0.65060  0.40460  0.17620  1.0000 0.2185830046
C   C32       1.0  0.34940  0.59540  0.67620  1.0000 0.2185830046
C   C33       1.0  0.78640  0.20350  0.76640  1.0000 -0.1399710224
C   C34       1.0  0.21360  0.79650  0.26640  1.0000 -0.1399710224
C   C35       1.0  0.28640  0.29650  0.26640  1.0000 -0.1399710224
C   C36       1.0  0.71360  0.70350  0.76640  1.0000 -0.1399710224
C   C37       1.0  0.83940  0.23290  0.69270  1.0000 0.2114163749
C   C38       1.0  0.16060  0.76710  0.19270  1.0000 0.2114163749
C   C39       1.0  0.33940  0.26710  0.19270  1.0000 0.2114163749
C   C40       1.0  0.66060  0.73290  0.69270  1.0000 0.2114163749
C   C41       1.0  0.67450  0.08180  0.87380  1.0000 -0.1308247816
C   C42       1.0  0.32550  0.91820  0.37380  1.0000 -0.1308247816
C   C43       1.0  0.17450  0.41820  0.37380  1.0000 -0.1308247816
C   C44       1.0  0.82550  0.58180  0.87380  1.0000 -0.1308247816
C   C45       1.0  0.62110  0.19900  0.89420  1.0000 0.2114163749
C   C46       1.0  0.37890  0.80100  0.39420  1.0000 0.2114163749
C   C47       1.0  0.12110  0.30100  0.39420  1.0000 0.2114163749
C   C48       1.0  0.87890  0.69900  0.89420  1.0000 0.2114163749
C   C49       1.0  0.99520  0.36230  0.01910  1.0000 0.6179012675
C   C50       1.0  0.00480  0.63770  0.51910  1.0000 0.6179012675
C   C51       1.0  0.49520  0.13770  0.51910  1.0000 0.6179012675
C   C52       1.0  0.50480  0.86230  0.01910  1.0000 0.6179012675
C   C53       1.0  0.11000  0.10340  0.58720  1.0000 0.0501804385
C   C54       1.0  0.89000  0.89660  0.08720  1.0000 0.0501804385
C   C55       1.0  0.61000  0.39660  0.08720  1.0000 0.0501804385
C   C56       1.0  0.39000  0.60340  0.58720  1.0000 0.0501804385
C   C57       1.0  0.06200  0.07970  0.66190  1.0000 -0.0392800604
C   C58       1.0  0.93800  0.92030  0.16190  1.0000 -0.0392800604
C   C59       1.0  0.56200  0.42030  0.16190  1.0000 -0.0392800604
C   C60       1.0  0.43800  0.57970  0.66190  1.0000 -0.0392800604
C   C61       1.0  0.87780  0.21750  0.78300  1.0000 0.0405191955
C   C62       1.0  0.12220  0.78250  0.28300  1.0000 0.0405191955
C   C63       1.0  0.37780  0.28250  0.28300  1.0000 0.0405191955
C   C64       1.0  0.62220  0.71750  0.78300  1.0000 0.0405191955
C   C65       1.0  0.92820  0.24750  0.70740  1.0000 -0.0470330361
C   C66       1.0  0.07180  0.75250  0.20740  1.0000 -0.0470330361
C   C67       1.0  0.42820  0.25250  0.20740  1.0000 -0.0470330361
C   C68       1.0  0.57180  0.74750  0.70740  1.0000 -0.0470330361
C   C69       1.0  0.73370  0.08230  0.91160  1.0000 0.0501804385
C   C70       1.0  0.26630  0.91770  0.41160  1.0000 0.0501804385
C   C71       1.0  0.23370  0.41770  0.41160  1.0000 0.0501804385
C   C72       1.0  0.76630  0.58230  0.91160  1.0000 0.0501804385
C   C73       1.0  0.68360  0.20360  0.92810  1.0000 -0.0470330361
C   C74       1.0  0.31640  0.79640  0.42810  1.0000 -0.0470330361
C   C75       1.0  0.18360  0.29640  0.42810  1.0000 -0.0470330361
C   C76       1.0  0.81640  0.70360  0.92810  1.0000 -0.0470330361
C   C77       1.0  0.92940  0.35240  0.98100  1.0000 -0.1399710224
C   C78       1.0  0.07060  0.64760  0.48100  1.0000 -0.1399710224
C   C79       1.0  0.42940  0.14760  0.48100  1.0000 -0.1399710224
C   C80       1.0  0.57060  0.85240  0.98100  1.0000 -0.1399710224
C   C81       1.0  0.08920  0.10720  0.54180  1.0000 -0.1399710224
C   C82       1.0  0.91080  0.89280  0.04180  1.0000 -0.1399710224
C   C83       1.0  0.58920  0.39280  0.04180  1.0000 -0.1399710224
C   C84       1.0  0.41080  0.60720  0.54180  1.0000 -0.1399710224
C   C85       1.0  0.03910  0.08570  0.61770  1.0000 0.0405191955
C   C86       1.0  0.96090  0.91430  0.11770  1.0000 0.0405191955
C   C87       1.0  0.53910  0.41430  0.11770  1.0000 0.0405191955
C   C88       1.0  0.46090  0.58570  0.61770  1.0000 0.0405191955
C   C89       1.0  0.99000  0.05930  0.69690  1.0000 -0.2591949496
C   C90       1.0  0.01000  0.94070  0.19690  1.0000 -0.2591949496
C   C91       1.0  0.49000  0.44070  0.19690  1.0000 -0.2591949496
C   C92       1.0  0.51000  0.55930  0.69690  1.0000 -0.2591949496
C   C93       1.0  0.89660  0.20780  0.82700  1.0000 -0.1308247816
C   C94       1.0  0.10340  0.79220  0.32700  1.0000 -0.1308247816
C   C95       1.0  0.39660  0.29220  0.32700  1.0000 -0.1308247816
C   C96       1.0  0.60340  0.70780  0.82700  1.0000 -0.1308247816
C   C97       1.0  0.94860  0.23770  0.75340  1.0000 0.0501804385
C   C98       1.0  0.05140  0.76230  0.25340  1.0000 0.0501804385
C   C99       1.0  0.44860  0.26230  0.25340  1.0000 0.0501804385
C   C100      1.0  0.55140  0.73770  0.75340  1.0000 0.0501804385
C   C101      1.0  0.00050  0.26650  0.67390  1.0000 -0.2540305424
C   C102      1.0  0.99950  0.73350  0.17390  1.0000 -0.2540305424
C   C103      1.0  0.50050  0.23350  0.17390  1.0000 -0.2540305424
C   C104      1.0  0.49950  0.76650  0.67390  1.0000 -0.2540305424
C   C105      1.0  0.73860  0.14390  0.93780  1.0000 0.0405191955
C   C106      1.0  0.26140  0.85610  0.43780  1.0000 0.0405191955
C   C107      1.0  0.23860  0.35610  0.43780  1.0000 0.0405191955
C   C108      1.0  0.76140  0.64390  0.93780  1.0000 0.0405191955
C   C109      1.0  0.78700  0.02380  0.92200  1.0000 -0.1399710224
C   C110      1.0  0.21300  0.97620  0.42200  1.0000 -0.1399710224
C   C111      1.0  0.28700  0.47620  0.42200  1.0000 -0.1399710224
C   C112      1.0  0.71300  0.52380  0.92200  1.0000 -0.1399710224
C   C113      1.0  0.69240  0.27040  0.95480  1.0000 -0.2591949496
C   C114      1.0  0.30760  0.72960  0.45480  1.0000 -0.2591949496
C   C115      1.0  0.19240  0.22960  0.45480  1.0000 -0.2591949496
C   C116      1.0  0.80760  0.77040  0.95480  1.0000 -0.2591949496
C   C117      1.0  0.95550  0.37910  0.94130  1.0000 -0.1493828613
C   C118      1.0  0.04450  0.62090  0.44130  1.0000 -0.1493828613
C   C119      1.0  0.45550  0.12090  0.44130  1.0000 -0.1493828613
C   C120      1.0  0.54450  0.87910  0.94130  1.0000 -0.1493828613
C   C121      1.0  0.84200  0.31870  0.98520  1.0000 0.2114163749
C   C122      1.0  0.15800  0.68130  0.48520  1.0000 0.2114163749
C   C123      1.0  0.34200  0.18130  0.48520  1.0000 0.2114163749
C   C124      1.0  0.65800  0.81870  0.98520  1.0000 0.2114163749
C   C125      1.0  0.00320  0.09670  0.52700  1.0000 -0.1097596455
C   C126      1.0  0.99680  0.90330  0.02700  1.0000 -0.1097596455
C   C127      1.0  0.50320  0.40330  0.02700  1.0000 -0.1097596455
C   C128      1.0  0.49680  0.59670  0.52700  1.0000 -0.1097596455
C   C129      1.0  0.94840  0.07570  0.60040  1.0000 -0.1308247816
C   C130      1.0  0.05160  0.92430  0.10040  1.0000 -0.1308247816
C   C131      1.0  0.44840  0.42430  0.10040  1.0000 -0.1308247816
C   C132      1.0  0.55160  0.57570  0.60040  1.0000 -0.1308247816
C   C133      1.0  0.00130  0.98930  0.71920  1.0000 -0.0282971579
C   C134      1.0  0.99870  0.01070  0.21920  1.0000 -0.0282971579
C   C135      1.0  0.50130  0.51070  0.21920  1.0000 -0.0282971579
C   C136      1.0  0.49870  0.48930  0.71920  1.0000 -0.0282971579
C   C137      1.0  0.98490  0.21640  0.84270  1.0000 -0.1097596455
C   C138      1.0  0.01510  0.78360  0.34270  1.0000 -0.1097596455
C   C139      1.0  0.48490  0.28360  0.34270  1.0000 -0.1097596455
C   C140      1.0  0.51510  0.71640  0.84270  1.0000 -0.1097596455
C   C141      1.0  0.03920  0.24520  0.77130  1.0000 -0.1308247816
C   C142      1.0  0.96080  0.75480  0.27130  1.0000 -0.1308247816
C   C143      1.0  0.53920  0.25480  0.27130  1.0000 -0.1308247816
C   C144      1.0  0.46080  0.74520  0.77130  1.0000 -0.1308247816
C   C145      1.0  0.99240  0.33650  0.64970  1.0000 -0.0282971579
C   C146      1.0  0.00760  0.66350  0.14970  1.0000 -0.0282971579
C   C147      1.0  0.49240  0.16350  0.14970  1.0000 -0.0282971579
C   C148      1.0  0.50760  0.83650  0.64970  1.0000 -0.0282971579
C   C149      1.0  0.79730  0.14100  0.97510  1.0000 -0.1399710224
C   C150      1.0  0.20270  0.85900  0.47510  1.0000 -0.1399710224
C   C151      1.0  0.29730  0.35900  0.47510  1.0000 -0.1399710224
C   C152      1.0  0.70270  0.64100  0.97510  1.0000 -0.1399710224
C   C153      1.0  0.84400  0.02400  0.95770  1.0000 -0.1097596455
C   C154      1.0  0.15600  0.97600  0.45770  1.0000 -0.1097596455
C   C155      1.0  0.34400  0.47600  0.45770  1.0000 -0.1097596455
C   C156      1.0  0.65600  0.52400  0.95770  1.0000 -0.1097596455
C   C157      1.0  0.78340  0.31090  0.94880  1.0000 -0.0392800604
C   C158      1.0  0.21660  0.68910  0.44880  1.0000 -0.0392800604
C   C159      1.0  0.28340  0.18910  0.44880  1.0000 -0.0392800604
C   C160      1.0  0.71660  0.81090  0.94880  1.0000 -0.0392800604
C   C161      1.0  0.89710  0.37410  0.90400  1.0000 0.0501804385
C   C162      1.0  0.10290  0.62590  0.40400  1.0000 0.0501804385
C   C163      1.0  0.39710  0.12590  0.40400  1.0000 0.0501804385
C   C164      1.0  0.60290  0.87410  0.90400  1.0000 0.0501804385
C   C165      1.0  0.93030  0.08240  0.55750  1.0000 -0.0926918696
C   C166      1.0  0.06970  0.91760  0.05750  1.0000 -0.0926918696
C   C167      1.0  0.43030  0.41760  0.05750  1.0000 -0.0926918696
C   C168      1.0  0.56970  0.58240  0.55750  1.0000 -0.0926918696
C   C169      1.0  0.99420  0.98110  0.76510  1.0000 0.0405191955
C   C170      1.0  0.00580  0.01890  0.26510  1.0000 0.0405191955
C   C171      1.0  0.49420  0.51890  0.26510  1.0000 0.0405191955
C   C172      1.0  0.50580  0.48110  0.76510  1.0000 0.0405191955
C   C173      1.0  0.00850  0.92910  0.69250  1.0000 0.254400285
C   C174      1.0  0.99150  0.07090  0.19250  1.0000 0.254400285
C   C175      1.0  0.50850  0.57090  0.19250  1.0000 0.254400285
C   C176      1.0  0.49150  0.42910  0.69250  1.0000 0.2557445188
C   C177      1.0  0.05530  0.23430  0.81320  1.0000 -0.0926918696
C   C178      1.0  0.94470  0.76570  0.31320  1.0000 -0.0926918696
C   C179      1.0  0.55530  0.26570  0.31320  1.0000 -0.0926918696
C   C180      1.0  0.44470  0.73430  0.81320  1.0000 -0.0926918696
C   C181      1.0  0.99510  0.34210  0.60420  1.0000 0.0405191955
C   C182      1.0  0.00490  0.65790  0.10420  1.0000 0.0405191955
C   C183      1.0  0.49510  0.15790  0.10420  1.0000 0.0405191955
C   C184      1.0  0.50490  0.84210  0.60420  1.0000 0.0405191955
C   C185      1.0  0.99170  0.39810  0.67400  1.0000 0.2114163749
C   C186      1.0  0.00830  0.60190  0.17400  1.0000 0.2114163749
C   C187      1.0  0.49170  0.10190  0.17400  1.0000 0.2114163749
C   C188      1.0  0.50830  0.89810  0.67400  1.0000 0.2114163749
C   C189      1.0  0.84800  0.08070  0.98430  1.0000 -0.0979113227
C   C190      1.0  0.15200  0.91930  0.48430  1.0000 -0.0979113227
C   C191      1.0  0.34800  0.41930  0.48430  1.0000 -0.0979113227
C   C192      1.0  0.65200  0.58070  0.98430  1.0000 -0.0979113227
C   C193      1.0  0.81020  0.33970  0.90870  1.0000 0.0293175746
C   C194      1.0  0.18980  0.66030  0.40870  1.0000 0.0293175746
C   C195      1.0  0.31020  0.16030  0.40870  1.0000 0.0293175746
C   C196      1.0  0.68980  0.83970  0.90870  1.0000 0.0293175746
C   C197      1.0  0.92260  0.40290  0.86310  1.0000 -0.1399710224
C   C198      1.0  0.07740  0.59710  0.36310  1.0000 -0.1399710224
C   C199      1.0  0.42260  0.09710  0.36310  1.0000 -0.1399710224
C   C200      1.0  0.57740  0.90290  0.86310  1.0000 -0.1399710224
C   C201      1.0  0.98290  0.03810  0.79390  1.0000 -0.123733079
C   C202      1.0  0.01710  0.96190  0.29390  1.0000 -0.123733079
C   C203      1.0  0.48290  0.46190  0.29390  1.0000 -0.123733079
C   C204      1.0  0.51710  0.53810  0.79390  1.0000 -0.123733079
C   C205      1.0  0.99910  0.91290  0.78340  1.0000 0.0675650332
C   C206      1.0  0.00090  0.08710  0.28340  1.0000 0.0675650332
C   C207      1.0  0.49910  0.58710  0.28340  1.0000 0.0675650332
C   C208      1.0  0.50090  0.41290  0.78340  1.0000 0.0675650332
C   C209      1.0  0.01730  0.86050  0.71230  1.0000 -0.1594885655
C   C210      1.0  0.98270  0.13950  0.21230  1.0000 -0.1594885655
C   C211      1.0  0.51730  0.63950  0.21230  1.0000 -0.1594885655
C   C212      1.0  0.48270  0.36050  0.71230  1.0000 -0.1594885655
C   C213      1.0  0.99850  0.28310  0.57490  1.0000 -0.1399710224
C   C214      1.0  0.00150  0.71690  0.07490  1.0000 -0.1399710224
C   C215      1.0  0.49850  0.21690  0.07490  1.0000 -0.1399710224
C   C216      1.0  0.50150  0.78310  0.57490  1.0000 -0.1399710224
C   C217      1.0  0.99880  0.40880  0.58330  1.0000 0.0553515014
C   C218      1.0  0.00120  0.59120  0.08330  1.0000 0.0553515014
C   C219      1.0  0.49880  0.09120  0.08330  1.0000 0.0553515014
C   C220      1.0  0.50120  0.90880  0.58330  1.0000 0.0553515014
C   C221      1.0  0.99040  0.46450  0.65430  1.0000 -0.1493828613
C   C222      1.0  0.00960  0.53550  0.15430  1.0000 -0.1493828613
C   C223      1.0  0.49040  0.03550  0.15430  1.0000 -0.1493828613
C   C224      1.0  0.50960  0.96450  0.65430  1.0000 -0.1493828613
C   C225      1.0  0.75140  0.33990  0.87100  1.0000 -0.1493828613
C   C226      1.0  0.24860  0.66010  0.37100  1.0000 -0.1493828613
C   C227      1.0  0.25140  0.16010  0.37100  1.0000 -0.1493828613
C   C228      1.0  0.74860  0.83990  0.87100  1.0000 -0.1493828613
C   C229      1.0  0.86700  0.39900  0.82820  1.0000 -0.0845594834
C   C230      1.0  0.13300  0.60100  0.32820  1.0000 -0.0845594834
C   C231      1.0  0.36700  0.10100  0.32820  1.0000 -0.0845594834
C   C232      1.0  0.63300  0.89900  0.82820  1.0000 -0.0845594834
C   C233      1.0  0.97600  0.02640  0.83800  1.0000 -0.1097596455
C   C234      1.0  0.02400  0.97360  0.33800  1.0000 -0.1097596455
C   C235      1.0  0.47600  0.47360  0.33800  1.0000 -0.1097596455
C   C236      1.0  0.52400  0.52640  0.83800  1.0000 -0.1097596455
C   C237      1.0  0.99160  0.90500  0.82990  1.0000 -0.1493828613
C   C238      1.0  0.00840  0.09500  0.32990  1.0000 -0.1493828613
C   C239      1.0  0.49160  0.59500  0.32990  1.0000 -0.1493828613
C   C240      1.0  0.50840  0.40500  0.82990  1.0000 -0.1493828613
C   C241      1.0  0.01010  0.85410  0.75570  1.0000 -0.1308247816
C   C242      1.0  0.98990  0.14590  0.25570  1.0000 -0.1308247816
C   C243      1.0  0.51010  0.64590  0.25570  1.0000 -0.1308247816
C   C244      1.0  0.48990  0.35410  0.75570  1.0000 -0.1308247816
C   C245      1.0  0.02480  0.79800  0.68490  1.0000 0.6487757881
C   C246      1.0  0.97520  0.20200  0.18490  1.0000 0.6487757881
C   C247      1.0  0.52480  0.70200  0.18490  1.0000 0.6487757881
C   C248      1.0  0.47520  0.29800  0.68490  1.0000 0.6487757881
C   C249      1.0  0.00930  0.28990  0.53170  1.0000 -0.0926918696
C   C250      1.0  0.99070  0.71010  0.03170  1.0000 -0.0926918696
C   C251      1.0  0.50930  0.21010  0.03170  1.0000 -0.0926918696
C   C252      1.0  0.49070  0.78990  0.53170  1.0000 -0.0926918696
C   C253      1.0  0.00670  0.41440  0.53820  1.0000 -0.1308247816
C   C254      1.0  0.99330  0.58560  0.03820  1.0000 -0.1308247816
C   C255      1.0  0.50670  0.08560  0.03820  1.0000 -0.1308247816
C   C256      1.0  0.49330  0.91440  0.53820  1.0000 -0.1308247816
C   C257      1.0  0.99410  0.46850  0.60970  1.0000 -0.1308247816
C   C258      1.0  0.00590  0.53150  0.10970  1.0000 -0.1308247816
C   C259      1.0  0.49410  0.03150  0.10970  1.0000 -0.1308247816
C   C260      1.0  0.50590  0.96850  0.60970  1.0000 -0.1308247816
C   C261      1.0  0.99000  0.53030  0.68100  1.0000 0.6602389533
C   C262      1.0  0.01000  0.46970  0.18100  1.0000 0.6602389533
C   C263      1.0  0.49000  0.96970  0.18100  1.0000 0.6602389533
C   C264      1.0  0.51000  0.03030  0.68100  1.0000 0.6602389533
C   C265      1.0  0.78070  0.36830  0.83290  1.0000 -0.0979113227
C   C266      1.0  0.21930  0.63170  0.33290  1.0000 -0.0979113227
C   C267      1.0  0.28070  0.13170  0.33290  1.0000 -0.0979113227
C   C268      1.0  0.71930  0.86830  0.83290  1.0000 -0.0979113227
C   C269      1.0  0.97950  0.96020  0.85630  1.0000 -0.0926918696
C   C270      1.0  0.02050  0.03980  0.35630  1.0000 -0.0926918696
C   C271      1.0  0.47950  0.53980  0.35630  1.0000 -0.0979113227
C   C272      1.0  0.52050  0.46020  0.85630  1.0000 -0.0926918696
C   C273      1.0  0.01460  0.35610  0.51090  1.0000 -0.0979113227
C   C274      1.0  0.98540  0.64390  0.01090  1.0000 -0.0979113227
C   C275      1.0  0.51460  0.14390  0.01090  1.0000 -0.0979113227
C   C276      1.0  0.48540  0.85610  0.51090  1.0000 -0.0979113227
O   O1        1.0  0.34040  0.12024  0.69900  1.0000 -0.7013808991
O   O2        1.0  0.65960  0.87976  0.19900  1.0000 -0.7013808991
O   O3        1.0  0.84040  0.37976  0.19900  1.0000 -0.7013808991
O   O4        1.0  0.15960  0.62024  0.69900  1.0000 -0.7013808991
O   O5        1.0  0.61670  0.16780  0.73385  1.0000 -0.5896307722
O   O6        1.0  0.38330  0.83220  0.23385  1.0000 -0.5896307722
O   O7        1.0  0.11670  0.33220  0.23385  1.0000 -0.5896307722
O   O8        1.0  0.88330  0.66780  0.73385  1.0000 -0.5896307722
O   O9        1.0  0.55310  0.08212  0.80315  1.0000 -0.5896307722
O   O10       1.0  0.44690  0.91788  0.30315  1.0000 -0.5896307722
O   O11       1.0  0.05310  0.41788  0.30315  1.0000 -0.5896307722
O   O12       1.0  0.94690  0.58212  0.80315  1.0000 -0.5838211756
O   O13       1.0  0.50820  0.19060  0.81640  1.0000 -0.7013808991
O   O14       1.0  0.49180  0.80940  0.31640  1.0000 -0.7013808991
O   O15       1.0  0.00820  0.30940  0.31640  1.0000 -0.7013808991
O   O16       1.0  0.99180  0.69060  0.81640  1.0000 -0.7013808991
O   O17       1.0  0.02980  0.73660  0.70156  1.0000 -0.7568107228
O   O18       1.0  0.97020  0.26340  0.20156  1.0000 -0.7568107228
O   O19       1.0  0.52980  0.76340  0.20156  1.0000 -0.7568107228
O   O20       1.0  0.47020  0.23660  0.70156  1.0000 -0.7568107228
O   O21       1.0  0.00170  0.52714  0.72169  1.0000 -0.6263436358
O   O22       1.0  0.99830  0.47286  0.22169  1.0000 -0.6263436358
O   O23       1.0  0.50170  0.97286  0.22169  1.0000 -0.6263436358
O   O24       1.0  0.49830  0.02714  0.72169  1.0000 -0.6263436358
O   O25       1.0  0.36890  0.16590  0.63210  1.0000 -0.6519294064
O   O26       1.0  0.63110  0.83410  0.13210  1.0000 -0.6519294064
O   O27       1.0  0.86890  0.33410  0.13210  1.0000 -0.6519294064
O   O28       1.0  0.13110  0.66590  0.63210  1.0000 -0.6519294064
O   O29       1.0  0.65030  0.20850  0.66744  1.0000 -0.7294783275
O   O30       1.0  0.34970  0.79150  0.16744  1.0000 -0.7294783275
O   O31       1.0  0.15030  0.29150  0.16744  1.0000 -0.7294783275
O   O32       1.0  0.84970  0.70850  0.66744  1.0000 -0.7294783275
O   O33       1.0  0.96700  0.33900  0.05599  1.0000 -0.7294783275
O   O34       1.0  0.03300  0.66100  0.55599  1.0000 -0.7294783275
O   O35       1.0  0.46700  0.16100  0.55599  1.0000 -0.7294783275
O   O36       1.0  0.53300  0.83900  0.05599  1.0000 -0.7294783275
O   O37       1.0  0.02100  0.80270  0.64316  1.0000 -0.6519294064
O   O38       1.0  0.97900  0.19730  0.14316  1.0000 -0.6519294064
O   O39       1.0  0.52100  0.69730  0.14316  1.0000 -0.6519294064
O   O40       1.0  0.47900  0.30270  0.64316  1.0000 -0.6519294064
O   O41       1.0  0.16900  0.09040  0.71935  1.0000 -0.4079256486
O   O42       1.0  0.83100  0.90960  0.21935  1.0000 -0.4079256486
O   O43       1.0  0.66900  0.40960  0.21935  1.0000 -0.4079256486
O   O44       1.0  0.33100  0.59040  0.71935  1.0000 -0.4079256486
O   O45       1.0  0.82220  0.23910  0.64908  1.0000 -0.4185880701
O   O46       1.0  0.17780  0.76090  0.14908  1.0000 -0.4185880701
O   O47       1.0  0.32220  0.26090  0.14908  1.0000 -0.4185880701
O   O48       1.0  0.67780  0.73910  0.64908  1.0000 -0.4185880701
O   O49       1.0  0.56150  0.25220  0.88661  1.0000 -0.4283014368
O   O50       1.0  0.43850  0.74780  0.38661  1.0000 -0.4283014368
O   O51       1.0  0.06150  0.24780  0.38661  1.0000 -0.4283014368
O   O52       1.0  0.93850  0.75220  0.88661  1.0000 -0.4283014368
O   O53       1.0  0.07070  0.38890  0.01329  1.0000 -0.5015043448
O   O54       1.0  0.92930  0.61110  0.51329  1.0000 -0.5015043448
O   O55       1.0  0.57070  0.11110  0.51329  1.0000 -0.5015043448
O   O56       1.0  0.42930  0.88890  0.01329  1.0000 -0.5015043448
O   O57       1.0  0.81450  0.29260  0.02424  1.0000 -0.4079256486
O   O58       1.0  0.18550  0.70740  0.52424  1.0000 -0.4079256486
O   O59       1.0  0.31450  0.20740  0.52424  1.0000 -0.4079256486
O   O60       1.0  0.68550  0.79260  0.02424  1.0000 -0.4079256486
O   O61       1.0  0.00690  0.93610  0.64921  1.0000 -0.4079256486
O   O62       1.0  0.99310  0.06390  0.14921  1.0000 -0.4079256486
O   O63       1.0  0.50690  0.56390  0.14921  1.0000 -0.4079256486
O   O64       1.0  0.49310  0.43610  0.64921  1.0000 -0.4079256486
O   O65       1.0  0.99410  0.39151  0.71860  1.0000 -0.4411622565
O   O66       1.0  0.00590  0.60849  0.21860  1.0000 -0.4411622565
O   O67       1.0  0.49410  0.10849  0.21860  1.0000 -0.4411622565
O   O68       1.0  0.50590  0.89151  0.71860  1.0000 -0.4411622565
O   O69       1.0  0.97890  0.58852  0.66244  1.0000 -0.7294783275
O   O70       1.0  0.02110  0.41148  0.16244  1.0000 -0.7294783275
O   O71       1.0  0.47890  0.91148  0.16244  1.0000 -0.7294783275
O   O72       1.0  0.52110  0.08852  0.66244  1.0000 -0.7294783275
