# DDEC6 charges by PACMAN v1.1 (https://github.com/mtap-research/PACMAN-charge/)
data_2015[EuTb][nan]3[ASR]3
_chemical_formula_sum              "Tb6 Eu2 H56 C120 O48"
_cell_length_a       13.029
_cell_length_b       13.828
_cell_length_c       28.021
_cell_angle_alpha    75.72
_cell_angle_beta     79.23
_cell_angle_gamma    85.59

_symmetry_space_group_name_H-M    "P 1"
_symmetry_Int_Tables_number       1

loop_
  _symmetry_equiv_pos_as_xyz
  'x, y, z'

loop_
  _atom_site_type_symbol
  _atom_site_label
  _atom_site_symmetry_multiplicity
  _atom_site_fract_x
  _atom_site_fract_y
  _atom_site_fract_z
  _atom_site_occupancy
  _atom_site_charge
Tb  Tb1       1.0  0.03079  0.87523  0.06044  1.0000 2.0800879872
Tb  Tb2       1.0  0.96921  0.12477  0.93956  1.0000 2.0800879872
Tb  Tb3       1.0  0.88013  0.02129  0.55403  1.0000 2.0617137826
Tb  Tb4       1.0  0.11987  0.97871  0.44597  1.0000 2.0617137826
Tb  Tb5       1.0  0.47153  0.53760  0.41498  1.0000 2.0617137826
Tb  Tb6       1.0  0.52847  0.46240  0.58502  1.0000 2.0678635514
Eu  Eu1       1.0  0.51687  0.48081  0.91415  1.0000 2.0913284696
Eu  Eu2       1.0  0.48313  0.51919  0.08585  1.0000 2.0913284696
H   H1        1.0  0.72390  0.74500  0.51500  1.0000 0.1302921583
H   H2        1.0  0.27610  0.25500  0.48500  1.0000 0.1302921583
H   H3        1.0  0.72590  0.66700  0.38650  1.0000 0.1180220864
H   H4        1.0  0.27410  0.33300  0.61350  1.0000 0.1180220864
H   H5        1.0  0.91790  0.87860  0.39090  1.0000 0.1302921583
H   H6        1.0  0.08210  0.12140  0.60910  1.0000 0.1302921583
H   H7        1.0  0.00270  0.85250  0.32100  1.0000 0.1102958677
H   H8        1.0  0.99730  0.14750  0.67900  1.0000 0.1102958677
H   H9        1.0  0.05830  0.87480  0.23530  1.0000 0.1180220864
H   H10       1.0  0.94170  0.12520  0.76470  1.0000 0.1180220864
H   H11       1.0  0.80860  0.73860  0.22520  1.0000 0.1180220864
H   H12       1.0  0.19140  0.26140  0.77480  1.0000 0.1180220864
H   H13       1.0  0.75230  0.71710  0.31020  1.0000 0.1180220864
H   H14       1.0  0.24770  0.28290  0.68980  1.0000 0.1180220864
H   H15       1.0  0.74970  0.27130  0.43720  1.0000 0.1302921583
H   H16       1.0  0.25030  0.72870  0.56280  1.0000 0.1354175187
H   H17       1.0  0.02620  0.26140  0.34610  1.0000 0.1180220864
H   H18       1.0  0.97380  0.73860  0.65390  1.0000 0.1180220864
H   H19       1.0  0.81530  0.48050  0.30970  1.0000 0.1102958677
H   H20       1.0  0.18470  0.51950  0.69030  1.0000 0.1102958677
H   H21       1.0  0.96800  0.56820  0.27590  1.0000 0.1102958677
H   H22       1.0  0.03200  0.43180  0.72410  1.0000 0.1102958677
H   H23       1.0  0.09530  0.64440  0.21230  1.0000 0.1102958677
H   H24       1.0  0.90470  0.35560  0.78770  1.0000 0.1102958677
H   H25       1.0  0.20680  0.37560  0.19410  1.0000 0.1102958677
H   H26       1.0  0.79320  0.62440  0.80590  1.0000 0.1102958677
H   H27       1.0  0.07860  0.30010  0.25900  1.0000 0.1102958677
H   H28       1.0  0.92140  0.69990  0.74100  1.0000 0.1102958677
H   H29       1.0  0.73870  0.23960  0.05750  1.0000 0.1302921583
H   H30       1.0  0.26130  0.76040  0.94250  1.0000 0.1302921583
H   H31       1.0  0.54520  0.18290  0.18920  1.0000 0.1102958677
H   H32       1.0  0.45480  0.81710  0.81080  1.0000 0.1102958677
H   H33       1.0  0.75810  0.97520  0.15420  1.0000 0.1180220864
H   H34       1.0  0.24190  0.02480  0.84580  1.0000 0.1180220864
H   H35       1.0  0.62430  0.87230  0.20100  1.0000 0.1102958677
H   H36       1.0  0.37570  0.12770  0.79900  1.0000 0.1102958677
H   H37       1.0  0.55890  0.76020  0.27490  1.0000 0.1180220864
H   H38       1.0  0.44110  0.23980  0.72510  1.0000 0.1180220864
H   H39       1.0  0.49570  0.98290  0.34430  1.0000 0.1180220864
H   H40       1.0  0.50430  0.01710  0.65570  1.0000 0.1180220864
H   H41       1.0  0.56040  0.09550  0.27080  1.0000 0.1102958677
H   H42       1.0  0.43960  0.90450  0.72920  1.0000 0.1102958677
H   H43       1.0  0.74560  0.72960  0.01370  1.0000 0.1180220864
H   H44       1.0  0.25440  0.27040  0.98630  1.0000 0.1180220864
H   H45       1.0  0.86340  0.92500  0.88790  1.0000 0.1302921583
H   H46       1.0  0.13660  0.07500  0.11210  1.0000 0.1302921583
H   H47       1.0  0.67880  0.71050  0.88150  1.0000 0.1102958677
H   H48       1.0  0.32120  0.28950  0.11850  1.0000 0.1102958677
H   H49       1.0  0.65050  0.82300  0.81020  1.0000 0.1102958677
H   H50       1.0  0.34950  0.17700  0.18980  1.0000 0.1102958677
H   H51       1.0  0.67430  0.87880  0.72450  1.0000 0.1180220864
H   H52       1.0  0.32570  0.12120  0.27550  1.0000 0.1180220864
H   H53       1.0  0.96320  0.95650  0.72380  1.0000 0.1102958677
H   H54       1.0  0.03680  0.04350  0.27620  1.0000 0.1102958677
H   H55       1.0  0.93660  0.90790  0.81030  1.0000 0.1102958677
H   H56       1.0  0.06340  0.09210  0.18970  1.0000 0.1102958677
C   C1        1.0  0.82520  0.82350  0.45730  1.0000 -0.0183645431
C   C2        1.0  0.17480  0.17650  0.54270  1.0000 -0.0183645431
C   C3        1.0  0.75050  0.75240  0.48110  1.0000 -0.0990340076
C   C4        1.0  0.24950  0.24760  0.51890  1.0000 -0.0990340076
C   C5        1.0  0.71570  0.69290  0.45500  1.0000 -0.0183645431
C   C6        1.0  0.28430  0.30710  0.54500  1.0000 -0.0183645431
C   C7        1.0  0.75200  0.70530  0.40430  1.0000 -0.1408215797
C   C8        1.0  0.24800  0.29470  0.59570  1.0000 -0.1408215797
C   C9        1.0  0.82890  0.77620  0.37930  1.0000 0.0775934584
C   C10       1.0  0.17110  0.22380  0.62070  1.0000 0.0775934584
C   C11       1.0  0.86570  0.83330  0.40660  1.0000 -0.1567603501
C   C12       1.0  0.13430  0.16670  0.59340  1.0000 -0.1567603501
C   C13       1.0  0.86710  0.78820  0.32400  1.0000 0.0701194606
C   C14       1.0  0.13290  0.21180  0.67600  1.0000 0.0701194606
C   C15       1.0  0.96160  0.83190  0.30180  1.0000 -0.1501521641
C   C16       1.0  0.03840  0.16810  0.69820  1.0000 -0.1501521641
C   C17       1.0  0.99490  0.84480  0.25020  1.0000 -0.0990340076
C   C18       1.0  0.00510  0.15520  0.74980  1.0000 -0.0990340076
C   C19       1.0  0.93630  0.81430  0.22120  1.0000 -0.0134606568
C   C20       1.0  0.06370  0.18570  0.77880  1.0000 -0.0134606568
C   C21       1.0  0.84680  0.76410  0.24400  1.0000 -0.0990340076
C   C22       1.0  0.15320  0.23590  0.75600  1.0000 -0.0990340076
C   C23       1.0  0.81310  0.75140  0.29520  1.0000 -0.1408215797
C   C24       1.0  0.18690  0.24860  0.70480  1.0000 -0.1408215797
C   C25       1.0  0.85930  0.88870  0.48670  1.0000 0.6291589118
C   C26       1.0  0.14070  0.11130  0.51330  1.0000 0.6291589118
C   C27       1.0  0.63990  0.61210  0.48170  1.0000 0.6709338254
C   C28       1.0  0.36010  0.38790  0.51830  1.0000 0.6709338254
C   C29       1.0  0.97280  0.83040  0.16530  1.0000 0.5619105078
C   C30       1.0  0.02720  0.16960  0.83470  1.0000 0.5619105078
C   C31       1.0  0.76620  0.38270  0.37490  1.0000 -0.0134606568
C   C32       1.0  0.23380  0.61730  0.62510  1.0000 -0.0183645431
C   C33       1.0  0.79540  0.29810  0.40800  1.0000 -0.0990340076
C   C34       1.0  0.20460  0.70190  0.59200  1.0000 -0.0990340076
C   C35       1.0  0.89440  0.25260  0.39750  1.0000 -0.0295010339
C   C36       1.0  0.10560  0.74740  0.60250  1.0000 -0.0295010339
C   C37       1.0  0.96130  0.29270  0.35340  1.0000 -0.1408215797
C   C38       1.0  0.03870  0.70730  0.64660  1.0000 -0.1408215797
C   C39       1.0  0.93340  0.37900  0.31960  1.0000 0.0598300486
C   C40       1.0  0.06660  0.62100  0.68040  1.0000 0.0598300486
C   C41       1.0  0.83530  0.42280  0.33140  1.0000 -0.1501521641
C   C42       1.0  0.16470  0.57720  0.66860  1.0000 -0.1501521641
C   C43       1.0  0.01090  0.42620  0.27520  1.0000 0.0701194606
C   C44       1.0  0.98910  0.57380  0.72480  1.0000 0.0701194606
C   C45       1.0  0.01700  0.52880  0.25990  1.0000 -0.1501521641
C   C46       1.0  0.98300  0.47120  0.74010  1.0000 -0.1501521641
C   C47       1.0  0.09340  0.57510  0.22150  1.0000 -0.0937239299
C   C48       1.0  0.90660  0.42490  0.77850  1.0000 -0.0937239299
C   C49       1.0  0.16770  0.51770  0.19660  1.0000 -0.0295010339
C   C50       1.0  0.83230  0.48230  0.80340  1.0000 -0.0295010339
C   C51       1.0  0.15970  0.41520  0.21080  1.0000 -0.0937239299
C   C52       1.0  0.84030  0.58480  0.78920  1.0000 -0.0990340076
C   C53       1.0  0.08200  0.36940  0.25000  1.0000 -0.1567603501
C   C54       1.0  0.91800  0.63060  0.75000  1.0000 -0.1567603501
C   C55       1.0  0.66070  0.43250  0.38590  1.0000 0.5710726506
C   C56       1.0  0.33930  0.56750  0.61410  1.0000 0.5710726506
C   C57       1.0  0.92980  0.16370  0.43480  1.0000 0.6501009342
C   C58       1.0  0.07020  0.83630  0.56520  1.0000 0.6501009342
C   C59       1.0  0.25640  0.56470  0.15860  1.0000 0.6006771899
C   C60       1.0  0.74360  0.43530  0.84140  1.0000 0.6006771899
C   C61       1.0  0.76250  0.10260  0.10010  1.0000 -0.0295010339
C   C62       1.0  0.23750  0.89740  0.89990  1.0000 -0.0295010339
C   C63       1.0  0.71520  0.19630  0.08810  1.0000 -0.0990340076
C   C64       1.0  0.28480  0.80370  0.91190  1.0000 -0.0990340076
C   C65       1.0  0.63310  0.22690  0.12110  1.0000 -0.0134606568
C   C66       1.0  0.36690  0.77310  0.87890  1.0000 -0.0183645431
C   C67       1.0  0.59910  0.16220  0.16670  1.0000 -0.1501521641
C   C68       1.0  0.40090  0.83780  0.83330  1.0000 -0.1501521641
C   C69       1.0  0.64360  0.06690  0.17960  1.0000 0.0523242332
C   C70       1.0  0.35640  0.93310  0.82040  1.0000 0.0523242332
C   C71       1.0  0.72660  0.03830  0.14590  1.0000 -0.1408215797
C   C72       1.0  0.27340  0.96170  0.85410  1.0000 -0.1408215797
C   C73       1.0  0.60170  0.99550  0.22770  1.0000 0.0598300486
C   C74       1.0  0.39830  0.00450  0.77230  1.0000 0.0598300486
C   C75       1.0  0.59920  0.89540  0.22970  1.0000 -0.1567603501
C   C76       1.0  0.40080  0.10460  0.77030  1.0000 -0.1567603501
C   C77       1.0  0.55920  0.82780  0.27420  1.0000 -0.0937239299
C   C78       1.0  0.44080  0.17220  0.72580  1.0000 -0.0937239299
C   C79       1.0  0.52030  0.86040  0.31710  1.0000 -0.0295010339
C   C80       1.0  0.47970  0.13960  0.68290  1.0000 -0.0295010339
C   C81       1.0  0.52150  0.96020  0.31560  1.0000 -0.0990340076
C   C82       1.0  0.47850  0.03980  0.68440  1.0000 -0.0937239299
C   C83       1.0  0.56100  0.02790  0.27140  1.0000 -0.1501521641
C   C84       1.0  0.43900  0.97210  0.72860  1.0000 -0.1567603501
C   C85       1.0  0.84920  0.06840  0.06370  1.0000 0.6501009342
C   C86       1.0  0.15080  0.93160  0.93630  1.0000 0.6501009342
C   C87       1.0  0.58080  0.32760  0.10770  1.0000 0.5710726506
C   C88       1.0  0.41920  0.67240  0.89230  1.0000 0.5710726506
C   C89       1.0  0.48110  0.78430  0.36500  1.0000 0.6006771899
C   C90       1.0  0.51890  0.21570  0.63500  1.0000 0.6006771899
C   C91       1.0  0.69850  0.70790  0.95230  1.0000 -0.0433755093
C   C92       1.0  0.30150  0.29210  0.04770  1.0000 -0.0433755093
C   C93       1.0  0.75180  0.75350  0.97920  1.0000 -0.0990340076
C   C94       1.0  0.24820  0.24650  0.02080  1.0000 -0.0990340076
C   C95       1.0  0.81440  0.83490  0.95480  1.0000 -0.0295010339
C   C96       1.0  0.18560  0.16510  0.04520  1.0000 -0.0295010339
C   C97       1.0  0.82370  0.86930  0.90390  1.0000 -0.1408215797
C   C98       1.0  0.17630  0.13070  0.09610  1.0000 -0.1408215797
C   C99       1.0  0.77560  0.82350  0.87550  1.0000 0.0598300486
C   C100      1.0  0.22440  0.17650  0.12450  1.0000 0.0598300486
C   C101      1.0  0.71200  0.74190  0.89990  1.0000 -0.1408215797
C   C102      1.0  0.28800  0.25810  0.10010  1.0000 -0.1408215797
C   C103      1.0  0.79030  0.85900  0.81990  1.0000 0.0701194606
C   C104      1.0  0.20970  0.14100  0.18010  1.0000 0.0701194606
C   C105      1.0  0.71350  0.85100  0.79310  1.0000 -0.1501521641
C   C106      1.0  0.28650  0.14900  0.20690  1.0000 -0.1501521641
C   C107      1.0  0.72780  0.88360  0.74150  1.0000 -0.0937239299
C   C108      1.0  0.27220  0.11640  0.25850  1.0000 -0.0937239299
C   C109      1.0  0.82210  0.92340  0.71530  1.0000 -0.0134606568
C   C110      1.0  0.17790  0.07660  0.28470  1.0000 -0.0134606568
C   C111      1.0  0.89930  0.93080  0.74120  1.0000 -0.0990340076
C   C112      1.0  0.10070  0.06920  0.25880  1.0000 -0.0990340076
C   C113      1.0  0.88390  0.90040  0.79330  1.0000 -0.1501521641
C   C114      1.0  0.11610  0.09960  0.20670  1.0000 -0.1501521641
C   C115      1.0  0.63040  0.62330  0.97900  1.0000 0.6709338254
C   C116      1.0  0.36960  0.37670  0.02100  1.0000 0.6709338254
C   C117      1.0  0.87270  0.88030  0.98490  1.0000 0.6501009342
C   C118      1.0  0.12730  0.11970  0.01510  1.0000 0.6501009342
C   C119      1.0  0.83940  0.96160  0.65910  1.0000 0.5619105078
C   C120      1.0  0.16060  0.03840  0.34090  1.0000 0.5619105078
O   O1        1.0  0.94580  0.93190  0.47203  1.0000 -0.7401109063
O   O2        1.0  0.05420  0.06810  0.52797  1.0000 -0.7401109063
O   O3        1.0  0.79900  0.89960  0.52606  1.0000 -0.6187336021
O   O4        1.0  0.20100  0.10040  0.47394  1.0000 -0.6187336021
O   O5        1.0  0.60040  0.56800  0.45629  1.0000 -0.6834393664
O   O6        1.0  0.39960  0.43200  0.54371  1.0000 -0.6834393664
O   O7        1.0  0.62370  0.59070  0.52874  1.0000 -0.6834393664
O   O8        1.0  0.37630  0.40930  0.47126  1.0000 -0.6834393664
O   O9        1.0  0.04550  0.88930  0.14445  1.0000 -0.633194583
O   O10       1.0  0.95450  0.11070  0.85555  1.0000 -0.633194583
O   O11       1.0  0.93160  0.78600  0.14063  1.0000 -0.6099940065
O   O12       1.0  0.06840  0.21400  0.85937  1.0000 -0.6099940065
O   O13       1.0  0.63930  0.51630  0.35791  1.0000 -0.6511076712
O   O14       1.0  0.36070  0.48370  0.64209  1.0000 -0.6511076712
O   O15       1.0  0.59540  0.39210  0.42319  1.0000 -0.6099940065
O   O16       1.0  0.40460  0.60790  0.57681  1.0000 -0.6099940065
O   O17       1.0  0.86900  0.13450  0.47604  1.0000 -0.6834393664
O   O18       1.0  0.13100  0.86550  0.52396  1.0000 -0.6834393664
O   O19       1.0  0.01890  0.12660  0.42223  1.0000 -0.6511076712
O   O20       1.0  0.98110  0.87340  0.57777  1.0000 -0.6511076712
O   O21       1.0  0.26090  0.65870  0.14699  1.0000 -0.539338591
O   O22       1.0  0.73910  0.34130  0.85301  1.0000 -0.5494929873
O   O23       1.0  0.32530  0.50800  0.14124  1.0000 -0.7007420484
O   O24       1.0  0.67470  0.49200  0.85876  1.0000 -0.7007420484
O   O25       1.0  0.88930  0.98330  0.07775  1.0000 -0.6511076712
O   O26       1.0  0.11070  0.01670  0.92225  1.0000 -0.6511076712
O   O27       1.0  0.87610  0.12770  0.02161  1.0000 -0.6897210055
O   O28       1.0  0.12390  0.87230  0.97839  1.0000 -0.6897210055
O   O29       1.0  0.50410  0.35150  0.13867  1.0000 -0.6604338013
O   O30       1.0  0.49590  0.64850  0.86133  1.0000 -0.6604338013
O   O31       1.0  0.61250  0.38680  0.06702  1.0000 -0.6187336021
O   O32       1.0  0.38750  0.61320  0.93298  1.0000 -0.6187336021
O   O33       1.0  0.49040  0.69420  0.36318  1.0000 -0.7007420484
O   O34       1.0  0.50960  0.30580  0.63682  1.0000 -0.7007420484
O   O35       1.0  0.44400  0.81450  0.40330  1.0000 -0.5347302877
O   O36       1.0  0.55600  0.18550  0.59670  1.0000 -0.539338591
O   O37       1.0  0.59700  0.57250  0.95454  1.0000 -0.6897210055
O   O38       1.0  0.40300  0.42750  0.04546  1.0000 -0.6897210055
O   O39       1.0  0.61100  0.60680  0.02551  1.0000 -0.7007420484
O   O40       1.0  0.38900  0.39320  0.97449  1.0000 -0.7007420484
O   O41       1.0  0.90120  0.96840  0.96693  1.0000 -0.7130446755
O   O42       1.0  0.09880  0.03160  0.03307  1.0000 -0.7130446755
O   O43       1.0  0.89360  0.82710  0.02533  1.0000 -0.6371347033
O   O44       1.0  0.10640  0.17290  0.97467  1.0000 -0.6371347033
O   O45       1.0  0.77840  0.93620  0.63536  1.0000 -0.6099940065
O   O46       1.0  0.22160  0.06380  0.36464  1.0000 -0.6099940065
O   O47       1.0  0.91350  0.01790  0.63796  1.0000 -0.633194583
O   O48       1.0  0.08650  0.98210  0.36204  1.0000 -0.633194583
