# DDEC6 charges by PACMAN v1.1 (https://github.com/mtap-research/PACMAN-charge/)
data_2015[Eu][sra]3[ASR]2
_chemical_formula_sum              "Eu4 H64 C96 N4 O32"
_cell_length_a       10.979
_cell_length_b       16.6505
_cell_length_c       19.3795
_cell_angle_alpha    90
_cell_angle_beta     90
_cell_angle_gamma    90

_symmetry_space_group_name_H-M    "P 1"
_symmetry_Int_Tables_number       1

loop_
  _symmetry_equiv_pos_as_xyz
  'x, y, z'

loop_
  _atom_site_type_symbol
  _atom_site_label
  _atom_site_symmetry_multiplicity
  _atom_site_fract_x
  _atom_site_fract_y
  _atom_site_fract_z
  _atom_site_occupancy
  _atom_site_charge
Eu  Eu1       1.0  0.28799  0.25000  0.70364  1.0000 2.0496471079
Eu  Eu2       1.0  0.21201  0.75000  0.20364  1.0000 2.0496471079
Eu  Eu3       1.0  0.78799  0.25000  0.79636  1.0000 2.0496471079
Eu  Eu4       1.0  0.71201  0.75000  0.29636  1.0000 2.0496471079
H   H1        1.0  0.35720  0.25000  0.19580  1.0000 0.3699427994
H   H2        1.0  0.14280  0.75000  0.69580  1.0000 0.3699427994
H   H3        1.0  0.85720  0.25000  0.30420  1.0000 0.3699427994
H   H4        1.0  0.64280  0.75000  0.80420  1.0000 0.3699427994
H   H5        1.0  0.96100  0.25000  0.96330  1.0000 0.1379618199
H   H6        1.0  0.53900  0.75000  0.46330  1.0000 0.1379618199
H   H7        1.0  0.46100  0.25000  0.53670  1.0000 0.1379618199
H   H8        1.0  0.03900  0.75000  0.03670  1.0000 0.1379618199
H   H9        1.0  0.01910  0.25000  0.07790  1.0000 0.1214967446
H   H10       1.0  0.48090  0.75000  0.57790  1.0000 0.1214967446
H   H11       1.0  0.51910  0.25000  0.42210  1.0000 0.1214967446
H   H12       1.0  0.98090  0.75000  0.92210  1.0000 0.1214967446
H   H13       1.0  0.31210  0.25000  0.90670  1.0000 0.1260070877
H   H14       1.0  0.18790  0.75000  0.40670  1.0000 0.1260070877
H   H15       1.0  0.81210  0.25000  0.59330  1.0000 0.1260070877
H   H16       1.0  0.68790  0.75000  0.09330  1.0000 0.1260070877
H   H17       1.0  0.56780  0.18090  0.01150  1.0000 0.1214967446
H   H18       1.0  0.93220  0.81910  0.51150  1.0000 0.1214967446
H   H19       1.0  0.06780  0.31910  0.48850  1.0000 0.1214967446
H   H20       1.0  0.43220  0.68090  0.98850  1.0000 0.1214967446
H   H21       1.0  0.43220  0.81910  0.98850  1.0000 0.1214967446
H   H22       1.0  0.06780  0.18090  0.48850  1.0000 0.1214967446
H   H23       1.0  0.93220  0.68090  0.51150  1.0000 0.1214967446
H   H24       1.0  0.56780  0.31910  0.01150  1.0000 0.1214967446
H   H25       1.0  0.46920  0.17230  0.95340  1.0000 0.1095576251
H   H26       1.0  0.03080  0.82770  0.45340  1.0000 0.1095576251
H   H27       1.0  0.96920  0.32770  0.54660  1.0000 0.1095576251
H   H28       1.0  0.53080  0.67230  0.04660  1.0000 0.1095576251
H   H29       1.0  0.53080  0.82770  0.04660  1.0000 0.1095576251
H   H30       1.0  0.96920  0.17230  0.54660  1.0000 0.1095576251
H   H31       1.0  0.03080  0.67230  0.45340  1.0000 0.1095576251
H   H32       1.0  0.46920  0.32770  0.95340  1.0000 0.1095576251
H   H33       1.0  0.54030  0.10710  0.12120  1.0000 0.1214967446
H   H34       1.0  0.95970  0.89290  0.62120  1.0000 0.1214967446
H   H35       1.0  0.04030  0.39290  0.37880  1.0000 0.1214967446
H   H36       1.0  0.45970  0.60710  0.87880  1.0000 0.1214967446
H   H37       1.0  0.45970  0.89290  0.87880  1.0000 0.1214967446
H   H38       1.0  0.04030  0.10710  0.37880  1.0000 0.1214967446
H   H39       1.0  0.95970  0.60710  0.62120  1.0000 0.1214967446
H   H40       1.0  0.54030  0.39290  0.12120  1.0000 0.1214967446
H   H41       1.0  0.47840  0.98940  0.17140  1.0000 0.1260070877
H   H42       1.0  0.02160  0.01060  0.67140  1.0000 0.1260070877
H   H43       1.0  0.97840  0.51060  0.32860  1.0000 0.1260070877
H   H44       1.0  0.52160  0.48940  0.82860  1.0000 0.1260070877
H   H45       1.0  0.52160  0.01060  0.82860  1.0000 0.1260070877
H   H46       1.0  0.97840  0.98940  0.32860  1.0000 0.1260070877
H   H47       1.0  0.02160  0.48940  0.67140  1.0000 0.1260070877
H   H48       1.0  0.47840  0.51060  0.17140  1.0000 0.1260070877
H   H49       1.0  0.24340  0.95400  0.01600  1.0000 0.1214967446
H   H50       1.0  0.25660  0.04600  0.51600  1.0000 0.1214967446
H   H51       1.0  0.74340  0.54600  0.48400  1.0000 0.1214967446
H   H52       1.0  0.75660  0.45400  0.98400  1.0000 0.1214967446
H   H53       1.0  0.75660  0.04600  0.98400  1.0000 0.1214967446
H   H54       1.0  0.74340  0.95400  0.48400  1.0000 0.1214967446
H   H55       1.0  0.25660  0.45400  0.51600  1.0000 0.1214967446
H   H56       1.0  0.24340  0.54600  0.01600  1.0000 0.1214967446
H   H57       1.0  0.31210  0.06980  0.96400  1.0000 0.1214967446
H   H58       1.0  0.18790  0.93020  0.46400  1.0000 0.1214967446
H   H59       1.0  0.81210  0.43020  0.53600  1.0000 0.1214967446
H   H60       1.0  0.68790  0.56980  0.03600  1.0000 0.1214967446
H   H61       1.0  0.68790  0.93020  0.03600  1.0000 0.1214967446
H   H62       1.0  0.81210  0.06980  0.53600  1.0000 0.1214967446
H   H63       1.0  0.18790  0.56980  0.46400  1.0000 0.1214967446
H   H64       1.0  0.31210  0.43020  0.96400  1.0000 0.1214967446
C   C1        1.0  0.09630  0.25000  0.84880  1.0000 0.6784672739
C   C2        1.0  0.40370  0.75000  0.34880  1.0000 0.6784672739
C   C3        1.0  0.59630  0.25000  0.65120  1.0000 0.6784672739
C   C4        1.0  0.90370  0.75000  0.15120  1.0000 0.6784672739
C   C5        1.0  0.13080  0.25000  0.92350  1.0000 -0.0173052981
C   C6        1.0  0.36920  0.75000  0.42350  1.0000 -0.0173052981
C   C7        1.0  0.63080  0.25000  0.57650  1.0000 -0.0173052981
C   C8        1.0  0.86920  0.75000  0.07650  1.0000 -0.0173052981
C   C9        1.0  0.04320  0.25000  0.97490  1.0000 -0.0890671997
C   C10       1.0  0.45680  0.75000  0.47490  1.0000 -0.0890671997
C   C11       1.0  0.54320  0.25000  0.52510  1.0000 -0.0890671997
C   C12       1.0  0.95680  0.75000  0.02510  1.0000 -0.0890671997
C   C13       1.0  0.07830  0.25000  0.04360  1.0000 -0.1025806142
C   C14       1.0  0.42170  0.75000  0.54360  1.0000 -0.1025806142
C   C15       1.0  0.57830  0.25000  0.45640  1.0000 -0.1025806142
C   C16       1.0  0.92170  0.75000  0.95640  1.0000 -0.1025806142
C   C17       1.0  0.20190  0.25000  0.06210  1.0000 -0.1084189935
C   C18       1.0  0.29810  0.75000  0.56210  1.0000 -0.1084189935
C   C19       1.0  0.70190  0.25000  0.43790  1.0000 -0.1084189935
C   C20       1.0  0.79810  0.75000  0.93790  1.0000 -0.1084189935
C   C21       1.0  0.28790  0.25000  0.01020  1.0000 0.1461348982
C   C22       1.0  0.21210  0.75000  0.51020  1.0000 0.1461348982
C   C23       1.0  0.78790  0.25000  0.48980  1.0000 0.1461348982
C   C24       1.0  0.71210  0.75000  0.98980  1.0000 0.1461348982
C   C25       1.0  0.25300  0.25000  0.94120  1.0000 -0.2037821112
C   C26       1.0  0.24700  0.75000  0.44120  1.0000 -0.2037821112
C   C27       1.0  0.75300  0.25000  0.55880  1.0000 -0.2037821112
C   C28       1.0  0.74700  0.75000  0.05880  1.0000 -0.2037821112
C   C29       1.0  0.22950  0.25000  0.13850  1.0000 0.547842622
C   C30       1.0  0.27050  0.75000  0.63850  1.0000 0.547842622
C   C31       1.0  0.72950  0.25000  0.36150  1.0000 0.547842622
C   C32       1.0  0.77050  0.75000  0.86150  1.0000 0.547842622
C   C33       1.0  0.48100  0.17640  0.00290  1.0000 -0.1702773421
C   C34       1.0  0.01900  0.82360  0.50290  1.0000 -0.1702773421
C   C35       1.0  0.98100  0.32360  0.49710  1.0000 -0.1702773421
C   C36       1.0  0.51900  0.67640  0.99710  1.0000 -0.1702773421
C   C37       1.0  0.51900  0.82360  0.99710  1.0000 -0.1702773421
C   C38       1.0  0.98100  0.17640  0.49710  1.0000 -0.1702773421
C   C39       1.0  0.01900  0.67640  0.50290  1.0000 -0.1702773421
C   C40       1.0  0.48100  0.32360  0.00290  1.0000 -0.1702773421
C   C41       1.0  0.43330  0.10090  0.03720  1.0000 0.1017725683
C   C42       1.0  0.06670  0.89910  0.53720  1.0000 0.1017725683
C   C43       1.0  0.93330  0.39910  0.46280  1.0000 0.1017725683
C   C44       1.0  0.56670  0.60090  0.96280  1.0000 0.1017725683
C   C45       1.0  0.56670  0.89910  0.96280  1.0000 0.1017725683
C   C46       1.0  0.93330  0.10090  0.46280  1.0000 0.1017725683
C   C47       1.0  0.06670  0.60090  0.53720  1.0000 0.1017725683
C   C48       1.0  0.43330  0.39910  0.03720  1.0000 0.1017725683
C   C49       1.0  0.48140  0.07590  0.09950  1.0000 -0.1573252453
C   C50       1.0  0.01860  0.92410  0.59950  1.0000 -0.1573252453
C   C51       1.0  0.98140  0.42410  0.40050  1.0000 -0.1573252453
C   C52       1.0  0.51860  0.57590  0.90050  1.0000 -0.1573252453
C   C53       1.0  0.51860  0.92410  0.90050  1.0000 -0.1573252453
C   C54       1.0  0.98140  0.07590  0.40050  1.0000 -0.1573252453
C   C55       1.0  0.01860  0.57590  0.59950  1.0000 -0.1573252453
C   C56       1.0  0.48140  0.42410  0.09950  1.0000 -0.1573252453
C   C57       1.0  0.44330  0.00570  0.13000  1.0000 -0.0890671997
C   C58       1.0  0.05670  0.99430  0.63000  1.0000 -0.0890671997
C   C59       1.0  0.94330  0.49430  0.37000  1.0000 -0.0890671997
C   C60       1.0  0.55670  0.50570  0.87000  1.0000 -0.0890671997
C   C61       1.0  0.55670  0.99430  0.87000  1.0000 -0.0890671997
C   C62       1.0  0.94330  0.00570  0.37000  1.0000 -0.0890671997
C   C63       1.0  0.05670  0.50570  0.63000  1.0000 -0.0890671997
C   C64       1.0  0.44330  0.49430  0.13000  1.0000 -0.0890671997
C   C65       1.0  0.35450  0.95940  0.10028  1.0000 -0.0374063508
C   C66       1.0  0.14550  0.04060  0.60028  1.0000 -0.0374063508
C   C67       1.0  0.85450  0.54060  0.39972  1.0000 -0.0374063508
C   C68       1.0  0.64550  0.45940  0.89972  1.0000 -0.0374063508
C   C69       1.0  0.64550  0.04060  0.89972  1.0000 -0.0374063508
C   C70       1.0  0.85450  0.95940  0.39972  1.0000 -0.0374063508
C   C71       1.0  0.14550  0.45940  0.60028  1.0000 -0.0374063508
C   C72       1.0  0.35450  0.54060  0.10028  1.0000 -0.0374063508
C   C73       1.0  0.30400  0.98440  0.03700  1.0000 -0.0890671997
C   C74       1.0  0.19600  0.01560  0.53700  1.0000 -0.0890671997
C   C75       1.0  0.80400  0.51560  0.46300  1.0000 -0.0890671997
C   C76       1.0  0.69600  0.48440  0.96300  1.0000 -0.0890671997
C   C77       1.0  0.69600  0.01560  0.96300  1.0000 -0.0890671997
C   C78       1.0  0.80400  0.98440  0.46300  1.0000 -0.0890671997
C   C79       1.0  0.19600  0.48440  0.53700  1.0000 -0.0890671997
C   C80       1.0  0.30400  0.51560  0.03700  1.0000 -0.0890671997
C   C81       1.0  0.34470  0.05410  0.00620  1.0000 -0.1573252453
C   C82       1.0  0.15530  0.94590  0.50620  1.0000 -0.1573252453
C   C83       1.0  0.84470  0.44590  0.49380  1.0000 -0.1573252453
C   C84       1.0  0.65530  0.55410  0.99380  1.0000 -0.1573252453
C   C85       1.0  0.65530  0.94590  0.99380  1.0000 -0.1573252453
C   C86       1.0  0.84470  0.05410  0.49380  1.0000 -0.1573252453
C   C87       1.0  0.15530  0.55410  0.50620  1.0000 -0.1573252453
C   C88       1.0  0.34470  0.44590  0.00620  1.0000 -0.1573252453
C   C89       1.0  0.31330  0.88220  0.13210  1.0000 0.5595297144
C   C90       1.0  0.18670  0.11780  0.63210  1.0000 0.5595297144
C   C91       1.0  0.81330  0.61780  0.36790  1.0000 0.5595297144
C   C92       1.0  0.68670  0.38220  0.86790  1.0000 0.5595297144
C   C93       1.0  0.68670  0.11780  0.86790  1.0000 0.5595297144
C   C94       1.0  0.81330  0.88220  0.36790  1.0000 0.5595297144
C   C95       1.0  0.18670  0.38220  0.63210  1.0000 0.5595297144
C   C96       1.0  0.31330  0.61780  0.13210  1.0000 0.5595297144
N   N1        1.0  0.41860  0.25000  0.02880  1.0000 -0.1170175148
N   N2        1.0  0.08140  0.75000  0.52880  1.0000 -0.1170175148
N   N3        1.0  0.91860  0.25000  0.47120  1.0000 -0.1170175148
N   N4        1.0  0.58140  0.75000  0.97120  1.0000 -0.1170175148
O   O1        1.0  0.17960  0.25000  0.80552  1.0000 -0.6939790098
O   O2        1.0  0.32040  0.75000  0.30552  1.0000 -0.6939790098
O   O3        1.0  0.67960  0.25000  0.69448  1.0000 -0.6939790098
O   O4        1.0  0.82040  0.75000  0.19448  1.0000 -0.6939790098
O   O5        1.0  0.98570  0.25000  0.83470  1.0000 -0.6778826861
O   O6        1.0  0.51430  0.75000  0.33470  1.0000 -0.6778826861
O   O7        1.0  0.48570  0.25000  0.66530  1.0000 -0.6778826861
O   O8        1.0  0.01430  0.75000  0.16530  1.0000 -0.6778826861
O   O9        1.0  0.34850  0.25000  0.15380  1.0000 -0.4478637798
O   O10       1.0  0.15150  0.75000  0.65380  1.0000 -0.4478637798
O   O11       1.0  0.84850  0.25000  0.34620  1.0000 -0.4478637798
O   O12       1.0  0.65150  0.75000  0.84620  1.0000 -0.4478637798
O   O13       1.0  0.15140  0.25000  0.18140  1.0000 -0.5002996697
O   O14       1.0  0.34860  0.75000  0.68140  1.0000 -0.5002996697
O   O15       1.0  0.65140  0.25000  0.31860  1.0000 -0.5002996697
O   O16       1.0  0.84860  0.75000  0.81860  1.0000 -0.5002996697
O   O17       1.0  0.36900  0.85479  0.18412  1.0000 -0.6460185646
O   O18       1.0  0.13100  0.14521  0.68412  1.0000 -0.6460185646
O   O19       1.0  0.86900  0.64521  0.31588  1.0000 -0.6460185646
O   O20       1.0  0.63100  0.35479  0.81588  1.0000 -0.6460185646
O   O21       1.0  0.63100  0.14521  0.81588  1.0000 -0.6460185646
O   O22       1.0  0.86900  0.85479  0.31588  1.0000 -0.6460185646
O   O23       1.0  0.13100  0.35479  0.68412  1.0000 -0.6460185646
O   O24       1.0  0.36900  0.64521  0.18412  1.0000 -0.6460185646
O   O25       1.0  0.22330  0.84520  0.10727  1.0000 -0.6460185646
O   O26       1.0  0.27670  0.15480  0.60727  1.0000 -0.6460185646
O   O27       1.0  0.72330  0.65480  0.39273  1.0000 -0.6460185646
O   O28       1.0  0.77670  0.34520  0.89273  1.0000 -0.6460185646
O   O29       1.0  0.77670  0.15480  0.89273  1.0000 -0.6460185646
O   O30       1.0  0.72330  0.84520  0.39273  1.0000 -0.6460185646
O   O31       1.0  0.27670  0.34520  0.60727  1.0000 -0.6460185646
O   O32       1.0  0.22330  0.65480  0.10727  1.0000 -0.6460185646
