# DDEC6 charges by PACMAN v1.1 (https://github.com/mtap-research/PACMAN-charge/)
data_2015[Tb][sra]3[ASR]1
_chemical_formula_sum              "Tb4 H64 C96 N4 O32"
_cell_length_a       10.913
_cell_length_b       16.542
_cell_length_c       19.793
_cell_angle_alpha    90
_cell_angle_beta     90
_cell_angle_gamma    90

_symmetry_space_group_name_H-M    "P 1"
_symmetry_Int_Tables_number       1

loop_
  _symmetry_equiv_pos_as_xyz
  'x, y, z'

loop_
  _atom_site_type_symbol
  _atom_site_label
  _atom_site_symmetry_multiplicity
  _atom_site_fract_x
  _atom_site_fract_y
  _atom_site_fract_z
  _atom_site_occupancy
  _atom_site_charge
Tb  Tb1       1.0  0.29329  0.25000  0.70436  1.0000 2.046662522
Tb  Tb2       1.0  0.20671  0.75000  0.20436  1.0000 2.046662522
Tb  Tb3       1.0  0.70671  0.75000  0.29564  1.0000 2.046662522
Tb  Tb4       1.0  0.79329  0.25000  0.79564  1.0000 2.046662522
H   H1        1.0  0.34630  0.25000  0.19140  1.0000 0.368663562
H   H2        1.0  0.15370  0.75000  0.69140  1.0000 0.368663562
H   H3        1.0  0.65370  0.75000  0.80860  1.0000 0.368663562
H   H4        1.0  0.84630  0.25000  0.30860  1.0000 0.368663562
H   H5        1.0  0.96040  0.25000  0.95730  1.0000 0.13616736
H   H6        1.0  0.53960  0.75000  0.45730  1.0000 0.13616736
H   H7        1.0  0.03960  0.75000  0.04270  1.0000 0.13616736
H   H8        1.0  0.46040  0.25000  0.54270  1.0000 0.13616736
H   H9        1.0  0.01370  0.25000  0.06980  1.0000 0.1205248643
H   H10       1.0  0.48630  0.75000  0.56980  1.0000 0.1205248643
H   H11       1.0  0.98630  0.75000  0.93020  1.0000 0.1205248643
H   H12       1.0  0.51370  0.25000  0.43020  1.0000 0.1205248643
H   H13       1.0  0.31750  0.25000  0.90580  1.0000 0.1272691316
H   H14       1.0  0.18250  0.75000  0.40580  1.0000 0.1272691316
H   H15       1.0  0.68250  0.75000  0.09420  1.0000 0.1272691316
H   H16       1.0  0.81750  0.25000  0.59420  1.0000 0.1272691316
H   H17       1.0  0.57100  0.18160  0.01410  1.0000 0.1205248643
H   H18       1.0  0.92900  0.81840  0.51410  1.0000 0.1205248643
H   H19       1.0  0.42900  0.68160  0.98590  1.0000 0.1205248643
H   H20       1.0  0.07100  0.31840  0.48590  1.0000 0.1205248643
H   H21       1.0  0.42900  0.81840  0.98590  1.0000 0.1205248643
H   H22       1.0  0.07100  0.18160  0.48590  1.0000 0.1205248643
H   H23       1.0  0.57100  0.31840  0.01410  1.0000 0.1205248643
H   H24       1.0  0.92900  0.68160  0.51410  1.0000 0.1205248643
H   H25       1.0  0.47430  0.17090  0.95600  1.0000 0.1094556111
H   H26       1.0  0.02570  0.82910  0.45600  1.0000 0.1094556111
H   H27       1.0  0.52570  0.67090  0.04400  1.0000 0.1094556111
H   H28       1.0  0.97430  0.32910  0.54400  1.0000 0.1094556111
H   H29       1.0  0.52570  0.82910  0.04400  1.0000 0.1094556111
H   H30       1.0  0.97430  0.17090  0.54400  1.0000 0.1094556111
H   H31       1.0  0.47430  0.32910  0.95600  1.0000 0.1094556111
H   H32       1.0  0.02570  0.67090  0.45600  1.0000 0.1094556111
H   H33       1.0  0.54160  0.10650  0.12200  1.0000 0.1205248643
H   H34       1.0  0.95840  0.89350  0.62200  1.0000 0.1205248643
H   H35       1.0  0.45840  0.60650  0.87800  1.0000 0.1205248643
H   H36       1.0  0.04160  0.39350  0.37800  1.0000 0.1205248643
H   H37       1.0  0.45840  0.89350  0.87800  1.0000 0.1205248643
H   H38       1.0  0.04160  0.10650  0.37800  1.0000 0.1205248643
H   H39       1.0  0.54160  0.39350  0.12200  1.0000 0.1205248643
H   H40       1.0  0.95840  0.60650  0.62200  1.0000 0.1205248643
H   H41       1.0  0.47580  0.99010  0.17290  1.0000 0.1205248643
H   H42       1.0  0.02420  0.00990  0.67290  1.0000 0.1205248643
H   H43       1.0  0.52420  0.49010  0.82710  1.0000 0.1205248643
H   H44       1.0  0.97580  0.50990  0.32710  1.0000 0.1205248643
H   H45       1.0  0.52420  0.00990  0.82710  1.0000 0.1205248643
H   H46       1.0  0.97580  0.99010  0.32710  1.0000 0.1205248643
H   H47       1.0  0.47580  0.50990  0.17290  1.0000 0.1205248643
H   H48       1.0  0.02420  0.49010  0.67290  1.0000 0.1205248643
H   H49       1.0  0.24450  0.95210  0.01940  1.0000 0.1205248643
H   H50       1.0  0.25550  0.04790  0.51940  1.0000 0.1205248643
H   H51       1.0  0.75550  0.45210  0.98060  1.0000 0.1205248643
H   H52       1.0  0.74450  0.54790  0.48060  1.0000 0.1205248643
H   H53       1.0  0.75550  0.04790  0.98060  1.0000 0.1205248643
H   H54       1.0  0.74450  0.95210  0.48060  1.0000 0.1205248643
H   H55       1.0  0.24450  0.54790  0.01940  1.0000 0.1205248643
H   H56       1.0  0.25550  0.45210  0.51940  1.0000 0.1205248643
H   H57       1.0  0.31030  0.06850  0.96840  1.0000 0.1205248643
H   H58       1.0  0.18970  0.93150  0.46840  1.0000 0.1205248643
H   H59       1.0  0.68970  0.56850  0.03160  1.0000 0.1205248643
H   H60       1.0  0.81030  0.43150  0.53160  1.0000 0.1205248643
H   H61       1.0  0.68970  0.93150  0.03160  1.0000 0.1205248643
H   H62       1.0  0.81030  0.06850  0.53160  1.0000 0.1205248643
H   H63       1.0  0.31030  0.43150  0.96840  1.0000 0.1205248643
H   H64       1.0  0.18970  0.56850  0.46840  1.0000 0.1205248643
C   C1        1.0  0.10270  0.25000  0.84660  1.0000 0.6744972444
C   C2        1.0  0.39730  0.75000  0.34660  1.0000 0.6744972444
C   C3        1.0  0.89730  0.75000  0.15340  1.0000 0.6744972444
C   C4        1.0  0.60270  0.25000  0.65340  1.0000 0.6744972444
C   C5        1.0  0.13370  0.25000  0.92070  1.0000 -0.0115393589
C   C6        1.0  0.36630  0.75000  0.42070  1.0000 -0.0115393589
C   C7        1.0  0.86630  0.75000  0.07930  1.0000 -0.0115393589
C   C8        1.0  0.63370  0.25000  0.57930  1.0000 -0.0115393589
C   C9        1.0  0.04250  0.25000  0.96970  1.0000 -0.1000583903
C   C10       1.0  0.45750  0.75000  0.46970  1.0000 -0.1000583903
C   C11       1.0  0.95750  0.75000  0.03030  1.0000 -0.1000583903
C   C12       1.0  0.54250  0.25000  0.53030  1.0000 -0.1000583903
C   C13       1.0  0.07500  0.25000  0.03710  1.0000 -0.1000583903
C   C14       1.0  0.42500  0.75000  0.53710  1.0000 -0.1000583903
C   C15       1.0  0.92500  0.75000  0.96290  1.0000 -0.1000583903
C   C16       1.0  0.57500  0.25000  0.46290  1.0000 -0.1000583903
C   C17       1.0  0.19750  0.25000  0.05760  1.0000 -0.1110877269
C   C18       1.0  0.30250  0.75000  0.55760  1.0000 -0.1110877269
C   C19       1.0  0.80250  0.75000  0.94240  1.0000 -0.1110877269
C   C20       1.0  0.69750  0.25000  0.44240  1.0000 -0.1110877269
C   C21       1.0  0.28950  0.25000  0.00900  1.0000 0.1495184801
C   C22       1.0  0.21050  0.75000  0.50900  1.0000 0.1495184801
C   C23       1.0  0.71050  0.75000  0.99100  1.0000 0.1495184801
C   C24       1.0  0.78950  0.25000  0.49100  1.0000 0.1495184801
C   C25       1.0  0.25690  0.25000  0.93880  1.0000 -0.2165163481
C   C26       1.0  0.24310  0.75000  0.43880  1.0000 -0.2165163481
C   C27       1.0  0.74310  0.75000  0.06120  1.0000 -0.2165163481
C   C28       1.0  0.75690  0.25000  0.56120  1.0000 -0.2165163481
C   C29       1.0  0.22290  0.25000  0.13250  1.0000 0.55100025
C   C30       1.0  0.27710  0.75000  0.63250  1.0000 0.55100025
C   C31       1.0  0.77710  0.75000  0.86750  1.0000 0.55100025
C   C32       1.0  0.72290  0.25000  0.36750  1.0000 0.55100025
C   C33       1.0  0.48420  0.17610  0.00450  1.0000 -0.1700382554
C   C34       1.0  0.01580  0.82390  0.50450  1.0000 -0.1700382554
C   C35       1.0  0.51580  0.67610  0.99550  1.0000 -0.1700382554
C   C36       1.0  0.98420  0.32390  0.49550  1.0000 -0.1700382554
C   C37       1.0  0.51580  0.82390  0.99550  1.0000 -0.1700382554
C   C38       1.0  0.98420  0.17610  0.49550  1.0000 -0.1700382554
C   C39       1.0  0.48420  0.32390  0.00450  1.0000 -0.1700382554
C   C40       1.0  0.01580  0.67610  0.50450  1.0000 -0.1700382554
C   C41       1.0  0.43500  0.10060  0.03920  1.0000 0.1094556111
C   C42       1.0  0.06500  0.89940  0.53920  1.0000 0.1094556111
C   C43       1.0  0.56500  0.60060  0.96080  1.0000 0.1094556111
C   C44       1.0  0.93500  0.39940  0.46080  1.0000 0.1094556111
C   C45       1.0  0.56500  0.89940  0.96080  1.0000 0.1094556111
C   C46       1.0  0.93500  0.10060  0.46080  1.0000 0.1094556111
C   C47       1.0  0.43500  0.39940  0.03920  1.0000 0.1094556111
C   C48       1.0  0.06500  0.60060  0.53920  1.0000 0.1094556111
C   C49       1.0  0.48190  0.07540  0.10090  1.0000 -0.1614828496
C   C50       1.0  0.01810  0.92460  0.60090  1.0000 -0.1614828496
C   C51       1.0  0.51810  0.57540  0.89910  1.0000 -0.1614828496
C   C52       1.0  0.98190  0.42460  0.39910  1.0000 -0.1614828496
C   C53       1.0  0.51810  0.92460  0.89910  1.0000 -0.1614828496
C   C54       1.0  0.98190  0.07540  0.39910  1.0000 -0.1614828496
C   C55       1.0  0.48190  0.42460  0.10090  1.0000 -0.1614828496
C   C56       1.0  0.01810  0.57540  0.60090  1.0000 -0.1614828496
C   C57       1.0  0.44240  0.00530  0.13160  1.0000 -0.0883430192
C   C58       1.0  0.05760  0.99470  0.63160  1.0000 -0.0883430192
C   C59       1.0  0.55760  0.50530  0.86840  1.0000 -0.0883430192
C   C60       1.0  0.94240  0.49470  0.36840  1.0000 -0.0883430192
C   C61       1.0  0.55760  0.99470  0.86840  1.0000 -0.0883430192
C   C62       1.0  0.94240  0.00530  0.36840  1.0000 -0.0883430192
C   C63       1.0  0.44240  0.49470  0.13160  1.0000 -0.0883430192
C   C64       1.0  0.05760  0.50530  0.63160  1.0000 -0.0883430192
C   C65       1.0  0.35310  0.95680  0.10150  1.0000 -0.0509964996
C   C66       1.0  0.14690  0.04320  0.60150  1.0000 -0.0509964996
C   C67       1.0  0.64690  0.45680  0.89850  1.0000 -0.0509964996
C   C68       1.0  0.85310  0.54320  0.39850  1.0000 -0.0509964996
C   C69       1.0  0.64690  0.04320  0.89850  1.0000 -0.0509964996
C   C70       1.0  0.85310  0.95680  0.39850  1.0000 -0.0509964996
C   C71       1.0  0.35310  0.54320  0.10150  1.0000 -0.0509964996
C   C72       1.0  0.14690  0.45680  0.60150  1.0000 -0.0509964996
C   C73       1.0  0.30500  0.98290  0.04020  1.0000 -0.0844190815
C   C74       1.0  0.19500  0.01710  0.54020  1.0000 -0.0844190815
C   C75       1.0  0.69500  0.48290  0.95980  1.0000 -0.0844190815
C   C76       1.0  0.80500  0.51710  0.45980  1.0000 -0.0844190815
C   C77       1.0  0.69500  0.01710  0.95980  1.0000 -0.0844190815
C   C78       1.0  0.80500  0.98290  0.45980  1.0000 -0.0844190815
C   C79       1.0  0.30500  0.51710  0.04020  1.0000 -0.0844190815
C   C80       1.0  0.19500  0.48290  0.54020  1.0000 -0.0844190815
C   C81       1.0  0.34440  0.05290  0.00940  1.0000 -0.1614828496
C   C82       1.0  0.15560  0.94710  0.50940  1.0000 -0.1614828496
C   C83       1.0  0.65560  0.55290  0.99060  1.0000 -0.1614828496
C   C84       1.0  0.84440  0.44710  0.49060  1.0000 -0.1614828496
C   C85       1.0  0.65560  0.94710  0.99060  1.0000 -0.1614828496
C   C86       1.0  0.84440  0.05290  0.49060  1.0000 -0.1614828496
C   C87       1.0  0.34440  0.44710  0.00940  1.0000 -0.1614828496
C   C88       1.0  0.15560  0.55290  0.50940  1.0000 -0.1614828496
C   C89       1.0  0.31140  0.88150  0.13410  1.0000 0.560013128
C   C90       1.0  0.18860  0.11850  0.63410  1.0000 0.560013128
C   C91       1.0  0.68860  0.38150  0.86590  1.0000 0.560013128
C   C92       1.0  0.81140  0.61850  0.36590  1.0000 0.560013128
C   C93       1.0  0.68860  0.11850  0.86590  1.0000 0.560013128
C   C94       1.0  0.81140  0.88150  0.36590  1.0000 0.560013128
C   C95       1.0  0.31140  0.61850  0.13410  1.0000 0.560013128
C   C96       1.0  0.18860  0.38150  0.63410  1.0000 0.560013128
N   N1        1.0  0.41770  0.25000  0.02870  1.0000 -0.1110877269
N   N2        1.0  0.08230  0.75000  0.52870  1.0000 -0.1110877269
N   N3        1.0  0.58230  0.75000  0.97130  1.0000 -0.1110877269
N   N4        1.0  0.91770  0.25000  0.47130  1.0000 -0.1110877269
O   O1        1.0  0.18860  0.25000  0.80560  1.0000 -0.6849265569
O   O2        1.0  0.31140  0.75000  0.30560  1.0000 -0.6849265569
O   O3        1.0  0.81140  0.75000  0.19440  1.0000 -0.6849265569
O   O4        1.0  0.68860  0.25000  0.69440  1.0000 -0.6849265569
O   O5        1.0  0.99310  0.25000  0.83210  1.0000 -0.6596407467
O   O6        1.0  0.50690  0.75000  0.33210  1.0000 -0.6596407467
O   O7        1.0  0.00690  0.75000  0.16790  1.0000 -0.6596407467
O   O8        1.0  0.49310  0.25000  0.66790  1.0000 -0.6596407467
O   O9        1.0  0.34070  0.25000  0.15010  1.0000 -0.4451406175
O   O10       1.0  0.15930  0.75000  0.65010  1.0000 -0.4445027584
O   O11       1.0  0.65930  0.75000  0.84990  1.0000 -0.4451406175
O   O12       1.0  0.84070  0.25000  0.34990  1.0000 -0.4451406175
O   O13       1.0  0.14310  0.25000  0.17320  1.0000 -0.4910453879
O   O14       1.0  0.35690  0.75000  0.67320  1.0000 -0.4910453879
O   O15       1.0  0.85690  0.75000  0.82680  1.0000 -0.4910453879
O   O16       1.0  0.64310  0.25000  0.32680  1.0000 -0.4910453879
O   O17       1.0  0.36430  0.85450  0.18690  1.0000 -0.648975181
O   O18       1.0  0.13570  0.14550  0.68690  1.0000 -0.648975181
O   O19       1.0  0.63570  0.35450  0.81310  1.0000 -0.648975181
O   O20       1.0  0.86430  0.64550  0.31310  1.0000 -0.648975181
O   O21       1.0  0.63570  0.14550  0.81310  1.0000 -0.648975181
O   O22       1.0  0.86430  0.85450  0.31310  1.0000 -0.648975181
O   O23       1.0  0.36430  0.64550  0.18690  1.0000 -0.648975181
O   O24       1.0  0.13570  0.35450  0.68690  1.0000 -0.648975181
O   O25       1.0  0.21930  0.84510  0.11120  1.0000 -0.6374917501
O   O26       1.0  0.28070  0.15490  0.61120  1.0000 -0.6374917501
O   O27       1.0  0.78070  0.34510  0.88880  1.0000 -0.6374917501
O   O28       1.0  0.71930  0.65490  0.38880  1.0000 -0.6374917501
O   O29       1.0  0.78070  0.15490  0.88880  1.0000 -0.6374917501
O   O30       1.0  0.71930  0.84510  0.38880  1.0000 -0.6374917501
O   O31       1.0  0.21930  0.65490  0.11120  1.0000 -0.6374917501
O   O32       1.0  0.28070  0.34510  0.61120  1.0000 -0.6374917501
