# DDEC6 charges by PACMAN v1.1 (https://github.com/mtap-research/PACMAN-charge/)
data_2015[VCd][pcu]3[ASR]1
_chemical_formula_sum              "V8 Cd8 H400 C416 N32 O56"
_cell_length_a       17.227
_cell_length_b       24.0435
_cell_length_c       28.8385
_cell_angle_alpha    90
_cell_angle_beta     90
_cell_angle_gamma    90

_symmetry_space_group_name_H-M    "P 1"
_symmetry_Int_Tables_number       1

loop_
  _symmetry_equiv_pos_as_xyz
  'x, y, z'

loop_
  _atom_site_type_symbol
  _atom_site_label
  _atom_site_symmetry_multiplicity
  _atom_site_fract_x
  _atom_site_fract_y
  _atom_site_fract_z
  _atom_site_occupancy
  _atom_site_charge
V   V1        1.0  0.67005  0.83897  0.22446  1.0000 1.5870835393
V   V2        1.0  0.32995  0.16103  0.72446  1.0000 1.5870835393
V   V3        1.0  0.32995  0.83897  0.27554  1.0000 1.5870835393
V   V4        1.0  0.67005  0.16103  0.77554  1.0000 1.5870835393
V   V5        1.0  0.85804  0.89266  0.70710  1.0000 1.5870835393
V   V6        1.0  0.14196  0.10734  0.20710  1.0000 1.5870835393
V   V7        1.0  0.14196  0.89266  0.79290  1.0000 1.5870835393
V   V8        1.0  0.85804  0.10734  0.29290  1.0000 1.5870835393
Cd  Cd1       1.0  0.90753  0.39488  0.70975  1.0000 0.873961231
Cd  Cd2       1.0  0.09247  0.60512  0.20975  1.0000 0.873961231
Cd  Cd3       1.0  0.09247  0.39488  0.79025  1.0000 0.873961231
Cd  Cd4       1.0  0.90753  0.60512  0.29025  1.0000 0.873961231
Cd  Cd5       1.0  0.59275  0.33411  0.21051  1.0000 0.8778269499
Cd  Cd6       1.0  0.40725  0.66589  0.71051  1.0000 0.8778269499
Cd  Cd7       1.0  0.40725  0.33411  0.28949  1.0000 0.8778269499
Cd  Cd8       1.0  0.59275  0.66589  0.78949  1.0000 0.8778269499
H   H1        1.0  0.92204  0.36944  0.96639  1.0000 0.0984734701
H   H2        1.0  0.07796  0.63056  0.46639  1.0000 0.0984734701
H   H3        1.0  0.07796  0.36944  0.53361  1.0000 0.0984734701
H   H4        1.0  0.92204  0.63056  0.03361  1.0000 0.0984734701
H   H5        1.0  0.65597  0.22929  0.26953  1.0000 0.0984734701
H   H6        1.0  0.34403  0.77071  0.76953  1.0000 0.0984734701
H   H7        1.0  0.34403  0.22929  0.23047  1.0000 0.0984734701
H   H8        1.0  0.65597  0.77071  0.73047  1.0000 0.0984734701
H   H9        1.0  0.57419  0.35318  0.46581  1.0000 0.0984734701
H   H10       1.0  0.42581  0.64682  0.96581  1.0000 0.0984734701
H   H11       1.0  0.42581  0.35318  0.03419  1.0000 0.0984734701
H   H12       1.0  0.57419  0.64682  0.53419  1.0000 0.0984734701
H   H13       1.0  0.74000  0.37130  0.83352  1.0000 0.0984734701
H   H14       1.0  0.26000  0.62870  0.33352  1.0000 0.0984734701
H   H15       1.0  0.26000  0.37130  0.66648  1.0000 0.0984734701
H   H16       1.0  0.74000  0.62870  0.16648  1.0000 0.0984734701
H   H17       1.0  0.65610  0.12845  0.26875  1.0000 0.1298498016
H   H18       1.0  0.34390  0.87155  0.76875  1.0000 0.1298498016
H   H19       1.0  0.34390  0.12845  0.23125  1.0000 0.1298498016
H   H20       1.0  0.65610  0.87155  0.73125  1.0000 0.1298498016
H   H21       1.0  0.83726  0.50289  0.76081  1.0000 0.0904273785
H   H22       1.0  0.16274  0.49711  0.26081  1.0000 0.0904273785
H   H23       1.0  0.16274  0.50289  0.73919  1.0000 0.0904273785
H   H24       1.0  0.83726  0.49711  0.23919  1.0000 0.0904273785
H   H25       1.0  0.49212  0.43895  0.17651  1.0000 0.0904273785
H   H26       1.0  0.50788  0.56105  0.67651  1.0000 0.0904273785
H   H27       1.0  0.50788  0.43895  0.32349  1.0000 0.0904273785
H   H28       1.0  0.49212  0.56105  0.82349  1.0000 0.0904273785
H   H29       1.0  0.66153  0.39130  0.97669  1.0000 0.0984734701
H   H30       1.0  0.33847  0.60870  0.47669  1.0000 0.0984734701
H   H31       1.0  0.33847  0.39130  0.52331  1.0000 0.0984734701
H   H32       1.0  0.66153  0.60870  0.02331  1.0000 0.0984734701
H   H33       1.0  0.84895  0.60333  0.75954  1.0000 0.1181384767
H   H34       1.0  0.15105  0.39667  0.25954  1.0000 0.1181384767
H   H35       1.0  0.15105  0.60333  0.74046  1.0000 0.1181384767
H   H36       1.0  0.84895  0.39667  0.24046  1.0000 0.1181384767
H   H37       1.0  0.54934  0.60955  0.14426  1.0000 0.0904273785
H   H38       1.0  0.45066  0.39045  0.64426  1.0000 0.0904273785
H   H39       1.0  0.45066  0.60955  0.35574  1.0000 0.0904273785
H   H40       1.0  0.54934  0.39045  0.85574  1.0000 0.0904273785
H   H41       1.0  0.95117  0.66602  0.61824  1.0000 0.0904273785
H   H42       1.0  0.04883  0.33398  0.11824  1.0000 0.0904273785
H   H43       1.0  0.04883  0.66602  0.88176  1.0000 0.0904273785
H   H44       1.0  0.95117  0.33398  0.38176  1.0000 0.0904273785
H   H45       1.0  0.80649  0.32217  0.41729  1.0000 0.0800853265
H   H46       1.0  0.19351  0.67783  0.91729  1.0000 0.0800853265
H   H47       1.0  0.19351  0.32217  0.08271  1.0000 0.0800853265
H   H48       1.0  0.80649  0.67783  0.58271  1.0000 0.0800853265
H   H49       1.0  0.75979  0.31828  0.33812  1.0000 0.0984734701
H   H50       1.0  0.24021  0.68172  0.83812  1.0000 0.0984734701
H   H51       1.0  0.24021  0.31828  0.16188  1.0000 0.0984734701
H   H52       1.0  0.75979  0.68172  0.66188  1.0000 0.0984734701
H   H53       1.0  0.98496  0.48522  0.64723  1.0000 0.0984734701
H   H54       1.0  0.01504  0.51478  0.14723  1.0000 0.0984734701
H   H55       1.0  0.01504  0.48522  0.85277  1.0000 0.0984734701
H   H56       1.0  0.98496  0.51478  0.35277  1.0000 0.0984734701
H   H57       1.0  0.69496  0.43276  0.25526  1.0000 0.0904273785
H   H58       1.0  0.30504  0.56724  0.75526  1.0000 0.0904273785
H   H59       1.0  0.30504  0.43276  0.24474  1.0000 0.0904273785
H   H60       1.0  0.69496  0.56724  0.74474  1.0000 0.0904273785
H   H61       1.0  0.61349  0.04751  0.27741  1.0000 0.1092201261
H   H62       1.0  0.38651  0.95249  0.77741  1.0000 0.1092201261
H   H63       1.0  0.38651  0.04751  0.22259  1.0000 0.1092201261
H   H64       1.0  0.61349  0.95249  0.72259  1.0000 0.1092201261
H   H65       1.0  0.49556  0.54020  0.17401  1.0000 0.1092201261
H   H66       1.0  0.50444  0.45980  0.67401  1.0000 0.1092201261
H   H67       1.0  0.50444  0.54020  0.32599  1.0000 0.1092201261
H   H68       1.0  0.49556  0.45980  0.82599  1.0000 0.1092201261
H   H69       1.0  0.84433  0.36009  0.46989  1.0000 0.0904273785
H   H70       1.0  0.15567  0.63991  0.96989  1.0000 0.0904273785
H   H71       1.0  0.15567  0.36009  0.03011  1.0000 0.0904273785
H   H72       1.0  0.84433  0.63991  0.53011  1.0000 0.0904273785
H   H73       1.0  0.90050  0.37451  0.54749  1.0000 0.1092201261
H   H74       1.0  0.09950  0.62549  0.04749  1.0000 0.1092201261
H   H75       1.0  0.09950  0.37451  0.95251  1.0000 0.1092201261
H   H76       1.0  0.90050  0.62549  0.45251  1.0000 0.1092201261
H   H77       1.0  0.67409  0.35828  0.60824  1.0000 0.0984734701
H   H78       1.0  0.32591  0.64172  0.10824  1.0000 0.0984734701
H   H79       1.0  0.32591  0.35828  0.89176  1.0000 0.0984734701
H   H80       1.0  0.67409  0.64172  0.39176  1.0000 0.0984734701
H   H81       1.0  0.61759  0.34334  0.53044  1.0000 0.0904273785
H   H82       1.0  0.38241  0.65666  0.03044  1.0000 0.0904273785
H   H83       1.0  0.38241  0.34334  0.96956  1.0000 0.0904273785
H   H84       1.0  0.61759  0.65666  0.46956  1.0000 0.0904273785
H   H85       1.0  0.60495  0.37449  0.05331  1.0000 0.1092201261
H   H86       1.0  0.39505  0.62551  0.55331  1.0000 0.1092201261
H   H87       1.0  0.39505  0.37449  0.44669  1.0000 0.1092201261
H   H88       1.0  0.60495  0.62551  0.94669  1.0000 0.1092201261
H   H89       1.0  0.69038  0.35642  0.91238  1.0000 0.0904273785
H   H90       1.0  0.30962  0.64358  0.41238  1.0000 0.0904273785
H   H91       1.0  0.30962  0.35642  0.58762  1.0000 0.0904273785
H   H92       1.0  0.69038  0.64358  0.08762  1.0000 0.0904273785
H   H93       1.0  0.87797  0.68325  0.76025  1.0000 0.0984734701
H   H94       1.0  0.12203  0.31675  0.26025  1.0000 0.0984734701
H   H95       1.0  0.12203  0.68325  0.73975  1.0000 0.0984734701
H   H96       1.0  0.87797  0.31675  0.23975  1.0000 0.0984734701
H   H97       1.0  0.50460  0.23568  0.15646  1.0000 0.0984734701
H   H98       1.0  0.49540  0.76432  0.65646  1.0000 0.0984734701
H   H99       1.0  0.49540  0.23568  0.34354  1.0000 0.0984734701
H   H100      1.0  0.50460  0.76432  0.84354  1.0000 0.0984734701
H   H101      1.0  0.67182  0.62101  0.27256  1.0000 0.1181384767
H   H102      1.0  0.32818  0.37899  0.77256  1.0000 0.1181384767
H   H103      1.0  0.32818  0.62101  0.22744  1.0000 0.1181384767
H   H104      1.0  0.67182  0.37899  0.72744  1.0000 0.1181384767
H   H105      1.0  0.76983  0.91388  0.35089  1.0000 0.0984734701
H   H106      1.0  0.23017  0.08612  0.85089  1.0000 0.0984734701
H   H107      1.0  0.23017  0.91388  0.14911  1.0000 0.0984734701
H   H108      1.0  0.76983  0.08612  0.64911  1.0000 0.0984734701
H   H109      1.0  0.67619  0.93464  0.37277  1.0000 0.0904273785
H   H110      1.0  0.32381  0.06536  0.87277  1.0000 0.0904273785
H   H111      1.0  0.32381  0.93464  0.12723  1.0000 0.0904273785
H   H112      1.0  0.67619  0.06536  0.62723  1.0000 0.0904273785
H   H113      1.0  0.88805  0.10663  0.76364  1.0000 0.1092201261
H   H114      1.0  0.11195  0.89337  0.26364  1.0000 0.1092201261
H   H115      1.0  0.11195  0.10663  0.73636  1.0000 0.1092201261
H   H116      1.0  0.88805  0.89337  0.23636  1.0000 0.1092201261
H   H117      1.0  0.55417  0.05777  0.13360  1.0000 0.0904273785
H   H118      1.0  0.44583  0.94223  0.63360  1.0000 0.0904273785
H   H119      1.0  0.44583  0.05777  0.36640  1.0000 0.0904273785
H   H120      1.0  0.55417  0.94223  0.86640  1.0000 0.0904273785
H   H121      1.0  0.61792  0.84697  0.34226  1.0000 0.070811458
H   H122      1.0  0.38208  0.15303  0.84226  1.0000 0.070811458
H   H123      1.0  0.38208  0.84697  0.15774  1.0000 0.070811458
H   H124      1.0  0.61792  0.15303  0.65774  1.0000 0.070811458
H   H125      1.0  0.70945  0.53427  0.25195  1.0000 0.1181384767
H   H126      1.0  0.29055  0.46573  0.75195  1.0000 0.1181384767
H   H127      1.0  0.29055  0.53427  0.24805  1.0000 0.1181384767
H   H128      1.0  0.70945  0.46573  0.74805  1.0000 0.1181384767
H   H129      1.0  0.50492  0.13430  0.14915  1.0000 0.1181384767
H   H130      1.0  0.49508  0.86570  0.64915  1.0000 0.1181384767
H   H131      1.0  0.49508  0.13430  0.35085  1.0000 0.1181384767
H   H132      1.0  0.50492  0.86570  0.85085  1.0000 0.1181384767
H   H133      1.0  0.68863  0.75706  0.37314  1.0000 0.0904273785
H   H134      1.0  0.31137  0.24294  0.87314  1.0000 0.0904273785
H   H135      1.0  0.31137  0.75706  0.12686  1.0000 0.0904273785
H   H136      1.0  0.68863  0.24294  0.62686  1.0000 0.0904273785
H   H137      1.0  0.78445  0.74447  0.35120  1.0000 0.1092201261
H   H138      1.0  0.21555  0.25553  0.85120  1.0000 0.1092201261
H   H139      1.0  0.21555  0.74447  0.14880  1.0000 0.0984734701
H   H140      1.0  0.78445  0.25553  0.64880  1.0000 0.1092201261
H   H141      1.0  0.83521  0.82886  0.38650  1.0000 0.070811458
H   H142      1.0  0.16479  0.17114  0.88650  1.0000 0.070811458
H   H143      1.0  0.16479  0.82886  0.11350  1.0000 0.070811458
H   H144      1.0  0.83521  0.17114  0.61350  1.0000 0.070811458
H   H145      1.0  0.78383  0.78952  0.42952  1.0000 0.0904273785
H   H146      1.0  0.21617  0.21048  0.92952  1.0000 0.0904273785
H   H147      1.0  0.21617  0.78952  0.07048  1.0000 0.0904273785
H   H148      1.0  0.78383  0.21048  0.57048  1.0000 0.0904273785
H   H149      1.0  0.99551  0.20209  0.63714  1.0000 0.1181384767
H   H150      1.0  0.00449  0.79791  0.13714  1.0000 0.1181384767
H   H151      1.0  0.00449  0.20209  0.86286  1.0000 0.1181384767
H   H152      1.0  0.99551  0.79791  0.36286  1.0000 0.1181384767
H   H153      1.0  0.98894  0.30216  0.64724  1.0000 0.0904273785
H   H154      1.0  0.01106  0.69784  0.14724  1.0000 0.0904273785
H   H155      1.0  0.01106  0.30216  0.85276  1.0000 0.0904273785
H   H156      1.0  0.98894  0.69784  0.35276  1.0000 0.0904273785
H   H157      1.0  0.78072  0.82823  0.30423  1.0000 0.061648235
H   H158      1.0  0.21928  0.17177  0.80423  1.0000 0.061648235
H   H159      1.0  0.21928  0.82823  0.19577  1.0000 0.061648235
H   H160      1.0  0.78072  0.17177  0.69577  1.0000 0.061648235
H   H161      1.0  0.86859  0.28574  0.77228  1.0000 0.0904273785
H   H162      1.0  0.13141  0.71426  0.27228  1.0000 0.0904273785
H   H163      1.0  0.13141  0.28574  0.72772  1.0000 0.0904273785
H   H164      1.0  0.86859  0.71426  0.22772  1.0000 0.0904273785
H   H165      1.0  0.95907  0.12342  0.62202  1.0000 0.0904273785
H   H166      1.0  0.04093  0.87658  0.12202  1.0000 0.0904273785
H   H167      1.0  0.04093  0.12342  0.87798  1.0000 0.0904273785
H   H168      1.0  0.95907  0.87658  0.37798  1.0000 0.0904273785
H   H169      1.0  0.66853  0.84991  0.42139  1.0000 0.0800853265
H   H170      1.0  0.33147  0.15009  0.92139  1.0000 0.0800853265
H   H171      1.0  0.33147  0.84991  0.07861  1.0000 0.0800853265
H   H172      1.0  0.66853  0.15009  0.57861  1.0000 0.0800853265
H   H173      1.0  0.75348  0.89045  0.43421  1.0000 0.0800853265
H   H174      1.0  0.24652  0.10955  0.93421  1.0000 0.0800853265
H   H175      1.0  0.24652  0.89045  0.06579  1.0000 0.0800853265
H   H176      1.0  0.75348  0.10955  0.56579  1.0000 0.0800853265
H   H177      1.0  0.75264  0.99107  0.83578  1.0000 0.0984734701
H   H178      1.0  0.24736  0.00893  0.33578  1.0000 0.0984734701
H   H179      1.0  0.24736  0.99107  0.66422  1.0000 0.0984734701
H   H180      1.0  0.75264  0.00893  0.16422  1.0000 0.0984734701
H   H181      1.0  0.84622  0.97007  0.85808  1.0000 0.0904273785
H   H182      1.0  0.15378  0.02993  0.35808  1.0000 0.0904273785
H   H183      1.0  0.15378  0.97007  0.64192  1.0000 0.0904273785
H   H184      1.0  0.84622  0.02993  0.14192  1.0000 0.0904273785
H   H185      1.0  0.69666  0.94816  0.09973  1.0000 0.1181384767
H   H186      1.0  0.30334  0.05184  0.59973  1.0000 0.1181384767
H   H187      1.0  0.30334  0.94816  0.40027  1.0000 0.1181384767
H   H188      1.0  0.69666  0.05184  0.90027  1.0000 0.1181384767
H   H189      1.0  0.64403  0.90250  0.06125  1.0000 0.1092201261
H   H190      1.0  0.35597  0.09750  0.56125  1.0000 0.1092201261
H   H191      1.0  0.35597  0.90250  0.43875  1.0000 0.1092201261
H   H192      1.0  0.64403  0.09750  0.93875  1.0000 0.1092201261
H   H193      1.0  0.65725  0.88356  0.12124  1.0000 0.1298498016
H   H194      1.0  0.34275  0.11644  0.62124  1.0000 0.1298498016
H   H195      1.0  0.34275  0.88356  0.37876  1.0000 0.1298498016
H   H196      1.0  0.65725  0.11644  0.87876  1.0000 0.1298498016
H   H197      1.0  0.68750  0.91214  0.87013  1.0000 0.070811458
H   H198      1.0  0.31250  0.08786  0.37013  1.0000 0.070811458
H   H199      1.0  0.31250  0.91214  0.62987  1.0000 0.070811458
H   H200      1.0  0.68750  0.08786  0.12987  1.0000 0.070811458
H   H201      1.0  0.74703  0.94371  0.91354  1.0000 0.0800853265
H   H202      1.0  0.25297  0.05629  0.41354  1.0000 0.0800853265
H   H203      1.0  0.25297  0.94371  0.58646  1.0000 0.0800853265
H   H204      1.0  0.74703  0.05629  0.08646  1.0000 0.0800853265
H   H205      1.0  0.87384  0.18583  0.76793  1.0000 0.1298498016
H   H206      1.0  0.12616  0.81417  0.26793  1.0000 0.1298498016
H   H207      1.0  0.12616  0.18583  0.73207  1.0000 0.1298498016
H   H208      1.0  0.87384  0.81417  0.23207  1.0000 0.1298498016
H   H209      1.0  0.62683  0.96310  0.31314  1.0000 0.070811458
H   H210      1.0  0.37317  0.03690  0.81314  1.0000 0.070811458
H   H211      1.0  0.37317  0.96310  0.18686  1.0000 0.070811458
H   H212      1.0  0.62683  0.03690  0.68686  1.0000 0.070811458
H   H213      1.0  0.90188  0.87778  0.82667  1.0000 0.0800853265
H   H214      1.0  0.09812  0.12222  0.32667  1.0000 0.0800853265
H   H215      1.0  0.09812  0.87778  0.67333  1.0000 0.0800853265
H   H216      1.0  0.90188  0.12222  0.17333  1.0000 0.0800853265
H   H217      1.0  0.70936  0.70536  0.30226  1.0000 0.0800853265
H   H218      1.0  0.29064  0.29464  0.80226  1.0000 0.0800853265
H   H219      1.0  0.29064  0.70536  0.19774  1.0000 0.0800853265
H   H220      1.0  0.70936  0.29464  0.69774  1.0000 0.0800853265
H   H221      1.0  0.74435  0.91075  0.78710  1.0000 0.061648235
H   H222      1.0  0.25565  0.08925  0.28710  1.0000 0.061648235
H   H223      1.0  0.25565  0.91075  0.71290  1.0000 0.061648235
H   H224      1.0  0.74435  0.08925  0.21290  1.0000 0.061648235
H   H225      1.0  0.84568  0.87124  0.90686  1.0000 0.0800853265
H   H226      1.0  0.15432  0.12876  0.40686  1.0000 0.0800853265
H   H227      1.0  0.15432  0.87124  0.59314  1.0000 0.0800853265
H   H228      1.0  0.84568  0.12876  0.09314  1.0000 0.0800853265
H   H229      1.0  0.75254  0.83876  0.91326  1.0000 0.0904273785
H   H230      1.0  0.24746  0.16124  0.41326  1.0000 0.0904273785
H   H231      1.0  0.24746  0.83876  0.58674  1.0000 0.0904273785
H   H232      1.0  0.75254  0.16124  0.08674  1.0000 0.0904273785
H   H233      1.0  0.51402  0.87561  0.13799  1.0000 0.1353254824
H   H234      1.0  0.48598  0.12439  0.63799  1.0000 0.1353254824
H   H235      1.0  0.48598  0.87561  0.36201  1.0000 0.1353254824
H   H236      1.0  0.51402  0.12439  0.86201  1.0000 0.1353254824
H   H237      1.0  0.50057  0.88467  0.07636  1.0000 0.1181384767
H   H238      1.0  0.49943  0.11533  0.57636  1.0000 0.1181384767
H   H239      1.0  0.49943  0.88467  0.42364  1.0000 0.1181384767
H   H240      1.0  0.50057  0.11533  0.92364  1.0000 0.1181384767
H   H241      1.0  0.44845  0.92861  0.11656  1.0000 0.1092201261
H   H242      1.0  0.55155  0.07139  0.61656  1.0000 0.1092201261
H   H243      1.0  0.55155  0.92861  0.38344  1.0000 0.1092201261
H   H244      1.0  0.44845  0.07139  0.88344  1.0000 0.0984734701
H   H245      1.0  0.74269  0.81947  0.83099  1.0000 0.0984734701
H   H246      1.0  0.25731  0.18053  0.33099  1.0000 0.0984734701
H   H247      1.0  0.25731  0.81947  0.66901  1.0000 0.0984734701
H   H248      1.0  0.74269  0.18053  0.16901  1.0000 0.0984734701
H   H249      1.0  0.83314  0.79392  0.85375  1.0000 0.0904273785
H   H250      1.0  0.16686  0.20608  0.35375  1.0000 0.0904273785
H   H251      1.0  0.16686  0.79392  0.64625  1.0000 0.0904273785
H   H252      1.0  0.83314  0.20608  0.14625  1.0000 0.0904273785
H   H253      1.0  0.99459  0.58698  0.63805  1.0000 0.1181384767
H   H254      1.0  0.00541  0.41302  0.13805  1.0000 0.1181384767
H   H255      1.0  0.00541  0.58698  0.86195  1.0000 0.1181384767
H   H256      1.0  0.99459  0.41302  0.36195  1.0000 0.1181384767
H   H257      1.0  0.61753  0.79124  0.11657  1.0000 0.1353254824
H   H258      1.0  0.38247  0.20876  0.61657  1.0000 0.1353254824
H   H259      1.0  0.38247  0.79124  0.38343  1.0000 0.1353254824
H   H260      1.0  0.61753  0.20876  0.88343  1.0000 0.1353254824
H   H261      1.0  0.56895  0.77317  0.06325  1.0000 0.1092201261
H   H262      1.0  0.43105  0.22683  0.56325  1.0000 0.1092201261
H   H263      1.0  0.43105  0.77317  0.43675  1.0000 0.1092201261
H   H264      1.0  0.56895  0.22683  0.93675  1.0000 0.1092201261
H   H265      1.0  0.65087  0.73249  0.08268  1.0000 0.1181384767
H   H266      1.0  0.34913  0.26751  0.58268  1.0000 0.1181384767
H   H267      1.0  0.34913  0.73249  0.41732  1.0000 0.1181384767
H   H268      1.0  0.65087  0.26751  0.91732  1.0000 0.1181384767
H   H269      1.0  0.90771  0.09372  0.55803  1.0000 0.1092201261
H   H270      1.0  0.09229  0.90628  0.05803  1.0000 0.1092201261
H   H271      1.0  0.09229  0.09372  0.94197  1.0000 0.1092201261
H   H272      1.0  0.90771  0.90628  0.44197  1.0000 0.1092201261
H   H273      1.0  0.01156  0.08572  0.56674  1.0000 0.1181384767
H   H274      1.0  0.98844  0.91428  0.06674  1.0000 0.1181384767
H   H275      1.0  0.98844  0.08572  0.93326  1.0000 0.1181384767
H   H276      1.0  0.01156  0.91428  0.43326  1.0000 0.1181384767
H   H277      1.0  0.96194  0.04470  0.52366  1.0000 0.1092201261
H   H278      1.0  0.03806  0.95530  0.02366  1.0000 0.1092201261
H   H279      1.0  0.03806  0.04470  0.97634  1.0000 0.1092201261
H   H280      1.0  0.96194  0.95530  0.47634  1.0000 0.1092201261
H   H281      1.0  0.81686  0.29662  0.09748  1.0000 0.0984734701
H   H282      1.0  0.18314  0.70338  0.59748  1.0000 0.0984734701
H   H283      1.0  0.18314  0.29662  0.40252  1.0000 0.0984734701
H   H284      1.0  0.81686  0.70338  0.90252  1.0000 0.0984734701
H   H285      1.0  0.97152  0.38659  0.88745  1.0000 0.1181384767
H   H286      1.0  0.02848  0.61341  0.38745  1.0000 0.1181384767
H   H287      1.0  0.02848  0.38659  0.61255  1.0000 0.1181384767
H   H288      1.0  0.97152  0.61341  0.11255  1.0000 0.1181384767
H   H289      1.0  0.55219  0.64025  0.08370  1.0000 0.1092201261
H   H290      1.0  0.44781  0.35975  0.58370  1.0000 0.1092201261
H   H291      1.0  0.44781  0.64025  0.41630  1.0000 0.1092201261
H   H292      1.0  0.55219  0.35975  0.91630  1.0000 0.1092201261
H   H293      1.0  0.50146  0.69506  0.05337  1.0000 0.1092201261
H   H294      1.0  0.49854  0.30494  0.55337  1.0000 0.1092201261
H   H295      1.0  0.49854  0.69506  0.44663  1.0000 0.1092201261
H   H296      1.0  0.50146  0.30494  0.94663  1.0000 0.1092201261
H   H297      1.0  0.45437  0.65943  0.10102  1.0000 0.1092201261
H   H298      1.0  0.54563  0.34057  0.60102  1.0000 0.1092201261
H   H299      1.0  0.54563  0.65943  0.39898  1.0000 0.1092201261
H   H300      1.0  0.45437  0.34057  0.89898  1.0000 0.1092201261
H   H301      1.0  0.87443  0.31333  0.02036  1.0000 0.0904273785
H   H302      1.0  0.12557  0.68667  0.52036  1.0000 0.0904273785
H   H303      1.0  0.12557  0.31333  0.47964  1.0000 0.0904273785
H   H304      1.0  0.87443  0.68667  0.97964  1.0000 0.0904273785
H   H305      1.0  0.49665  0.01088  0.07750  1.0000 0.1092201261
H   H306      1.0  0.50335  0.98912  0.57750  1.0000 0.1092201261
H   H307      1.0  0.50335  0.01088  0.42250  1.0000 0.1092201261
H   H308      1.0  0.49665  0.98912  0.92250  1.0000 0.1092201261
H   H309      1.0  0.55582  0.97141  0.03763  1.0000 0.1181384767
H   H310      1.0  0.44418  0.02859  0.53763  1.0000 0.1181384767
H   H311      1.0  0.44418  0.97141  0.46237  1.0000 0.1181384767
H   H312      1.0  0.55582  0.02859  0.96237  1.0000 0.1181384767
H   H313      1.0  0.59997  0.02478  0.07275  1.0000 0.1092201261
H   H314      1.0  0.40003  0.97522  0.57275  1.0000 0.1092201261
H   H315      1.0  0.40003  0.02478  0.42725  1.0000 0.1092201261
H   H316      1.0  0.59997  0.97522  0.92725  1.0000 0.1092201261
H   H317      1.0  0.84769  0.02416  0.79252  1.0000 0.0800853265
H   H318      1.0  0.15231  0.97584  0.29252  1.0000 0.0800853265
H   H319      1.0  0.15231  0.02416  0.70748  1.0000 0.0800853265
H   H320      1.0  0.84769  0.97584  0.20748  1.0000 0.0800853265
H   H321      1.0  0.42167  0.72865  0.14222  1.0000 0.1092201261
H   H322      1.0  0.57833  0.27135  0.64222  1.0000 0.1092201261
H   H323      1.0  0.57833  0.72865  0.35778  1.0000 0.1092201261
H   H324      1.0  0.42167  0.27135  0.85778  1.0000 0.1092201261
H   H325      1.0  0.46091  0.78643  0.10988  1.0000 0.1092201261
H   H326      1.0  0.53909  0.21357  0.60988  1.0000 0.1092201261
H   H327      1.0  0.53909  0.78643  0.39012  1.0000 0.1092201261
H   H328      1.0  0.46091  0.21357  0.89012  1.0000 0.1092201261
H   H329      1.0  0.48856  0.77654  0.16962  1.0000 0.1298498016
H   H330      1.0  0.51144  0.22346  0.66962  1.0000 0.1298498016
H   H331      1.0  0.51144  0.77654  0.33038  1.0000 0.1298498016
H   H332      1.0  0.48856  0.22346  0.83038  1.0000 0.1298498016
H   H333      1.0  0.52655  0.34910  0.38502  1.0000 0.1181384767
H   H334      1.0  0.47345  0.65090  0.88502  1.0000 0.1181384767
H   H335      1.0  0.47345  0.34910  0.11498  1.0000 0.1181384767
H   H336      1.0  0.52655  0.65090  0.61498  1.0000 0.1181384767
H   H337      1.0  0.86169  0.94616  0.59476  1.0000 0.1353254824
H   H338      1.0  0.13831  0.05384  0.09476  1.0000 0.1353254824
H   H339      1.0  0.13831  0.94616  0.90524  1.0000 0.1353254824
H   H340      1.0  0.86169  0.05384  0.40524  1.0000 0.1353254824
H   H341      1.0  0.86495  0.98350  0.54054  1.0000 0.1092201261
H   H342      1.0  0.13505  0.01650  0.04054  1.0000 0.1092201261
H   H343      1.0  0.13505  0.98350  0.95946  1.0000 0.1092201261
H   H344      1.0  0.86495  0.01650  0.45946  1.0000 0.1092201261
H   H345      1.0  0.81436  0.01271  0.58935  1.0000 0.1092201261
H   H346      1.0  0.18564  0.98729  0.08935  1.0000 0.1092201261
H   H347      1.0  0.18564  0.01271  0.91065  1.0000 0.1092201261
H   H348      1.0  0.81436  0.98729  0.41065  1.0000 0.1092201261
H   H349      1.0  0.83286  0.77671  0.56506  1.0000 0.1181384767
H   H350      1.0  0.16714  0.22329  0.06506  1.0000 0.1181384767
H   H351      1.0  0.16714  0.77671  0.93494  1.0000 0.1181384767
H   H352      1.0  0.83286  0.22329  0.43494  1.0000 0.1181384767
H   H353      1.0  0.89420  0.83443  0.54737  1.0000 0.1092201261
H   H354      1.0  0.10580  0.16557  0.04737  1.0000 0.1092201261
H   H355      1.0  0.10580  0.83443  0.95263  1.0000 0.1092201261
H   H356      1.0  0.89420  0.16557  0.45263  1.0000 0.1092201261
H   H357      1.0  0.85631  0.83172  0.60587  1.0000 0.1298498016
H   H358      1.0  0.14369  0.16828  0.10587  1.0000 0.1298498016
H   H359      1.0  0.14369  0.83172  0.89413  1.0000 0.1298498016
H   H360      1.0  0.85631  0.16828  0.39413  1.0000 0.1298498016
H   H361      1.0  0.00007  0.85687  0.60106  1.0000 0.1181384767
H   H362      1.0  0.99993  0.14313  0.10106  1.0000 0.1181384767
H   H363      1.0  0.99993  0.85687  0.89894  1.0000 0.1181384767
H   H364      1.0  0.00007  0.14313  0.39894  1.0000 0.1181384767
H   H365      1.0  0.05174  0.81264  0.56083  1.0000 0.1092201261
H   H366      1.0  0.94826  0.18736  0.06083  1.0000 0.1092201261
H   H367      1.0  0.94826  0.81264  0.93917  1.0000 0.1092201261
H   H368      1.0  0.05174  0.18736  0.43917  1.0000 0.1092201261
H   H369      1.0  0.05999  0.80069  0.62244  1.0000 0.1092201261
H   H370      1.0  0.94001  0.19931  0.12244  1.0000 0.1092201261
H   H371      1.0  0.94001  0.80069  0.87756  1.0000 0.1092201261
H   H372      1.0  0.05999  0.19931  0.37756  1.0000 0.1092201261
H   H373      1.0  0.06433  0.99899  0.60077  1.0000 0.1092201261
H   H374      1.0  0.93567  0.00101  0.10077  1.0000 0.1092201261
H   H375      1.0  0.93567  0.99899  0.89923  1.0000 0.1092201261
H   H376      1.0  0.06433  0.00101  0.39923  1.0000 0.1092201261
H   H377      1.0  0.01431  0.95797  0.55773  1.0000 0.1092201261
H   H378      1.0  0.98569  0.04203  0.05773  1.0000 0.1092201261
H   H379      1.0  0.98569  0.95797  0.94227  1.0000 0.1092201261
H   H380      1.0  0.01431  0.04203  0.44227  1.0000 0.1092201261
H   H381      1.0  0.00037  0.94320  0.61849  1.0000 0.1298498016
H   H382      1.0  0.99963  0.05680  0.11849  1.0000 0.1298498016
H   H383      1.0  0.99963  0.94320  0.88151  1.0000 0.1298498016
H   H384      1.0  0.00037  0.05680  0.38151  1.0000 0.1298498016
H   H385      1.0  0.85907  0.76484  0.79292  1.0000 0.0800853265
H   H386      1.0  0.14093  0.23516  0.29292  1.0000 0.0800853265
H   H387      1.0  0.14093  0.76484  0.70708  1.0000 0.0800853265
H   H388      1.0  0.85907  0.23516  0.20708  1.0000 0.0800853265
H   H389      1.0  0.02052  0.70594  0.56860  1.0000 0.1092201261
H   H390      1.0  0.97948  0.29406  0.06860  1.0000 0.1092201261
H   H391      1.0  0.97948  0.70594  0.93140  1.0000 0.1092201261
H   H392      1.0  0.02052  0.29406  0.43140  1.0000 0.1092201261
H   H393      1.0  0.91698  0.70027  0.55584  1.0000 0.0984734701
H   H394      1.0  0.08302  0.29973  0.05584  1.0000 0.0984734701
H   H395      1.0  0.08302  0.70027  0.94416  1.0000 0.0984734701
H   H396      1.0  0.91698  0.29973  0.44416  1.0000 0.0984734701
H   H397      1.0  0.97691  0.74817  0.52315  1.0000 0.1181384767
H   H398      1.0  0.02309  0.25183  0.02315  1.0000 0.1181384767
H   H399      1.0  0.02309  0.74817  0.97685  1.0000 0.1181384767
H   H400      1.0  0.97691  0.25183  0.47685  1.0000 0.1181384767
C   C1        1.0  0.61530  0.33452  0.30603  1.0000 0.558146654
C   C2        1.0  0.38470  0.66548  0.80603  1.0000 0.558146654
C   C3        1.0  0.38470  0.33452  0.19397  1.0000 0.558146654
C   C4        1.0  0.61530  0.66548  0.69397  1.0000 0.558146654
C   C5        1.0  0.88596  0.39255  0.80632  1.0000 0.558146654
C   C6        1.0  0.11404  0.60745  0.30632  1.0000 0.558146654
C   C7        1.0  0.11404  0.39255  0.69368  1.0000 0.558146654
C   C8        1.0  0.88596  0.60745  0.19368  1.0000 0.558146654
C   C9        1.0  0.82597  0.37793  0.63024  1.0000 0.5502502828
C   C10       1.0  0.17403  0.62207  0.13024  1.0000 0.5502502828
C   C11       1.0  0.17403  0.37793  0.86976  1.0000 0.5502502828
C   C12       1.0  0.82597  0.62207  0.36976  1.0000 0.5502502828
C   C13       1.0  0.60359  0.54804  0.21255  1.0000 0.1092201261
C   C14       1.0  0.39641  0.45196  0.71255  1.0000 0.1092201261
C   C15       1.0  0.39641  0.54804  0.28745  1.0000 0.1092201261
C   C16       1.0  0.60359  0.45196  0.78745  1.0000 0.1092201261
C   C17       1.0  0.63994  0.33429  0.35573  1.0000 -0.0404489999
C   C18       1.0  0.36006  0.66571  0.85573  1.0000 -0.0404489999
C   C19       1.0  0.36006  0.33429  0.14427  1.0000 -0.0404489999
C   C20       1.0  0.63994  0.66571  0.64427  1.0000 -0.0404489999
C   C21       1.0  0.85878  0.38176  0.85480  1.0000 -0.0404489999
C   C22       1.0  0.14122  0.61824  0.35480  1.0000 -0.0404489999
C   C23       1.0  0.14122  0.38176  0.64520  1.0000 -0.0404489999
C   C24       1.0  0.85878  0.61824  0.14520  1.0000 -0.0404489999
C   C25       1.0  0.88171  0.36941  0.93711  1.0000 -0.1301909776
C   C26       1.0  0.11829  0.63059  0.43711  1.0000 -0.1301909776
C   C27       1.0  0.11829  0.36941  0.56289  1.0000 -0.1301909776
C   C28       1.0  0.88171  0.63059  0.06289  1.0000 -0.1301909776
C   C29       1.0  0.62196  0.20762  0.24291  1.0000 0.0984734701
C   C30       1.0  0.37804  0.79238  0.74291  1.0000 0.0984734701
C   C31       1.0  0.37804  0.20762  0.25709  1.0000 0.0984734701
C   C32       1.0  0.62196  0.79238  0.75709  1.0000 0.0984734701
C   C33       1.0  0.61523  0.34538  0.43773  1.0000 -0.1301909776
C   C34       1.0  0.38477  0.65462  0.93773  1.0000 -0.1301909776
C   C35       1.0  0.38477  0.34538  0.06227  1.0000 -0.1301909776
C   C36       1.0  0.61523  0.65462  0.56227  1.0000 -0.1301909776
C   C37       1.0  0.78003  0.37204  0.86282  1.0000 -0.0789068258
C   C38       1.0  0.21997  0.62796  0.36282  1.0000 -0.0789068258
C   C39       1.0  0.21997  0.37204  0.63718  1.0000 -0.0789068258
C   C40       1.0  0.78003  0.62796  0.13718  1.0000 -0.0789068258
C   C41       1.0  0.62186  0.14984  0.24227  1.0000 -0.1792880685
C   C42       1.0  0.37814  0.85016  0.74227  1.0000 -0.1792880685
C   C43       1.0  0.37814  0.14984  0.25773  1.0000 -0.1792880685
C   C44       1.0  0.62186  0.85016  0.75773  1.0000 -0.1792880685
C   C45       1.0  0.67289  0.33089  0.12933  1.0000 0.5502502828
C   C46       1.0  0.32711  0.66911  0.62933  1.0000 0.5502502828
C   C47       1.0  0.32711  0.33089  0.37067  1.0000 0.5502502828
C   C48       1.0  0.67289  0.66911  0.87067  1.0000 0.5502502828
C   C49       1.0  0.61654  0.72626  0.19762  1.0000 0.2812046815
C   C50       1.0  0.38346  0.27374  0.69762  1.0000 0.2812046815
C   C51       1.0  0.38346  0.72626  0.30238  1.0000 0.2812046815
C   C52       1.0  0.61654  0.27374  0.80238  1.0000 0.2812046815
C   C53       1.0  0.87462  0.52213  0.73456  1.0000 0.0904273785
C   C54       1.0  0.12538  0.47787  0.23456  1.0000 0.0904273785
C   C55       1.0  0.12538  0.52213  0.76544  1.0000 0.0904273785
C   C56       1.0  0.87462  0.47787  0.26544  1.0000 0.0904273785
C   C57       1.0  0.58108  0.12035  0.20821  1.0000 0.0984734701
C   C58       1.0  0.41892  0.87965  0.70821  1.0000 0.0984734701
C   C59       1.0  0.41892  0.12035  0.29179  1.0000 0.0984734701
C   C60       1.0  0.58108  0.87965  0.79179  1.0000 0.0984734701
C   C61       1.0  0.54035  0.46079  0.19325  1.0000 0.0984734701
C   C62       1.0  0.45965  0.53921  0.69325  1.0000 0.0984734701
C   C63       1.0  0.45965  0.46079  0.30675  1.0000 0.0984734701
C   C64       1.0  0.54035  0.53921  0.80675  1.0000 0.0984734701
C   C65       1.0  0.69575  0.36915  0.00272  1.0000 -0.138770898
C   C66       1.0  0.30425  0.63085  0.50272  1.0000 -0.138770898
C   C67       1.0  0.30425  0.36915  0.49728  1.0000 -0.138770898
C   C68       1.0  0.69575  0.63085  0.99728  1.0000 -0.138770898
C   C69       1.0  0.91753  0.60618  0.69559  1.0000 0.1092201261
C   C70       1.0  0.08247  0.39382  0.19559  1.0000 0.1092201261
C   C71       1.0  0.08247  0.60618  0.80441  1.0000 0.1092201261
C   C72       1.0  0.91753  0.39382  0.30441  1.0000 0.1092201261
C   C73       1.0  0.87774  0.57983  0.73181  1.0000 -0.1726614824
C   C74       1.0  0.12226  0.42017  0.23181  1.0000 -0.1726614824
C   C75       1.0  0.12226  0.57983  0.76819  1.0000 -0.1726614824
C   C76       1.0  0.87774  0.42017  0.26819  1.0000 -0.1726614824
C   C77       1.0  0.57677  0.63606  0.17040  1.0000 -0.1507234478
C   C78       1.0  0.42323  0.36394  0.67040  1.0000 -0.1507234478
C   C79       1.0  0.42323  0.63606  0.32960  1.0000 -0.1507234478
C   C80       1.0  0.57677  0.36394  0.82960  1.0000 -0.1507234478
C   C81       1.0  0.93509  0.69231  0.64753  1.0000 -0.1507234478
C   C82       1.0  0.06491  0.30769  0.14753  1.0000 -0.1507234478
C   C83       1.0  0.06491  0.69231  0.85247  1.0000 -0.1507234478
C   C84       1.0  0.93509  0.30769  0.35247  1.0000 -0.1507234478
C   C85       1.0  0.74469  0.32841  0.41109  1.0000 -0.1301909776
C   C86       1.0  0.25531  0.67159  0.91109  1.0000 -0.1301909776
C   C87       1.0  0.25531  0.32841  0.08891  1.0000 -0.1301909776
C   C88       1.0  0.74469  0.67159  0.58891  1.0000 -0.1301909776
C   C89       1.0  0.93117  0.18256  0.70018  1.0000 0.0984734701
C   C90       1.0  0.06883  0.81744  0.20018  1.0000 0.0984734701
C   C91       1.0  0.06883  0.18256  0.79982  1.0000 0.0984734701
C   C92       1.0  0.93117  0.81744  0.29982  1.0000 0.0984734701
C   C93       1.0  0.71839  0.32600  0.36596  1.0000 -0.0789068258
C   C94       1.0  0.28161  0.67400  0.86596  1.0000 -0.0789068258
C   C95       1.0  0.28161  0.32600  0.13404  1.0000 -0.0789068258
C   C96       1.0  0.71839  0.67400  0.63404  1.0000 -0.0789068258
C   C97       1.0  0.69430  0.34004  0.44765  1.0000 0.070811458
C   C98       1.0  0.30570  0.65996  0.94765  1.0000 0.070811458
C   C99       1.0  0.30570  0.34004  0.05235  1.0000 0.070811458
C   C100      1.0  0.69430  0.65996  0.55235  1.0000 0.070811458
C   C101      1.0  0.58396  0.05910  0.20541  1.0000 0.0287308577
C   C102      1.0  0.41604  0.94090  0.70541  1.0000 0.0287308577
C   C103      1.0  0.41604  0.05910  0.29459  1.0000 0.0287308577
C   C104      1.0  0.58396  0.94090  0.79459  1.0000 0.0287308577
C   C105      1.0  0.91035  0.00536  0.67966  1.0000 0.2812046815
C   C106      1.0  0.08965  0.99464  0.17966  1.0000 0.2812046815
C   C107      1.0  0.08965  0.00536  0.82034  1.0000 0.2812046815
C   C108      1.0  0.91035  0.99464  0.32034  1.0000 0.2812046815
C   C109      1.0  0.95438  0.51271  0.67150  1.0000 0.1092201261
C   C110      1.0  0.04562  0.48729  0.17150  1.0000 0.1092201261
C   C111      1.0  0.04562  0.51271  0.82850  1.0000 0.1092201261
C   C112      1.0  0.95438  0.48729  0.32850  1.0000 0.1092201261
C   C113      1.0  0.65196  0.45755  0.23628  1.0000 0.0904273785
C   C114      1.0  0.34804  0.54245  0.73628  1.0000 0.0904273785
C   C115      1.0  0.34804  0.45755  0.26372  1.0000 0.0904273785
C   C116      1.0  0.65196  0.54245  0.76372  1.0000 0.0904273785
C   C117      1.0  0.60372  0.02722  0.24379  1.0000 -0.1301909776
C   C118      1.0  0.39628  0.97278  0.74379  1.0000 -0.1301909776
C   C119      1.0  0.39628  0.02722  0.25621  1.0000 -0.1301909776
C   C120      1.0  0.60372  0.97278  0.75621  1.0000 -0.1301909776
C   C121      1.0  0.54276  0.51851  0.19174  1.0000 -0.1792880685
C   C122      1.0  0.45724  0.48149  0.69174  1.0000 -0.1792880685
C   C123      1.0  0.45724  0.51851  0.30826  1.0000 -0.1792880685
C   C124      1.0  0.54276  0.48149  0.80826  1.0000 -0.1792880685
C   C125      1.0  0.77119  0.35173  0.99231  1.0000 0.070811458
C   C126      1.0  0.22881  0.64827  0.49231  1.0000 0.070811458
C   C127      1.0  0.22881  0.35173  0.50769  1.0000 0.070811458
C   C128      1.0  0.77119  0.64827  0.00769  1.0000 0.070811458
C   C129      1.0  0.80639  0.35918  0.50024  1.0000 -0.1301909776
C   C130      1.0  0.19361  0.64082  0.00024  1.0000 -0.1301909776
C   C131      1.0  0.19361  0.35918  0.99976  1.0000 -0.1301909776
C   C132      1.0  0.80639  0.64082  0.49976  1.0000 -0.1301909776
C   C133      1.0  0.83801  0.36750  0.54382  1.0000 -0.0899927446
C   C134      1.0  0.16199  0.63250  0.04382  1.0000 -0.0899927446
C   C135      1.0  0.16199  0.36750  0.95618  1.0000 -0.0899927446
C   C136      1.0  0.83801  0.63250  0.45618  1.0000 -0.0899927446
C   C137      1.0  0.79102  0.36701  0.58351  1.0000 -0.0299021767
C   C138      1.0  0.20898  0.63299  0.08351  1.0000 -0.0299021767
C   C139      1.0  0.20898  0.36701  0.91649  1.0000 -0.0299021767
C   C140      1.0  0.79102  0.63299  0.41649  1.0000 -0.0299021767
C   C141      1.0  0.71154  0.35854  0.57759  1.0000 -0.0899927446
C   C142      1.0  0.28846  0.64146  0.07759  1.0000 -0.0899927446
C   C143      1.0  0.28846  0.35854  0.92241  1.0000 -0.0899927446
C   C144      1.0  0.71154  0.64146  0.42241  1.0000 -0.0899927446
C   C145      1.0  0.67984  0.35025  0.53397  1.0000 -0.138770898
C   C146      1.0  0.32016  0.64975  0.03397  1.0000 -0.138770898
C   C147      1.0  0.32016  0.35025  0.96603  1.0000 -0.138770898
C   C148      1.0  0.67984  0.64975  0.46603  1.0000 -0.138770898
C   C149      1.0  0.72684  0.34947  0.49462  1.0000 0.070811458
C   C150      1.0  0.27316  0.65053  0.99462  1.0000 0.070811458
C   C151      1.0  0.27316  0.34947  0.00538  1.0000 0.070811458
C   C152      1.0  0.72684  0.65053  0.50538  1.0000 0.070811458
C   C153      1.0  0.66441  0.36115  0.04632  1.0000 -0.0899927446
C   C154      1.0  0.33559  0.63885  0.54632  1.0000 -0.0899927446
C   C155      1.0  0.33559  0.36115  0.45368  1.0000 -0.0899927446
C   C156      1.0  0.66441  0.63885  0.95368  1.0000 -0.0899927446
C   C157      1.0  0.75244  0.36258  0.90715  1.0000 -0.1301909776
C   C158      1.0  0.24756  0.63742  0.40715  1.0000 -0.1301909776
C   C159      1.0  0.24756  0.36258  0.59285  1.0000 -0.1301909776
C   C160      1.0  0.75244  0.63742  0.09285  1.0000 -0.1301909776
C   C161      1.0  0.64917  0.69927  0.23716  1.0000 -0.0789068258
C   C162      1.0  0.35083  0.30073  0.73716  1.0000 -0.0789068258
C   C163      1.0  0.35083  0.69927  0.26284  1.0000 -0.0789068258
C   C164      1.0  0.64917  0.30073  0.76284  1.0000 -0.0789068258
C   C165      1.0  0.59718  0.94222  0.19651  1.0000 0.2812046815
C   C166      1.0  0.40282  0.05778  0.69651  1.0000 0.2812046815
C   C167      1.0  0.40282  0.94222  0.30349  1.0000 0.2812046815
C   C168      1.0  0.59718  0.05778  0.80349  1.0000 0.2812046815
C   C169      1.0  0.58024  0.69261  0.16320  1.0000 -0.0460697764
C   C170      1.0  0.41976  0.30739  0.66320  1.0000 -0.0460697764
C   C171      1.0  0.41976  0.69261  0.33680  1.0000 -0.0460697764
C   C172      1.0  0.58024  0.30739  0.83680  1.0000 -0.0460697764
C   C173      1.0  0.89439  0.70083  0.72650  1.0000 -0.1301909776
C   C174      1.0  0.10561  0.29917  0.22650  1.0000 -0.1301909776
C   C175      1.0  0.10561  0.70083  0.77350  1.0000 -0.1301909776
C   C176      1.0  0.89439  0.29917  0.27350  1.0000 -0.1301909776
C   C177      1.0  0.60857  0.60926  0.20894  1.0000 0.0287308577
C   C178      1.0  0.39143  0.39074  0.70894  1.0000 0.0287308577
C   C179      1.0  0.39143  0.60926  0.29106  1.0000 0.0287308577
C   C180      1.0  0.60857  0.39074  0.79106  1.0000 0.0287308577
C   C181      1.0  0.54026  0.21096  0.18030  1.0000 0.0984734701
C   C182      1.0  0.45974  0.78904  0.68030  1.0000 0.0984734701
C   C183      1.0  0.45974  0.21096  0.31970  1.0000 0.0984734701
C   C184      1.0  0.54026  0.78904  0.81970  1.0000 0.0984734701
C   C185      1.0  0.64568  0.64132  0.24228  1.0000 -0.119669521
C   C186      1.0  0.35432  0.35868  0.74228  1.0000 -0.119669521
C   C187      1.0  0.35432  0.64132  0.25772  1.0000 -0.119669521
C   C188      1.0  0.64568  0.35868  0.75772  1.0000 -0.119669521
C   C189      1.0  0.71261  0.89877  0.36343  1.0000 -0.200003565
C   C190      1.0  0.28739  0.10123  0.86343  1.0000 -0.200003565
C   C191      1.0  0.28739  0.89877  0.13657  1.0000 -0.200003565
C   C192      1.0  0.71261  0.10123  0.63657  1.0000 -0.200003565
C   C193      1.0  0.90140  0.08787  0.72990  1.0000 -0.1301909776
C   C194      1.0  0.09860  0.91213  0.22990  1.0000 -0.1301909776
C   C195      1.0  0.09860  0.08787  0.77010  1.0000 -0.1301909776
C   C196      1.0  0.90140  0.91213  0.27010  1.0000 -0.1301909776
C   C197      1.0  0.57046  0.03204  0.16329  1.0000 -0.1507234478
C   C198      1.0  0.42954  0.96796  0.66329  1.0000 -0.1507234478
C   C199      1.0  0.42954  0.03204  0.33671  1.0000 -0.1507234478
C   C200      1.0  0.57046  0.96796  0.83671  1.0000 -0.1507234478
C   C201      1.0  0.67328  0.86178  0.32723  1.0000 0.0984734701
C   C202      1.0  0.32672  0.13822  0.82723  1.0000 0.0984734701
C   C203      1.0  0.32672  0.86178  0.17277  1.0000 0.0984734701
C   C204      1.0  0.67328  0.13822  0.67277  1.0000 0.0984734701
C   C205      1.0  0.65875  0.51532  0.23543  1.0000 -0.1726614824
C   C206      1.0  0.34125  0.48468  0.73543  1.0000 -0.1726614824
C   C207      1.0  0.34125  0.51532  0.26457  1.0000 -0.1726614824
C   C208      1.0  0.65875  0.48468  0.76457  1.0000 -0.1726614824
C   C209      1.0  0.57841  0.97551  0.15731  1.0000 -0.0404489999
C   C210      1.0  0.42159  0.02449  0.65731  1.0000 -0.0404489999
C   C211      1.0  0.42159  0.97551  0.34269  1.0000 -0.0404489999
C   C212      1.0  0.57841  0.02449  0.84269  1.0000 -0.0404489999
C   C213      1.0  0.53961  0.15314  0.17674  1.0000 -0.1792880685
C   C214      1.0  0.46039  0.84686  0.67674  1.0000 -0.1792880685
C   C215      1.0  0.46039  0.15314  0.32326  1.0000 -0.1792880685
C   C216      1.0  0.53961  0.84686  0.82326  1.0000 -0.1792880685
C   C217      1.0  0.74176  0.77699  0.35935  1.0000 -0.200003565
C   C218      1.0  0.25824  0.22301  0.85935  1.0000 -0.200003565
C   C219      1.0  0.25824  0.77699  0.14065  1.0000 -0.200003565
C   C220      1.0  0.74176  0.22301  0.64065  1.0000 -0.200003565
C   C221      1.0  0.89252  0.03067  0.72332  1.0000 -0.0789068258
C   C222      1.0  0.10748  0.96933  0.22332  1.0000 -0.0789068258
C   C223      1.0  0.10748  0.03067  0.77668  1.0000 -0.0789068258
C   C224      1.0  0.89252  0.96933  0.27668  1.0000 -0.0789068258
C   C225      1.0  0.77691  0.81398  0.39744  1.0000 -0.138770898
C   C226      1.0  0.22309  0.18602  0.89744  1.0000 -0.138770898
C   C227      1.0  0.22309  0.81398  0.10256  1.0000 -0.138770898
C   C228      1.0  0.77691  0.18602  0.60256  1.0000 -0.138770898
C   C229      1.0  0.80275  0.36099  0.94506  1.0000 0.070811458
C   C230      1.0  0.19725  0.63901  0.44506  1.0000 0.070811458
C   C231      1.0  0.19725  0.36099  0.55494  1.0000 0.070811458
C   C232      1.0  0.80275  0.63901  0.05494  1.0000 0.070811458
C   C233      1.0  0.96465  0.21812  0.66750  1.0000 -0.1792880685
C   C234      1.0  0.03535  0.78188  0.16750  1.0000 -0.1792880685
C   C235      1.0  0.03535  0.21812  0.83250  1.0000 -0.1792880685
C   C236      1.0  0.96465  0.78188  0.33250  1.0000 -0.1792880685
C   C237      1.0  0.96153  0.27553  0.67320  1.0000 0.0904273785
C   C238      1.0  0.03847  0.72447  0.17320  1.0000 0.0904273785
C   C239      1.0  0.03847  0.27553  0.82680  1.0000 0.0904273785
C   C240      1.0  0.96153  0.72447  0.32680  1.0000 0.0904273785
C   C241      1.0  0.72447  0.81195  0.31664  1.0000 0.0904273785
C   C242      1.0  0.27553  0.18805  0.81664  1.0000 0.0904273785
C   C243      1.0  0.27553  0.81195  0.18336  1.0000 0.0904273785
C   C244      1.0  0.72447  0.18805  0.68336  1.0000 0.0904273785
C   C245      1.0  0.89629  0.26684  0.74189  1.0000 0.0984734701
C   C246      1.0  0.10371  0.73316  0.24189  1.0000 0.0984734701
C   C247      1.0  0.10371  0.26684  0.75811  1.0000 0.0984734701
C   C248      1.0  0.89629  0.73316  0.25811  1.0000 0.0984734701
C   C249      1.0  0.94083  0.09705  0.65086  1.0000 -0.1507234478
C   C250      1.0  0.05917  0.90295  0.15086  1.0000 -0.1507234478
C   C251      1.0  0.05917  0.09705  0.84914  1.0000 -0.1507234478
C   C252      1.0  0.94083  0.90295  0.34914  1.0000 -0.1507234478
C   C253      1.0  0.72541  0.86433  0.40754  1.0000 -0.138770898
C   C254      1.0  0.27459  0.13567  0.90754  1.0000 -0.138770898
C   C255      1.0  0.27459  0.86433  0.09246  1.0000 -0.138770898
C   C256      1.0  0.72541  0.13567  0.59246  1.0000 -0.138770898
C   C257      1.0  0.92667  0.12166  0.69389  1.0000 0.0287308577
C   C258      1.0  0.07333  0.87834  0.19389  1.0000 0.0287308577
C   C259      1.0  0.07333  0.12166  0.80611  1.0000 0.0287308577
C   C260      1.0  0.92667  0.87834  0.30611  1.0000 0.0287308577
C   C261      1.0  0.79023  0.95521  0.84376  1.0000 -0.200003565
C   C262      1.0  0.20977  0.04479  0.34376  1.0000 -0.200003565
C   C263      1.0  0.20977  0.95521  0.65624  1.0000 -0.200003565
C   C264      1.0  0.79023  0.04479  0.15624  1.0000 -0.200003565
C   C265      1.0  0.64752  0.91862  0.09738  1.0000 -0.4032129959
C   C266      1.0  0.35248  0.08138  0.59738  1.0000 -0.4032129959
C   C267      1.0  0.35248  0.91862  0.40262  1.0000 -0.4032129959
C   C268      1.0  0.64752  0.08138  0.90262  1.0000 -0.4032129959
C   C269      1.0  0.57102  0.94875  0.11009  1.0000 0.2619404851
C   C270      1.0  0.42898  0.05125  0.61009  1.0000 0.2619404851
C   C271      1.0  0.42898  0.94875  0.38991  1.0000 0.2619404851
C   C272      1.0  0.57102  0.05125  0.88991  1.0000 0.2619404851
C   C273      1.0  0.91631  0.66720  0.68982  1.0000 0.0287308577
C   C274      1.0  0.08369  0.33280  0.18982  1.0000 0.0287308577
C   C275      1.0  0.08369  0.66720  0.81018  1.0000 0.0287308577
C   C276      1.0  0.91631  0.33280  0.31018  1.0000 0.0287308577
C   C277      1.0  0.74837  0.91997  0.88089  1.0000 -0.138770898
C   C278      1.0  0.25163  0.08003  0.38089  1.0000 -0.138770898
C   C279      1.0  0.25163  0.91997  0.61911  1.0000 -0.138770898
C   C280      1.0  0.74837  0.08003  0.11911  1.0000 -0.138770898
C   C281      1.0  0.89326  0.75855  0.72154  1.0000 -0.0789068258
C   C282      1.0  0.10674  0.24145  0.22154  1.0000 -0.0789068258
C   C283      1.0  0.10674  0.75855  0.77846  1.0000 -0.0789068258
C   C284      1.0  0.89326  0.24145  0.27846  1.0000 -0.0789068258
C   C285      1.0  0.89896  0.20901  0.73899  1.0000 -0.1726614824
C   C286      1.0  0.10104  0.79099  0.23899  1.0000 -0.1726614824
C   C287      1.0  0.10104  0.20901  0.76101  1.0000 -0.1726614824
C   C288      1.0  0.89896  0.79099  0.26101  1.0000 -0.1726614824
C   C289      1.0  0.93150  0.04110  0.64231  1.0000 -0.0460697764
C   C290      1.0  0.06850  0.95890  0.14231  1.0000 -0.0460697764
C   C291      1.0  0.06850  0.04110  0.85769  1.0000 -0.0460697764
C   C292      1.0  0.93150  0.95890  0.35769  1.0000 -0.0460697764
C   C293      1.0  0.63235  0.93917  0.28038  1.0000 0.1181384767
C   C294      1.0  0.36765  0.06083  0.78038  1.0000 0.1181384767
C   C295      1.0  0.36765  0.93917  0.21962  1.0000 0.1181384767
C   C296      1.0  0.63235  0.06083  0.71962  1.0000 0.1181384767
C   C297      1.0  0.91454  0.78423  0.67863  1.0000 0.2720378249
C   C298      1.0  0.08546  0.21577  0.17863  1.0000 0.2720378249
C   C299      1.0  0.08546  0.78423  0.82137  1.0000 0.2720378249
C   C300      1.0  0.91454  0.21577  0.32137  1.0000 0.2720378249
C   C301      1.0  0.84577  0.86747  0.80997  1.0000 0.0984734701
C   C302      1.0  0.15423  0.13253  0.30997  1.0000 0.0984734701
C   C303      1.0  0.15423  0.86747  0.69003  1.0000 0.0984734701
C   C304      1.0  0.84577  0.13253  0.19003  1.0000 0.0984734701
C   C305      1.0  0.61061  0.96955  0.23989  1.0000 -0.0789068258
C   C306      1.0  0.38939  0.03045  0.73989  1.0000 -0.0789068258
C   C307      1.0  0.38939  0.96955  0.26011  1.0000 -0.0789068258
C   C308      1.0  0.61061  0.03045  0.76011  1.0000 -0.0789068258
C   C309      1.0  0.68396  0.73039  0.27393  1.0000 0.1181384767
C   C310      1.0  0.31604  0.26961  0.77393  1.0000 0.1181384767
C   C311      1.0  0.31604  0.73039  0.22607  1.0000 0.1181384767
C   C312      1.0  0.68396  0.26961  0.72607  1.0000 0.1181384767
C   C313      1.0  0.80293  0.92113  0.80018  1.0000 0.0984734701
C   C314      1.0  0.19707  0.07887  0.30018  1.0000 0.0984734701
C   C315      1.0  0.19707  0.92113  0.69982  1.0000 0.0984734701
C   C316      1.0  0.80293  0.07887  0.19982  1.0000 0.0984734701
C   C317      1.0  0.78871  0.86422  0.88974  1.0000 -0.138770898
C   C318      1.0  0.21129  0.13578  0.38974  1.0000 -0.138770898
C   C319      1.0  0.21129  0.86422  0.61026  1.0000 -0.138770898
C   C320      1.0  0.78871  0.13578  0.11026  1.0000 -0.138770898
C   C321      1.0  0.50386  0.90640  0.11037  1.0000 -0.4088339343
C   C322      1.0  0.49614  0.09360  0.61037  1.0000 -0.4088339343
C   C323      1.0  0.49614  0.90640  0.38963  1.0000 -0.4088339343
C   C324      1.0  0.50386  0.09360  0.88963  1.0000 -0.4088339343
C   C325      1.0  0.80050  0.83171  0.84454  1.0000 -0.200003565
C   C326      1.0  0.19950  0.16829  0.34454  1.0000 -0.200003565
C   C327      1.0  0.19950  0.83171  0.65546  1.0000 -0.200003565
C   C328      1.0  0.80050  0.16829  0.15546  1.0000 -0.200003565
C   C329      1.0  0.95743  0.57049  0.66559  1.0000 -0.1792880685
C   C330      1.0  0.04257  0.42951  0.16559  1.0000 -0.1792880685
C   C331      1.0  0.04257  0.57049  0.83441  1.0000 -0.1792880685
C   C332      1.0  0.95743  0.42951  0.33441  1.0000 -0.1792880685
C   C333      1.0  0.59971  0.75648  0.09423  1.0000 -0.4088339343
C   C334      1.0  0.40029  0.24352  0.59423  1.0000 -0.4088339343
C   C335      1.0  0.40029  0.75648  0.40577  1.0000 -0.4088339343
C   C336      1.0  0.59971  0.24352  0.90577  1.0000 -0.4088339343
C   C337      1.0  0.95666  0.06378  0.55863  1.0000 -0.4088339343
C   C338      1.0  0.04334  0.93622  0.05863  1.0000 -0.4088339343
C   C339      1.0  0.04334  0.06378  0.94137  1.0000 -0.4088339343
C   C340      1.0  0.95666  0.93622  0.44137  1.0000 -0.4088339343
C   C341      1.0  0.78275  0.31821  0.07104  1.0000 -0.0960552336
C   C342      1.0  0.21725  0.68179  0.57104  1.0000 -0.0960552336
C   C343      1.0  0.21725  0.31821  0.42896  1.0000 -0.0960552336
C   C344      1.0  0.78275  0.68179  0.92896  1.0000 -0.0960552336
C   C345      1.0  0.90930  0.38004  0.89276  1.0000 -0.0960552336
C   C346      1.0  0.09070  0.61996  0.39276  1.0000 -0.0960552336
C   C347      1.0  0.09070  0.38004  0.60724  1.0000 -0.0960552336
C   C348      1.0  0.90930  0.61996  0.10724  1.0000 -0.0960552336
C   C349      1.0  0.54285  0.71894  0.12127  1.0000 0.2619404851
C   C350      1.0  0.45715  0.28106  0.62127  1.0000 0.2619404851
C   C351      1.0  0.45715  0.71894  0.37873  1.0000 0.2619404851
C   C352      1.0  0.54285  0.28106  0.87873  1.0000 0.2619404851
C   C353      1.0  0.51078  0.67511  0.08773  1.0000 -0.4088339343
C   C354      1.0  0.48922  0.32489  0.58773  1.0000 -0.4088339343
C   C355      1.0  0.48922  0.67511  0.41227  1.0000 -0.4088339343
C   C356      1.0  0.51078  0.32489  0.91227  1.0000 -0.4088339343
C   C357      1.0  0.94090  0.01767  0.59423  1.0000 0.2619404851
C   C358      1.0  0.05910  0.98233  0.09423  1.0000 0.2619404851
C   C359      1.0  0.05910  0.01767  0.90577  1.0000 0.2619404851
C   C360      1.0  0.94090  0.98233  0.40577  1.0000 0.2619404851
C   C361      1.0  0.81461  0.32621  0.02725  1.0000 -0.138770898
C   C362      1.0  0.18539  0.67379  0.52725  1.0000 -0.138770898
C   C363      1.0  0.18539  0.32621  0.47275  1.0000 -0.138770898
C   C364      1.0  0.81461  0.67379  0.97275  1.0000 -0.138770898
C   C365      1.0  0.55475  0.99202  0.07220  1.0000 -0.4088339343
C   C366      1.0  0.44525  0.00798  0.57220  1.0000 -0.4088339343
C   C367      1.0  0.44525  0.99202  0.42780  1.0000 -0.4088339343
C   C368      1.0  0.55475  0.00798  0.92780  1.0000 -0.4088339343
C   C369      1.0  0.86065  0.99969  0.76107  1.0000 0.1298498016
C   C370      1.0  0.13935  0.00031  0.26107  1.0000 0.1298498016
C   C371      1.0  0.13935  0.99969  0.73893  1.0000 0.1298498016
C   C372      1.0  0.86065  0.00031  0.23893  1.0000 0.1298498016
C   C373      1.0  0.93370  0.74910  0.64069  1.0000 -0.0404489999
C   C374      1.0  0.06630  0.25090  0.14069  1.0000 -0.0404489999
C   C375      1.0  0.06630  0.74910  0.85931  1.0000 -0.0404489999
C   C376      1.0  0.93370  0.25090  0.35931  1.0000 -0.0404489999
C   C377      1.0  0.47354  0.75511  0.13714  1.0000 -0.4088339343
C   C378      1.0  0.52646  0.24489  0.63714  1.0000 -0.4088339343
C   C379      1.0  0.52646  0.75511  0.36286  1.0000 -0.4088339343
C   C380      1.0  0.47354  0.24489  0.86286  1.0000 -0.4088339343
C   C381      1.0  0.58842  0.34320  0.39233  1.0000 -0.0899927446
C   C382      1.0  0.41158  0.65680  0.89233  1.0000 -0.0899927446
C   C383      1.0  0.41158  0.34320  0.10767  1.0000 -0.0899927446
C   C384      1.0  0.58842  0.65680  0.60767  1.0000 -0.0899927446
C   C385      1.0  0.70751  0.33579  0.08162  1.0000 -0.0203994677
C   C386      1.0  0.29249  0.66421  0.58162  1.0000 -0.0203994677
C   C387      1.0  0.29249  0.33579  0.41838  1.0000 -0.0203994677
C   C388      1.0  0.70751  0.66421  0.91838  1.0000 -0.0203994677
C   C389      1.0  0.86540  0.98774  0.57893  1.0000 -0.4032129959
C   C390      1.0  0.13460  0.01226  0.07893  1.0000 -0.4032129959
C   C391      1.0  0.13460  0.98774  0.92107  1.0000 -0.4032129959
C   C392      1.0  0.86540  0.01226  0.42107  1.0000 -0.4032129959
C   C393      1.0  0.94988  0.77411  0.59350  1.0000 0.2619404851
C   C394      1.0  0.05012  0.22589  0.09350  1.0000 0.2619404851
C   C395      1.0  0.05012  0.77411  0.90650  1.0000 0.2619404851
C   C396      1.0  0.94988  0.22589  0.40650  1.0000 0.2619404851
C   C397      1.0  0.87781  0.80653  0.57669  1.0000 -0.4088339343
C   C398      1.0  0.12219  0.19347  0.07669  1.0000 -0.4088339343
C   C399      1.0  0.12219  0.80653  0.92331  1.0000 -0.4088339343
C   C400      1.0  0.87781  0.19347  0.42331  1.0000 -0.4088339343
C   C401      1.0  0.02030  0.81402  0.59464  1.0000 -0.4088339343
C   C402      1.0  0.97970  0.18598  0.09464  1.0000 -0.4088339343
C   C403      1.0  0.97970  0.81402  0.90536  1.0000 -0.4088339343
C   C404      1.0  0.02030  0.18598  0.40536  1.0000 -0.4088339343
C   C405      1.0  0.00963  0.97662  0.59290  1.0000 -0.4088339343
C   C406      1.0  0.99037  0.02338  0.09290  1.0000 -0.4088339343
C   C407      1.0  0.99037  0.97662  0.90710  1.0000 -0.4088339343
C   C408      1.0  0.00963  0.02338  0.40710  1.0000 -0.4088339343
C   C409      1.0  0.87048  0.78933  0.76124  1.0000 0.1181384767
C   C410      1.0  0.12952  0.21067  0.26124  1.0000 0.1181384767
C   C411      1.0  0.12952  0.78933  0.73876  1.0000 0.1181384767
C   C412      1.0  0.87048  0.21067  0.23876  1.0000 0.1181384767
C   C413      1.0  0.96744  0.72876  0.55786  1.0000 -0.4088339343
C   C414      1.0  0.03256  0.27124  0.05786  1.0000 -0.4088339343
C   C415      1.0  0.03256  0.72876  0.94214  1.0000 -0.4088339343
C   C416      1.0  0.96744  0.27124  0.44214  1.0000 -0.4088339343
N   N1        1.0  0.92598  0.30110  0.70929  1.0000 -0.2504000791
N   N2        1.0  0.07402  0.69890  0.20929  1.0000 -0.2504000791
N   N3        1.0  0.07402  0.30110  0.79071  1.0000 -0.2504000791
N   N4        1.0  0.92598  0.69890  0.29071  1.0000 -0.2504000791
N   N5        1.0  0.59403  0.42908  0.21510  1.0000 -0.2504000791
N   N6        1.0  0.40597  0.57092  0.71510  1.0000 -0.2504000791
N   N7        1.0  0.40597  0.42908  0.28490  1.0000 -0.2504000791
N   N8        1.0  0.59403  0.57092  0.78490  1.0000 -0.2504000791
N   N9        1.0  0.91246  0.48766  0.70506  1.0000 -0.2504000791
N   N10       1.0  0.08754  0.51234  0.20506  1.0000 -0.2504000791
N   N11       1.0  0.08754  0.48766  0.79494  1.0000 -0.2504000791
N   N12       1.0  0.91246  0.51234  0.29494  1.0000 -0.2504000791
N   N13       1.0  0.58159  0.23937  0.21244  1.0000 -0.2504000791
N   N14       1.0  0.41841  0.76063  0.71244  1.0000 -0.2504000791
N   N15       1.0  0.41841  0.23937  0.28756  1.0000 -0.2504000791
N   N16       1.0  0.58159  0.76063  0.78756  1.0000 -0.2504000791
N   N17       1.0  0.84524  0.94638  0.76097  1.0000 -0.4032129959
N   N18       1.0  0.15476  0.05362  0.26097  1.0000 -0.4032129959
N   N19       1.0  0.15476  0.94638  0.73903  1.0000 -0.4032129959
N   N20       1.0  0.84524  0.05362  0.23903  1.0000 -0.4032129959
N   N21       1.0  0.65676  0.88750  0.28156  1.0000 -0.4088339343
N   N22       1.0  0.34324  0.11250  0.78156  1.0000 -0.4088339343
N   N23       1.0  0.34324  0.88750  0.21844  1.0000 -0.4088339343
N   N24       1.0  0.65676  0.11250  0.71844  1.0000 -0.4088339343
N   N25       1.0  0.68718  0.78468  0.27676  1.0000 -0.4088339343
N   N26       1.0  0.31282  0.21532  0.77676  1.0000 -0.4088339343
N   N27       1.0  0.31282  0.78468  0.22324  1.0000 -0.4088339343
N   N28       1.0  0.68718  0.21532  0.72324  1.0000 -0.4088339343
N   N29       1.0  0.86202  0.84369  0.76373  1.0000 -0.4154250787
N   N30       1.0  0.13798  0.15631  0.26373  1.0000 -0.4154250787
N   N31       1.0  0.13798  0.84369  0.73627  1.0000 -0.4154250787
N   N32       1.0  0.86202  0.15631  0.23627  1.0000 -0.4154250787
O   O1        1.0  0.60145  0.88747  0.19364  1.0000 -0.5392264516
O   O2        1.0  0.39855  0.11253  0.69364  1.0000 -0.5392264516
O   O3        1.0  0.39855  0.88747  0.30636  1.0000 -0.5392264516
O   O4        1.0  0.60145  0.11253  0.80636  1.0000 -0.5392264516
O   O5        1.0  0.66959  0.33116  0.27567  1.0000 -0.5471111527
O   O6        1.0  0.33041  0.66884  0.77567  1.0000 -0.5471111527
O   O7        1.0  0.33041  0.33116  0.22433  1.0000 -0.5471111527
O   O8        1.0  0.66959  0.66884  0.72433  1.0000 -0.5471111527
O   O9        1.0  0.89921  0.38826  0.63007  1.0000 -0.5685683952
O   O10       1.0  0.10079  0.61174  0.13007  1.0000 -0.5685683952
O   O11       1.0  0.10079  0.38826  0.86993  1.0000 -0.5685683952
O   O12       1.0  0.89921  0.61174  0.36993  1.0000 -0.5685683952
O   O13       1.0  0.59844  0.33604  0.13146  1.0000 -0.5685683952
O   O14       1.0  0.40156  0.66396  0.63146  1.0000 -0.5685683952
O   O15       1.0  0.40156  0.33604  0.36854  1.0000 -0.5685683952
O   O16       1.0  0.59844  0.66396  0.86854  1.0000 -0.5685683952
O   O17       1.0  0.54313  0.33821  0.29615  1.0000 -0.5885297002
O   O18       1.0  0.45687  0.66179  0.79615  1.0000 -0.5885297002
O   O19       1.0  0.45687  0.33821  0.20385  1.0000 -0.5885297002
O   O20       1.0  0.54313  0.66179  0.70385  1.0000 -0.5885297002
O   O21       1.0  0.04190  0.39894  0.70129  1.0000 -0.5885297002
O   O22       1.0  0.95810  0.60106  0.20129  1.0000 -0.5885297002
O   O23       1.0  0.95810  0.39894  0.79871  1.0000 -0.5885297002
O   O24       1.0  0.04190  0.60106  0.29871  1.0000 -0.5885297002
O   O25       1.0  0.83320  0.39389  0.77477  1.0000 -0.5471111527
O   O26       1.0  0.16680  0.60611  0.27477  1.0000 -0.5471111527
O   O27       1.0  0.16680  0.39389  0.72523  1.0000 -0.5471111527
O   O28       1.0  0.83320  0.60611  0.22523  1.0000 -0.5471111527
O   O29       1.0  0.61908  0.78121  0.19354  1.0000 -0.5392264516
O   O30       1.0  0.38092  0.21879  0.69354  1.0000 -0.5392264516
O   O31       1.0  0.38092  0.78121  0.30646  1.0000 -0.5392264516
O   O32       1.0  0.61908  0.21879  0.80646  1.0000 -0.5392264516
O   O33       1.0  0.78296  0.37578  0.66642  1.0000 -0.5685683952
O   O34       1.0  0.21704  0.62422  0.16642  1.0000 -0.5685683952
O   O35       1.0  0.21704  0.37578  0.83358  1.0000 -0.5685683952
O   O36       1.0  0.78296  0.62422  0.33358  1.0000 -0.5685683952
O   O37       1.0  0.91682  0.83924  0.67454  1.0000 -0.5392264516
O   O38       1.0  0.08318  0.16076  0.17454  1.0000 -0.5392264516
O   O39       1.0  0.08318  0.83924  0.82546  1.0000 -0.5392264516
O   O40       1.0  0.91682  0.16076  0.32546  1.0000 -0.5392264516
O   O41       1.0  0.71772  0.32347  0.16394  1.0000 -0.5685683952
O   O42       1.0  0.28228  0.67653  0.66394  1.0000 -0.5685683952
O   O43       1.0  0.28228  0.32347  0.33606  1.0000 -0.5685683952
O   O44       1.0  0.71772  0.67653  0.83606  1.0000 -0.5685683952
O   O45       1.0  0.75598  0.85112  0.20466  1.0000 -0.7451939673
O   O46       1.0  0.24402  0.14888  0.70466  1.0000 -0.7451939673
O   O47       1.0  0.24402  0.85112  0.29534  1.0000 -0.7451939673
O   O48       1.0  0.75598  0.14888  0.79534  1.0000 -0.7451939673
O   O49       1.0  0.90664  0.95089  0.67426  1.0000 -0.5471111527
O   O50       1.0  0.09336  0.04911  0.17426  1.0000 -0.5471111527
O   O51       1.0  0.09336  0.95089  0.82574  1.0000 -0.5471111527
O   O52       1.0  0.90664  0.04911  0.32574  1.0000 -0.5471111527
O   O53       1.0  0.77088  0.88711  0.68800  1.0000 -0.7285044582
O   O54       1.0  0.22912  0.11289  0.18800  1.0000 -0.7285044582
O   O55       1.0  0.22912  0.88711  0.81200  1.0000 -0.7285044582
O   O56       1.0  0.77088  0.11289  0.31200  1.0000 -0.7285044582
