# DDEC6 charges by PACMAN v1.1 (https://github.com/mtap-research/PACMAN-charge/)
data_2015[Cu][mmm]3[ASR]1
_chemical_formula_sum              "Cu16 H24 C56 I8 N8 O32"
_cell_length_a       19.209
_cell_length_b       19.209
_cell_length_c       10.991
_cell_angle_alpha    90
_cell_angle_beta     90
_cell_angle_gamma    90

_symmetry_space_group_name_H-M    "P 1"
_symmetry_Int_Tables_number       1

loop_
  _symmetry_equiv_pos_as_xyz
  'x, y, z'

loop_
  _atom_site_type_symbol
  _atom_site_label
  _atom_site_symmetry_multiplicity
  _atom_site_fract_x
  _atom_site_fract_y
  _atom_site_fract_z
  _atom_site_occupancy
  _atom_site_charge
Cu  Cu1       1.0  0.50000  0.43123  0.41381  1.0000 0.1518030373
Cu  Cu2       1.0  0.50000  0.56877  0.41381  1.0000 0.1518030373
Cu  Cu3       1.0  0.93123  0.00000  0.41381  1.0000 0.1518030373
Cu  Cu4       1.0  0.06877  0.00000  0.41381  1.0000 0.1518030373
Cu  Cu5       1.0  0.00000  0.06877  0.58619  1.0000 0.1518030373
Cu  Cu6       1.0  0.00000  0.93123  0.58619  1.0000 0.1518030373
Cu  Cu7       1.0  0.43123  0.50000  0.58619  1.0000 0.1518030373
Cu  Cu8       1.0  0.56877  0.50000  0.58619  1.0000 0.1518030373
Cu  Cu9       1.0  0.21932  0.28068  0.09488  1.0000 0.8641837371
Cu  Cu10      1.0  0.78068  0.71932  0.09488  1.0000 0.8651064766
Cu  Cu11      1.0  0.78068  0.28068  0.09488  1.0000 0.8651064766
Cu  Cu12      1.0  0.21932  0.71932  0.09488  1.0000 0.8651064766
Cu  Cu13      1.0  0.71932  0.21932  0.90512  1.0000 0.8651064766
Cu  Cu14      1.0  0.28068  0.78068  0.90512  1.0000 0.8651064766
Cu  Cu15      1.0  0.28068  0.21932  0.90512  1.0000 0.8641837371
Cu  Cu16      1.0  0.71932  0.78068  0.90512  1.0000 0.8651064766
H   H1        1.0  0.39900  0.34410  0.27520  1.0000 0.1222481413
H   H2        1.0  0.60100  0.65590  0.27520  1.0000 0.1222481413
H   H3        1.0  0.84410  0.10100  0.27520  1.0000 0.1222481413
H   H4        1.0  0.15590  0.89900  0.27520  1.0000 0.1222481413
H   H5        1.0  0.89900  0.15590  0.72480  1.0000 0.1222481413
H   H6        1.0  0.10100  0.84410  0.72480  1.0000 0.1222481413
H   H7        1.0  0.34410  0.39900  0.72480  1.0000 0.1222481413
H   H8        1.0  0.65590  0.60100  0.72480  1.0000 0.1222481413
H   H9        1.0  0.10100  0.15590  0.72480  1.0000 0.1222481413
H   H10       1.0  0.89900  0.84410  0.72480  1.0000 0.1222481413
H   H11       1.0  0.65590  0.39900  0.72480  1.0000 0.1222481413
H   H12       1.0  0.34410  0.60100  0.72480  1.0000 0.1222481413
H   H13       1.0  0.60100  0.34410  0.27520  1.0000 0.1222481413
H   H14       1.0  0.39900  0.65590  0.27520  1.0000 0.1222481413
H   H15       1.0  0.15590  0.10100  0.27520  1.0000 0.1222481413
H   H16       1.0  0.84410  0.89900  0.27520  1.0000 0.1222481413
H   H17       1.0  0.50000  0.23220  0.02640  1.0000 0.1441030336
H   H18       1.0  0.50000  0.76780  0.02640  1.0000 0.1441030336
H   H19       1.0  0.73220  0.00000  0.02640  1.0000 0.1441030336
H   H20       1.0  0.26780  0.00000  0.02640  1.0000 0.1441030336
H   H21       1.0  0.00000  0.26780  0.97360  1.0000 0.1441030336
H   H22       1.0  0.00000  0.73220  0.97360  1.0000 0.1441030336
H   H23       1.0  0.23220  0.50000  0.97360  1.0000 0.1441030336
H   H24       1.0  0.76780  0.50000  0.97360  1.0000 0.1441030336
C   C1        1.0  0.44078  0.32923  0.24120  1.0000 0.0796472012
C   C2        1.0  0.55922  0.67077  0.24120  1.0000 0.0796472012
C   C3        1.0  0.82923  0.05922  0.24120  1.0000 0.0796472012
C   C4        1.0  0.17077  0.94078  0.24120  1.0000 0.0796472012
C   C5        1.0  0.94078  0.17077  0.75880  1.0000 0.0796472012
C   C6        1.0  0.05922  0.82923  0.75880  1.0000 0.0796472012
C   C7        1.0  0.32923  0.44078  0.75880  1.0000 0.0796472012
C   C8        1.0  0.67077  0.55922  0.75880  1.0000 0.0796472012
C   C9        1.0  0.05922  0.17077  0.75880  1.0000 0.0796472012
C   C10       1.0  0.94078  0.82923  0.75880  1.0000 0.0796472012
C   C11       1.0  0.67077  0.44078  0.75880  1.0000 0.0796472012
C   C12       1.0  0.32923  0.55922  0.75880  1.0000 0.0796472012
C   C13       1.0  0.55922  0.32923  0.24120  1.0000 0.0796472012
C   C14       1.0  0.44078  0.67077  0.24120  1.0000 0.0796472012
C   C15       1.0  0.17077  0.05922  0.24120  1.0000 0.0796472012
C   C16       1.0  0.82923  0.94078  0.24120  1.0000 0.0796472012
C   C17       1.0  0.43817  0.28399  0.14380  1.0000 -0.070924627
C   C18       1.0  0.56183  0.71601  0.14380  1.0000 -0.070924627
C   C19       1.0  0.78399  0.06183  0.14380  1.0000 -0.070924627
C   C20       1.0  0.21601  0.93817  0.14380  1.0000 -0.070924627
C   C21       1.0  0.93817  0.21601  0.85620  1.0000 -0.070924627
C   C22       1.0  0.06183  0.78399  0.85620  1.0000 -0.070924627
C   C23       1.0  0.28399  0.43817  0.85620  1.0000 -0.070924627
C   C24       1.0  0.71601  0.56183  0.85620  1.0000 -0.070924627
C   C25       1.0  0.06183  0.21601  0.85620  1.0000 -0.070924627
C   C26       1.0  0.93817  0.78399  0.85620  1.0000 -0.070924627
C   C27       1.0  0.71601  0.43817  0.85620  1.0000 -0.070924627
C   C28       1.0  0.28399  0.56183  0.85620  1.0000 -0.070924627
C   C29       1.0  0.56183  0.28399  0.14380  1.0000 -0.070924627
C   C30       1.0  0.43817  0.71601  0.14380  1.0000 -0.070924627
C   C31       1.0  0.21601  0.06183  0.14380  1.0000 -0.070924627
C   C32       1.0  0.78399  0.93817  0.14380  1.0000 -0.070924627
C   C33       1.0  0.50000  0.26170  0.09340  1.0000 -0.0393878313
C   C34       1.0  0.50000  0.73830  0.09340  1.0000 -0.0393878313
C   C35       1.0  0.76170  0.00000  0.09340  1.0000 -0.0393878313
C   C36       1.0  0.23830  0.00000  0.09340  1.0000 -0.0393878313
C   C37       1.0  0.00000  0.23830  0.90660  1.0000 -0.0393878313
C   C38       1.0  0.00000  0.76170  0.90660  1.0000 -0.0393878313
C   C39       1.0  0.26170  0.50000  0.90660  1.0000 -0.0393878313
C   C40       1.0  0.73830  0.50000  0.90660  1.0000 -0.0393878313
C   C41       1.0  0.36866  0.26547  0.09120  1.0000 0.583851753
C   C42       1.0  0.63134  0.73453  0.09120  1.0000 0.583851753
C   C43       1.0  0.76547  0.13134  0.09120  1.0000 0.583851753
C   C44       1.0  0.23453  0.86866  0.09120  1.0000 0.583851753
C   C45       1.0  0.86866  0.23453  0.90880  1.0000 0.583851753
C   C46       1.0  0.13134  0.76547  0.90880  1.0000 0.583851753
C   C47       1.0  0.26547  0.36866  0.90880  1.0000 0.583851753
C   C48       1.0  0.73453  0.63134  0.90880  1.0000 0.583851753
C   C49       1.0  0.13134  0.23453  0.90880  1.0000 0.583851753
C   C50       1.0  0.86866  0.76547  0.90880  1.0000 0.583851753
C   C51       1.0  0.73453  0.36866  0.90880  1.0000 0.583851753
C   C52       1.0  0.26547  0.63134  0.90880  1.0000 0.583851753
C   C53       1.0  0.63134  0.26547  0.09120  1.0000 0.583851753
C   C54       1.0  0.36866  0.73453  0.09120  1.0000 0.583851753
C   C55       1.0  0.23453  0.13134  0.09120  1.0000 0.583851753
C   C56       1.0  0.76547  0.86866  0.09120  1.0000 0.583851753
I   I1        1.0  0.50000  0.37918  0.63633  1.0000 -0.3100705983
I   I2        1.0  0.50000  0.62082  0.63633  1.0000 -0.3100705983
I   I3        1.0  0.87918  0.00000  0.63633  1.0000 -0.3100705983
I   I4        1.0  0.12082  0.00000  0.63633  1.0000 -0.3100705983
I   I5        1.0  0.00000  0.12082  0.36367  1.0000 -0.3100705983
I   I6        1.0  0.00000  0.87918  0.36367  1.0000 -0.3100705983
I   I7        1.0  0.37918  0.50000  0.36367  1.0000 -0.3100705983
I   I8        1.0  0.62082  0.50000  0.36367  1.0000 -0.3100705983
N   N1        1.0  0.50000  0.35280  0.28930  1.0000 -0.1589105071
N   N2        1.0  0.50000  0.64720  0.28930  1.0000 -0.1589105071
N   N3        1.0  0.85280  0.00000  0.28930  1.0000 -0.1589105071
N   N4        1.0  0.14720  0.00000  0.28930  1.0000 -0.1589105071
N   N5        1.0  0.00000  0.14720  0.71070  1.0000 -0.1589105071
N   N6        1.0  0.00000  0.85280  0.71070  1.0000 -0.1589105071
N   N7        1.0  0.35280  0.50000  0.71070  1.0000 -0.1589105071
N   N8        1.0  0.64720  0.50000  0.71070  1.0000 -0.1589105071
O   O1        1.0  0.31636  0.28581  0.14944  1.0000 -0.5297903287
O   O2        1.0  0.68364  0.71419  0.14944  1.0000 -0.5297903287
O   O3        1.0  0.78581  0.18364  0.14944  1.0000 -0.5297903287
O   O4        1.0  0.21419  0.81636  0.14944  1.0000 -0.5297903287
O   O5        1.0  0.81636  0.21419  0.85056  1.0000 -0.5297903287
O   O6        1.0  0.18364  0.78581  0.85056  1.0000 -0.5297903287
O   O7        1.0  0.28581  0.31636  0.85056  1.0000 -0.5297903287
O   O8        1.0  0.71419  0.68364  0.85056  1.0000 -0.5297903287
O   O9        1.0  0.18364  0.21419  0.85056  1.0000 -0.5297903287
O   O10       1.0  0.81636  0.78581  0.85056  1.0000 -0.5297903287
O   O11       1.0  0.71419  0.31636  0.85056  1.0000 -0.5297903287
O   O12       1.0  0.28581  0.68364  0.85056  1.0000 -0.5297903287
O   O13       1.0  0.68364  0.28581  0.14944  1.0000 -0.5297903287
O   O14       1.0  0.31636  0.71419  0.14944  1.0000 -0.5297903287
O   O15       1.0  0.21419  0.18364  0.14944  1.0000 -0.5297903287
O   O16       1.0  0.78581  0.81636  0.14944  1.0000 -0.5297903287
O   O17       1.0  0.36855  0.23347  0.99230  1.0000 -0.5112386028
O   O18       1.0  0.63145  0.76653  0.99230  1.0000 -0.5112386028
O   O19       1.0  0.73347  0.13145  0.99230  1.0000 -0.5112386028
O   O20       1.0  0.26653  0.86855  0.99230  1.0000 -0.5112386028
O   O21       1.0  0.86855  0.26653  0.00770  1.0000 -0.5112386028
O   O22       1.0  0.13145  0.73347  0.00770  1.0000 -0.5112386028
O   O23       1.0  0.23347  0.36855  0.00770  1.0000 -0.5112386028
O   O24       1.0  0.76653  0.63145  0.00770  1.0000 -0.5112386028
O   O25       1.0  0.13145  0.26653  0.00770  1.0000 -0.5112386028
O   O26       1.0  0.86855  0.73347  0.00770  1.0000 -0.5112386028
O   O27       1.0  0.76653  0.36855  0.00770  1.0000 -0.5112386028
O   O28       1.0  0.23347  0.63145  0.00770  1.0000 -0.5112386028
O   O29       1.0  0.63145  0.23347  0.99230  1.0000 -0.5112386028
O   O30       1.0  0.36855  0.76653  0.99230  1.0000 -0.5112386028
O   O31       1.0  0.26653  0.13145  0.99230  1.0000 -0.5112386028
O   O32       1.0  0.73347  0.86855  0.99230  1.0000 -0.5112386028
