# DDEC6 charges by PACMAN v1.1 (https://github.com/mtap-research/PACMAN-charge/)
data_2015[Eu][bcu]3[ASR]1
_chemical_formula_sum              "Eu2 H48 C88 S8 N8 O24"
_cell_length_a       15.4313
_cell_length_b       15.4313
_cell_length_c       9.8884
_cell_angle_alpha    90
_cell_angle_beta     90
_cell_angle_gamma    90

_symmetry_space_group_name_H-M    "P 1"
_symmetry_Int_Tables_number       1

loop_
  _symmetry_equiv_pos_as_xyz
  'x, y, z'

loop_
  _atom_site_type_symbol
  _atom_site_label
  _atom_site_symmetry_multiplicity
  _atom_site_fract_x
  _atom_site_fract_y
  _atom_site_fract_z
  _atom_site_occupancy
  _atom_site_charge
Eu  Eu1       1.0  0.50000  0.50000  0.25000  1.0000 2.2703939118
Eu  Eu2       1.0  0.50000  0.50000  0.75000  1.0000 2.2703939118
H   H1        1.0  0.73800  0.41040  0.79810  1.0000 0.1421571164
H   H2        1.0  0.26200  0.58960  0.79810  1.0000 0.1421571164
H   H3        1.0  0.41040  0.26200  0.79810  1.0000 0.1421571164
H   H4        1.0  0.58960  0.73800  0.79810  1.0000 0.1421571164
H   H5        1.0  0.73800  0.58960  0.70190  1.0000 0.1421571164
H   H6        1.0  0.26200  0.41040  0.70190  1.0000 0.1421571164
H   H7        1.0  0.41040  0.73800  0.70190  1.0000 0.1421571164
H   H8        1.0  0.58960  0.26200  0.70190  1.0000 0.1421571164
H   H9        1.0  0.26200  0.58960  0.20190  1.0000 0.1421571164
H   H10       1.0  0.73800  0.41040  0.20190  1.0000 0.1421571164
H   H11       1.0  0.58960  0.73800  0.20190  1.0000 0.1421571164
H   H12       1.0  0.41040  0.26200  0.20190  1.0000 0.1421571164
H   H13       1.0  0.26200  0.41040  0.29810  1.0000 0.1421571164
H   H14       1.0  0.73800  0.58960  0.29810  1.0000 0.1421571164
H   H15       1.0  0.58960  0.26200  0.29810  1.0000 0.1421571164
H   H16       1.0  0.41040  0.73800  0.29810  1.0000 0.1421571164
H   H17       1.0  0.82110  0.28570  0.79890  1.0000 0.1332177744
H   H18       1.0  0.17890  0.71430  0.79890  1.0000 0.1332177744
H   H19       1.0  0.28570  0.17890  0.79890  1.0000 0.1332177744
H   H20       1.0  0.71430  0.82110  0.79890  1.0000 0.1332177744
H   H21       1.0  0.82110  0.71430  0.70110  1.0000 0.1332177744
H   H22       1.0  0.17890  0.28570  0.70110  1.0000 0.1332177744
H   H23       1.0  0.28570  0.82110  0.70110  1.0000 0.1332177744
H   H24       1.0  0.71430  0.17890  0.70110  1.0000 0.1332177744
H   H25       1.0  0.17890  0.71430  0.20110  1.0000 0.1332177744
H   H26       1.0  0.82110  0.28570  0.20110  1.0000 0.1332177744
H   H27       1.0  0.71430  0.82110  0.20110  1.0000 0.1332177744
H   H28       1.0  0.28570  0.17890  0.20110  1.0000 0.1332177744
H   H29       1.0  0.17890  0.28570  0.29890  1.0000 0.1332177744
H   H30       1.0  0.82110  0.71430  0.29890  1.0000 0.1332177744
H   H31       1.0  0.71430  0.17890  0.29890  1.0000 0.1332177744
H   H32       1.0  0.28570  0.82110  0.29890  1.0000 0.1332177744
H   H33       1.0  0.99750  0.33260  0.00000  1.0000 0.1332177744
H   H34       1.0  0.00250  0.66740  0.00000  1.0000 0.1332177744
H   H35       1.0  0.33260  0.00250  0.00000  1.0000 0.1332177744
H   H36       1.0  0.66740  0.99750  0.00000  1.0000 0.1332177744
H   H37       1.0  0.99750  0.66740  0.50000  1.0000 0.1332177744
H   H38       1.0  0.00250  0.33260  0.50000  1.0000 0.1332177744
H   H39       1.0  0.33260  0.99750  0.50000  1.0000 0.1332177744
H   H40       1.0  0.66740  0.00250  0.50000  1.0000 0.1332177744
H   H41       1.0  0.15090  0.29650  0.00000  1.0000 0.1421571164
H   H42       1.0  0.84910  0.70350  0.00000  1.0000 0.1421571164
H   H43       1.0  0.29650  0.84910  0.00000  1.0000 0.1421571164
H   H44       1.0  0.70350  0.15090  0.00000  1.0000 0.1421571164
H   H45       1.0  0.15090  0.70350  0.50000  1.0000 0.1421571164
H   H46       1.0  0.84910  0.29650  0.50000  1.0000 0.1421571164
H   H47       1.0  0.29650  0.15090  0.50000  1.0000 0.1421571164
H   H48       1.0  0.70350  0.84910  0.50000  1.0000 0.1421571164
C   C1        1.0  0.73310  0.42290  0.00000  1.0000 -0.0855222903
C   C2        1.0  0.26690  0.57710  0.00000  1.0000 -0.0855222903
C   C3        1.0  0.42290  0.26690  0.00000  1.0000 -0.0855222903
C   C4        1.0  0.57710  0.73310  0.00000  1.0000 -0.0855222903
C   C5        1.0  0.73310  0.57710  0.50000  1.0000 -0.0855222903
C   C6        1.0  0.26690  0.42290  0.50000  1.0000 -0.0855222903
C   C7        1.0  0.42290  0.73310  0.50000  1.0000 -0.0855222903
C   C8        1.0  0.57710  0.26690  0.50000  1.0000 -0.0855222903
C   C9        1.0  0.75554  0.38575  0.87950  1.0000 -0.0693941376
C   C10       1.0  0.24446  0.61425  0.87950  1.0000 -0.0693941376
C   C11       1.0  0.38575  0.24446  0.87950  1.0000 -0.0693941376
C   C12       1.0  0.61425  0.75554  0.87950  1.0000 -0.0693941376
C   C13       1.0  0.75554  0.61425  0.62050  1.0000 -0.0693941376
C   C14       1.0  0.24446  0.38575  0.62050  1.0000 -0.0693941376
C   C15       1.0  0.38575  0.75554  0.62050  1.0000 -0.0693941376
C   C16       1.0  0.61425  0.24446  0.62050  1.0000 -0.0693941376
C   C17       1.0  0.24446  0.61425  0.12050  1.0000 -0.0693941376
C   C18       1.0  0.75554  0.38575  0.12050  1.0000 -0.0693941376
C   C19       1.0  0.61425  0.75554  0.12050  1.0000 -0.0693941376
C   C20       1.0  0.38575  0.24446  0.12050  1.0000 -0.0693941376
C   C21       1.0  0.24446  0.38575  0.37950  1.0000 -0.0693941376
C   C22       1.0  0.75554  0.61425  0.37950  1.0000 -0.0693941376
C   C23       1.0  0.61425  0.24446  0.37950  1.0000 -0.0693941376
C   C24       1.0  0.38575  0.75554  0.37950  1.0000 -0.0693941376
C   C25       1.0  0.80495  0.31064  0.88080  1.0000 -0.1151429153
C   C26       1.0  0.19505  0.68936  0.88080  1.0000 -0.1151429153
C   C27       1.0  0.31064  0.19505  0.88080  1.0000 -0.1151429153
C   C28       1.0  0.68936  0.80495  0.88080  1.0000 -0.1151429153
C   C29       1.0  0.80495  0.68936  0.61920  1.0000 -0.1151429153
C   C30       1.0  0.19505  0.31064  0.61920  1.0000 -0.1151429153
C   C31       1.0  0.31064  0.80495  0.61920  1.0000 -0.1151429153
C   C32       1.0  0.68936  0.19505  0.61920  1.0000 -0.1151429153
C   C33       1.0  0.19505  0.68936  0.11920  1.0000 -0.1151429153
C   C34       1.0  0.80495  0.31064  0.11920  1.0000 -0.1151429153
C   C35       1.0  0.68936  0.80495  0.11920  1.0000 -0.1151429153
C   C36       1.0  0.31064  0.19505  0.11920  1.0000 -0.1151429153
C   C37       1.0  0.19505  0.31064  0.38080  1.0000 -0.1151429153
C   C38       1.0  0.80495  0.68936  0.38080  1.0000 -0.1151429153
C   C39       1.0  0.68936  0.19505  0.38080  1.0000 -0.1151429153
C   C40       1.0  0.31064  0.80495  0.38080  1.0000 -0.1151429153
C   C41       1.0  0.83100  0.27170  0.00000  1.0000 0.0770765655
C   C42       1.0  0.16900  0.72830  0.00000  1.0000 0.0770765655
C   C43       1.0  0.27170  0.16900  0.00000  1.0000 0.0770765655
C   C44       1.0  0.72830  0.83100  0.00000  1.0000 0.0770765655
C   C45       1.0  0.83100  0.72830  0.50000  1.0000 0.0770765655
C   C46       1.0  0.16900  0.27170  0.50000  1.0000 0.0770765655
C   C47       1.0  0.27170  0.83100  0.50000  1.0000 0.0770765655
C   C48       1.0  0.72830  0.16900  0.50000  1.0000 0.0770765655
C   C49       1.0  0.88130  0.19040  0.00000  1.0000 -0.0398496393
C   C50       1.0  0.11870  0.80960  0.00000  1.0000 -0.0398496393
C   C51       1.0  0.19040  0.11870  0.00000  1.0000 -0.0398496393
C   C52       1.0  0.80960  0.88130  0.00000  1.0000 -0.0398496393
C   C53       1.0  0.88130  0.80960  0.50000  1.0000 -0.0398496393
C   C54       1.0  0.11870  0.19040  0.50000  1.0000 -0.0398496393
C   C55       1.0  0.19040  0.88130  0.50000  1.0000 -0.0398496393
C   C56       1.0  0.80960  0.11870  0.50000  1.0000 -0.0398496393
C   C57       1.0  0.97340  0.19730  0.00000  1.0000 0.1962716766
C   C58       1.0  0.02660  0.80270  0.00000  1.0000 0.1962716766
C   C59       1.0  0.19730  0.02660  0.00000  1.0000 0.1962716766
C   C60       1.0  0.80270  0.97340  0.00000  1.0000 0.1962716766
C   C61       1.0  0.97340  0.80270  0.50000  1.0000 0.1962716766
C   C62       1.0  0.02660  0.19730  0.50000  1.0000 0.1962716766
C   C63       1.0  0.19730  0.97340  0.50000  1.0000 0.1962716766
C   C64       1.0  0.80270  0.02660  0.50000  1.0000 0.1962716766
C   C65       1.0  0.02100  0.27710  0.00000  1.0000 -0.173685152
C   C66       1.0  0.97900  0.72290  0.00000  1.0000 -0.173685152
C   C67       1.0  0.27710  0.97900  0.00000  1.0000 -0.173685152
C   C68       1.0  0.72290  0.02100  0.00000  1.0000 -0.173685152
C   C69       1.0  0.02100  0.72290  0.50000  1.0000 -0.173685152
C   C70       1.0  0.97900  0.27710  0.50000  1.0000 -0.173685152
C   C71       1.0  0.27710  0.02100  0.50000  1.0000 -0.173685152
C   C72       1.0  0.72290  0.97900  0.50000  1.0000 -0.173685152
C   C73       1.0  0.10520  0.25730  0.00000  1.0000 -0.173685152
C   C74       1.0  0.89480  0.74270  0.00000  1.0000 -0.173685152
C   C75       1.0  0.25730  0.89480  0.00000  1.0000 -0.173685152
C   C76       1.0  0.74270  0.10520  0.00000  1.0000 -0.173685152
C   C77       1.0  0.10520  0.74270  0.50000  1.0000 -0.173685152
C   C78       1.0  0.89480  0.25730  0.50000  1.0000 -0.173685152
C   C79       1.0  0.25730  0.10520  0.50000  1.0000 -0.173685152
C   C80       1.0  0.74270  0.89480  0.50000  1.0000 -0.173685152
C   C81       1.0  0.11240  0.16600  0.00000  1.0000 0.1796270516
C   C82       1.0  0.88760  0.83400  0.00000  1.0000 0.1796270516
C   C83       1.0  0.16600  0.88760  0.00000  1.0000 0.1796270516
C   C84       1.0  0.83400  0.11240  0.00000  1.0000 0.1796270516
C   C85       1.0  0.11240  0.83400  0.50000  1.0000 0.1796270516
C   C86       1.0  0.88760  0.16600  0.50000  1.0000 0.1796270516
C   C87       1.0  0.16600  0.11240  0.50000  1.0000 0.1796270516
C   C88       1.0  0.83400  0.88760  0.50000  1.0000 0.1796270516
S   S1        1.0  0.68037  0.52493  0.00000  1.0000 1.2764603533
S   S2        1.0  0.31963  0.47507  0.00000  1.0000 1.2764603533
S   S3        1.0  0.52493  0.31963  0.00000  1.0000 1.2764603533
S   S4        1.0  0.47507  0.68037  0.00000  1.0000 1.2764603533
S   S5        1.0  0.68037  0.47507  0.50000  1.0000 1.2764603533
S   S6        1.0  0.31963  0.52493  0.50000  1.0000 1.2764603533
S   S7        1.0  0.52493  0.68037  0.50000  1.0000 1.2764603533
S   S8        1.0  0.47507  0.31963  0.50000  1.0000 1.2764603533
N   N1        1.0  0.03080  0.12913  0.00000  1.0000 -0.3108727559
N   N2        1.0  0.96920  0.87087  0.00000  1.0000 -0.3108727559
N   N3        1.0  0.12913  0.96920  0.00000  1.0000 -0.3108727559
N   N4        1.0  0.87087  0.03080  0.00000  1.0000 -0.3108727559
N   N5        1.0  0.03080  0.87087  0.50000  1.0000 -0.3108727559
N   N6        1.0  0.96920  0.12913  0.50000  1.0000 -0.3108727559
N   N7        1.0  0.12913  0.03080  0.50000  1.0000 -0.3108727559
N   N8        1.0  0.87087  0.96920  0.50000  1.0000 -0.3108727559
O   O1        1.0  0.62812  0.53020  0.12141  1.0000 -0.715122994
O   O2        1.0  0.37188  0.46980  0.12141  1.0000 -0.715122994
O   O3        1.0  0.53020  0.37188  0.12141  1.0000 -0.715122994
O   O4        1.0  0.46980  0.62812  0.12141  1.0000 -0.715122994
O   O5        1.0  0.62812  0.46980  0.37859  1.0000 -0.715122994
O   O6        1.0  0.37188  0.53020  0.37859  1.0000 -0.715122994
O   O7        1.0  0.53020  0.62812  0.37859  1.0000 -0.715122994
O   O8        1.0  0.46980  0.37188  0.37859  1.0000 -0.715122994
O   O9        1.0  0.37188  0.46980  0.87859  1.0000 -0.715122994
O   O10       1.0  0.62812  0.53020  0.87859  1.0000 -0.715122994
O   O11       1.0  0.46980  0.62812  0.87859  1.0000 -0.715122994
O   O12       1.0  0.53020  0.37188  0.87859  1.0000 -0.715122994
O   O13       1.0  0.37188  0.53020  0.62141  1.0000 -0.715122994
O   O14       1.0  0.62812  0.46980  0.62141  1.0000 -0.715122994
O   O15       1.0  0.46980  0.37188  0.62141  1.0000 -0.715122994
O   O16       1.0  0.53020  0.62812  0.62141  1.0000 -0.715122994
O   O17       1.0  0.74880  0.58727  0.00000  1.0000 -0.5402237139
O   O18       1.0  0.25120  0.41273  0.00000  1.0000 -0.5402237139
O   O19       1.0  0.58727  0.25120  0.00000  1.0000 -0.5402237139
O   O20       1.0  0.41273  0.74880  0.00000  1.0000 -0.5402237139
O   O21       1.0  0.74880  0.41273  0.50000  1.0000 -0.5402237139
O   O22       1.0  0.25120  0.58727  0.50000  1.0000 -0.5402237139
O   O23       1.0  0.58727  0.74880  0.50000  1.0000 -0.5402237139
O   O24       1.0  0.41273  0.25120  0.50000  1.0000 -0.5402237139
