# DDEC6 charges by PACMAN v1.1 (https://github.com/mtap-research/PACMAN-charge/)
data_2015[CuNd][srs]3[ASR]1
_chemical_formula_sum              "Nd4 Cu12 C36 O72"
_cell_length_a       17.5154
_cell_length_b       17.5154
_cell_length_c       17.5154
_cell_angle_alpha    90
_cell_angle_beta     90
_cell_angle_gamma    90

_symmetry_space_group_name_H-M    "P 1"
_symmetry_Int_Tables_number       1

loop_
  _symmetry_equiv_pos_as_xyz
  'x, y, z'

loop_
  _atom_site_type_symbol
  _atom_site_label
  _atom_site_symmetry_multiplicity
  _atom_site_fract_x
  _atom_site_fract_y
  _atom_site_fract_z
  _atom_site_occupancy
  _atom_site_charge
Nd  Nd1       1.0  0.60324  0.89676  0.10324  1.0000 1.8896280772
Nd  Nd2       1.0  0.89676  0.10324  0.60324  1.0000 1.8896280772
Nd  Nd3       1.0  0.39676  0.39676  0.39676  1.0000 1.8896280772
Nd  Nd4       1.0  0.10324  0.60324  0.89676  1.0000 1.8896280772
Cu  Cu1       1.0  0.90772  0.84875  0.00006  1.0000 0.8628333208
Cu  Cu2       1.0  0.59228  0.15125  0.50006  1.0000 0.8628333208
Cu  Cu3       1.0  0.09228  0.34875  0.49994  1.0000 0.8628333208
Cu  Cu4       1.0  0.40772  0.65125  0.99994  1.0000 0.8628333208
Cu  Cu5       1.0  0.00006  0.90772  0.84875  1.0000 0.8628333208
Cu  Cu6       1.0  0.50006  0.59228  0.15125  1.0000 0.8628333208
Cu  Cu7       1.0  0.49994  0.09228  0.34875  1.0000 0.8628333208
Cu  Cu8       1.0  0.99994  0.40772  0.65125  1.0000 0.8628333208
Cu  Cu9       1.0  0.84875  0.00006  0.90772  1.0000 0.8628333208
Cu  Cu10      1.0  0.15125  0.50006  0.59228  1.0000 0.8628333208
Cu  Cu11      1.0  0.34875  0.49994  0.09228  1.0000 0.8628333208
Cu  Cu12      1.0  0.65125  0.99994  0.40772  1.0000 0.8628333208
C   C1        1.0  0.74180  0.99710  0.01450  1.0000 0.5598695523
C   C2        1.0  0.75820  0.00290  0.51450  1.0000 0.5598695523
C   C3        1.0  0.25820  0.49710  0.48550  1.0000 0.5598695523
C   C4        1.0  0.24180  0.50290  0.98550  1.0000 0.5598695523
C   C5        1.0  0.01450  0.74180  0.99710  1.0000 0.5598695523
C   C6        1.0  0.51450  0.75820  0.00290  1.0000 0.5598695523
C   C7        1.0  0.48550  0.25820  0.49710  1.0000 0.5598695523
C   C8        1.0  0.98550  0.24180  0.50290  1.0000 0.5598695523
C   C9        1.0  0.99710  0.01450  0.74180  1.0000 0.5598695523
C   C10       1.0  0.00290  0.51450  0.75820  1.0000 0.5598695523
C   C11       1.0  0.49710  0.48550  0.25820  1.0000 0.5598695523
C   C12       1.0  0.50290  0.98550  0.24180  1.0000 0.5598695523
C   C13       1.0  0.76530  0.91280  0.00890  1.0000 0.3315885709
C   C14       1.0  0.73470  0.08720  0.50890  1.0000 0.3315885709
C   C15       1.0  0.23470  0.41280  0.49110  1.0000 0.3315885709
C   C16       1.0  0.26530  0.58720  0.99110  1.0000 0.3315885709
C   C17       1.0  0.00890  0.76530  0.91280  1.0000 0.3315885709
C   C18       1.0  0.50890  0.73470  0.08720  1.0000 0.3315885709
C   C19       1.0  0.49110  0.23470  0.41280  1.0000 0.3315885709
C   C20       1.0  0.99110  0.26530  0.58720  1.0000 0.3315885709
C   C21       1.0  0.91280  0.00890  0.76530  1.0000 0.3315885709
C   C22       1.0  0.08720  0.50890  0.73470  1.0000 0.3315885709
C   C23       1.0  0.41280  0.49110  0.23470  1.0000 0.3315885709
C   C24       1.0  0.58720  0.99110  0.26530  1.0000 0.3315885709
C   C25       1.0  0.79090  0.88590  0.09030  1.0000 0.5473049181
C   C26       1.0  0.70910  0.11410  0.59030  1.0000 0.5473049181
C   C27       1.0  0.20910  0.38590  0.40970  1.0000 0.5473049181
C   C28       1.0  0.29090  0.61410  0.90970  1.0000 0.5473049181
C   C29       1.0  0.09030  0.79090  0.88590  1.0000 0.5473049181
C   C30       1.0  0.59030  0.70910  0.11410  1.0000 0.5473049181
C   C31       1.0  0.40970  0.20910  0.38590  1.0000 0.5473049181
C   C32       1.0  0.90970  0.29090  0.61410  1.0000 0.5473049181
C   C33       1.0  0.88590  0.09030  0.79090  1.0000 0.5473049181
C   C34       1.0  0.11410  0.59030  0.70910  1.0000 0.5473049181
C   C35       1.0  0.38590  0.40970  0.20910  1.0000 0.5473049181
C   C36       1.0  0.61410  0.90970  0.29090  1.0000 0.5473049181
O   O1        1.0  0.85930  0.86720  0.09790  1.0000 -0.4486442969
O   O2        1.0  0.64070  0.13280  0.59790  1.0000 -0.4486442969
O   O3        1.0  0.14070  0.36720  0.40210  1.0000 -0.4486442969
O   O4        1.0  0.35930  0.63280  0.90210  1.0000 -0.4486442969
O   O5        1.0  0.09790  0.85930  0.86720  1.0000 -0.4486442969
O   O6        1.0  0.59790  0.64070  0.13280  1.0000 -0.4486442969
O   O7        1.0  0.40210  0.14070  0.36720  1.0000 -0.4486442969
O   O8        1.0  0.90210  0.35930  0.63280  1.0000 -0.4486442969
O   O9        1.0  0.86720  0.09790  0.85930  1.0000 -0.4486442969
O   O10       1.0  0.13280  0.59790  0.64070  1.0000 -0.4486442969
O   O11       1.0  0.36720  0.40210  0.14070  1.0000 -0.4486442969
O   O12       1.0  0.63280  0.90210  0.35930  1.0000 -0.4486442969
O   O13       1.0  0.74100  0.88690  0.14030  1.0000 -0.4411198475
O   O14       1.0  0.75900  0.11310  0.64030  1.0000 -0.4411198475
O   O15       1.0  0.25900  0.38690  0.35970  1.0000 -0.4411198475
O   O16       1.0  0.24100  0.61310  0.85970  1.0000 -0.4411198475
O   O17       1.0  0.14030  0.74100  0.88690  1.0000 -0.4411198475
O   O18       1.0  0.64030  0.75900  0.11310  1.0000 -0.4411198475
O   O19       1.0  0.35970  0.25900  0.38690  1.0000 -0.4411198475
O   O20       1.0  0.85970  0.24100  0.61310  1.0000 -0.4411198475
O   O21       1.0  0.88690  0.14030  0.74100  1.0000 -0.4411198475
O   O22       1.0  0.11310  0.64030  0.75900  1.0000 -0.4411198475
O   O23       1.0  0.38690  0.35970  0.25900  1.0000 -0.4411198475
O   O24       1.0  0.61310  0.85970  0.24100  1.0000 -0.4411198475
O   O25       1.0  0.82180  0.90290  0.95520  1.0000 -0.5901191188
O   O26       1.0  0.67820  0.09710  0.45520  1.0000 -0.5901191188
O   O27       1.0  0.17820  0.40290  0.54480  1.0000 -0.5901191188
O   O28       1.0  0.32180  0.59710  0.04480  1.0000 -0.5901191188
O   O29       1.0  0.95520  0.82180  0.90290  1.0000 -0.5901191188
O   O30       1.0  0.45520  0.67820  0.09710  1.0000 -0.5901191188
O   O31       1.0  0.54480  0.17820  0.40290  1.0000 -0.5901191188
O   O32       1.0  0.04480  0.32180  0.59710  1.0000 -0.5901191188
O   O33       1.0  0.90290  0.95520  0.82180  1.0000 -0.5901191188
O   O34       1.0  0.09710  0.45520  0.67820  1.0000 -0.5901191188
O   O35       1.0  0.40290  0.54480  0.17820  1.0000 -0.5901191188
O   O36       1.0  0.59710  0.04480  0.32180  1.0000 -0.5901191188
O   O37       1.0  0.69930  0.87070  0.99240  1.0000 -0.5117842459
O   O38       1.0  0.80070  0.12930  0.49240  1.0000 -0.5117842459
O   O39       1.0  0.30070  0.37070  0.50760  1.0000 -0.5117842459
O   O40       1.0  0.19930  0.62930  0.00760  1.0000 -0.5117842459
O   O41       1.0  0.99240  0.69930  0.87070  1.0000 -0.5117842459
O   O42       1.0  0.49240  0.80070  0.12930  1.0000 -0.5117842459
O   O43       1.0  0.50760  0.30070  0.37070  1.0000 -0.5117842459
O   O44       1.0  0.00760  0.19930  0.62930  1.0000 -0.5117842459
O   O45       1.0  0.87070  0.99240  0.69930  1.0000 -0.5117842459
O   O46       1.0  0.12930  0.49240  0.80070  1.0000 -0.5117842459
O   O47       1.0  0.37070  0.50760  0.30070  1.0000 -0.5117842459
O   O48       1.0  0.62930  0.00760  0.19930  1.0000 -0.5117842459
O   O49       1.0  0.68020  0.00830  0.04960  1.0000 -0.4911605818
O   O50       1.0  0.81980  0.99170  0.54960  1.0000 -0.4911605818
O   O51       1.0  0.31980  0.50830  0.45040  1.0000 -0.4911605818
O   O52       1.0  0.18020  0.49170  0.95040  1.0000 -0.4911605818
O   O53       1.0  0.04960  0.68020  0.00830  1.0000 -0.4911605818
O   O54       1.0  0.54960  0.81980  0.99170  1.0000 -0.4911605818
O   O55       1.0  0.45040  0.31980  0.50830  1.0000 -0.4911605818
O   O56       1.0  0.95040  0.18020  0.49170  1.0000 -0.4911605818
O   O57       1.0  0.00830  0.04960  0.68020  1.0000 -0.4911605818
O   O58       1.0  0.99170  0.54960  0.81980  1.0000 -0.4911605818
O   O59       1.0  0.50830  0.45040  0.31980  1.0000 -0.4911605818
O   O60       1.0  0.49170  0.95040  0.18020  1.0000 -0.4911605818
O   O61       1.0  0.78010  0.04630  0.98180  1.0000 -0.4486442969
O   O62       1.0  0.71990  0.95370  0.48180  1.0000 -0.4486442969
O   O63       1.0  0.21990  0.54630  0.51820  1.0000 -0.4486442969
O   O64       1.0  0.28010  0.45370  0.01820  1.0000 -0.4486442969
O   O65       1.0  0.98180  0.78010  0.04630  1.0000 -0.4486442969
O   O66       1.0  0.48180  0.71990  0.95370  1.0000 -0.4486442969
O   O67       1.0  0.51820  0.21990  0.54630  1.0000 -0.4486442969
O   O68       1.0  0.01820  0.28010  0.45370  1.0000 -0.4486442969
O   O69       1.0  0.04630  0.98180  0.78010  1.0000 -0.4486442969
O   O70       1.0  0.95370  0.48180  0.71990  1.0000 -0.4486442969
O   O71       1.0  0.54630  0.51820  0.21990  1.0000 -0.4486442969
O   O72       1.0  0.45370  0.01820  0.28010  1.0000 -0.4486442969
