# DDEC6 charges by PACMAN v1.1 (https://github.com/mtap-research/PACMAN-charge/)
data_2015[Cd][nuc]3[ASR]3
_chemical_formula_sum              "Cd4 H144 C192 N48"
_cell_length_a       15.9082
_cell_length_b       15.9082
_cell_length_c       21.6184
_cell_angle_alpha    90
_cell_angle_beta     90
_cell_angle_gamma    90

_symmetry_space_group_name_H-M    "P 1"
_symmetry_Int_Tables_number       1

loop_
  _symmetry_equiv_pos_as_xyz
  'x, y, z'

loop_
  _atom_site_type_symbol
  _atom_site_label
  _atom_site_symmetry_multiplicity
  _atom_site_fract_x
  _atom_site_fract_y
  _atom_site_fract_z
  _atom_site_occupancy
  _atom_site_charge
Cd  Cd1       1.0  0.44115  0.55885  0.25000  1.0000 0.6457449326
Cd  Cd2       1.0  0.94115  0.94115  0.50000  1.0000 0.6457449326
Cd  Cd3       1.0  0.55885  0.44115  0.75000  1.0000 0.6457449326
Cd  Cd4       1.0  0.05885  0.05885  0.00000  1.0000 0.6457449326
H   H1        1.0  0.96230  0.88800  0.34810  1.0000 0.0999257531
H   H2        1.0  0.61200  0.46230  0.59810  1.0000 0.0999257531
H   H3        1.0  0.46230  0.61200  0.40190  1.0000 0.0999257531
H   H4        1.0  0.03770  0.11200  0.84810  1.0000 0.0999257531
H   H5        1.0  0.11200  0.03770  0.15190  1.0000 0.0999257531
H   H6        1.0  0.88800  0.96230  0.65190  1.0000 0.0999257531
H   H7        1.0  0.38800  0.53770  0.09810  1.0000 0.0999257531
H   H8        1.0  0.53770  0.38800  0.90190  1.0000 0.0999257531
H   H9        1.0  0.91400  0.78570  0.28280  1.0000 0.1361204216
H   H10       1.0  0.71430  0.41400  0.53280  1.0000 0.1361204216
H   H11       1.0  0.41400  0.71430  0.46720  1.0000 0.1361204216
H   H12       1.0  0.08600  0.21430  0.78280  1.0000 0.1361204216
H   H13       1.0  0.21430  0.08600  0.21720  1.0000 0.1361204216
H   H14       1.0  0.78570  0.91400  0.71720  1.0000 0.1361204216
H   H15       1.0  0.28570  0.58600  0.03280  1.0000 0.1361204216
H   H16       1.0  0.58600  0.28570  0.96720  1.0000 0.1361204216
H   H17       1.0  0.71650  0.75720  0.39560  1.0000 0.1286916514
H   H18       1.0  0.74280  0.21650  0.64560  1.0000 0.1286916514
H   H19       1.0  0.21650  0.74280  0.35440  1.0000 0.1286916514
H   H20       1.0  0.28350  0.24280  0.89560  1.0000 0.1286916514
H   H21       1.0  0.24280  0.28350  0.10440  1.0000 0.1286916514
H   H22       1.0  0.75720  0.71650  0.60440  1.0000 0.1286916514
H   H23       1.0  0.25720  0.78350  0.14560  1.0000 0.1286916514
H   H24       1.0  0.78350  0.25720  0.85440  1.0000 0.1286916514
H   H25       1.0  0.77120  0.85810  0.45770  1.0000 0.0999257531
H   H26       1.0  0.64190  0.27120  0.70770  1.0000 0.0999257531
H   H27       1.0  0.27120  0.64190  0.29230  1.0000 0.0999257531
H   H28       1.0  0.22880  0.14190  0.95770  1.0000 0.0999257531
H   H29       1.0  0.14190  0.22880  0.04230  1.0000 0.0999257531
H   H30       1.0  0.85810  0.77120  0.54230  1.0000 0.0999257531
H   H31       1.0  0.35810  0.72880  0.20770  1.0000 0.0999257531
H   H32       1.0  0.72880  0.35810  0.79230  1.0000 0.0999257531
H   H33       1.0  0.84970  0.70040  0.21900  1.0000 0.0999257531
H   H34       1.0  0.79960  0.34970  0.46900  1.0000 0.0999257531
H   H35       1.0  0.34970  0.79960  0.53100  1.0000 0.0999257531
H   H36       1.0  0.15030  0.29960  0.71900  1.0000 0.0999257531
H   H37       1.0  0.29960  0.15030  0.28100  1.0000 0.0999257531
H   H38       1.0  0.70040  0.84970  0.78100  1.0000 0.0999257531
H   H39       1.0  0.20040  0.65030  0.96900  1.0000 0.0999257531
H   H40       1.0  0.65030  0.20040  0.03100  1.0000 0.0999257531
H   H41       1.0  0.79970  0.58800  0.16330  1.0000 0.1111731519
H   H42       1.0  0.91200  0.29970  0.41330  1.0000 0.1111731519
H   H43       1.0  0.29970  0.91200  0.58670  1.0000 0.1111731519
H   H44       1.0  0.20030  0.41200  0.66330  1.0000 0.1111731519
H   H45       1.0  0.41200  0.20030  0.33670  1.0000 0.1111731519
H   H46       1.0  0.58800  0.79970  0.83670  1.0000 0.1111731519
H   H47       1.0  0.08800  0.70030  0.91330  1.0000 0.1111731519
H   H48       1.0  0.70030  0.08800  0.08670  1.0000 0.1111731519
H   H49       1.0  0.70220  0.49640  0.20630  1.0000 0.1111731519
H   H50       1.0  0.00360  0.20220  0.45630  1.0000 0.1111731519
H   H51       1.0  0.20220  0.00360  0.54370  1.0000 0.1111731519
H   H52       1.0  0.29780  0.50360  0.70630  1.0000 0.1111731519
H   H53       1.0  0.50360  0.29780  0.29370  1.0000 0.1111731519
H   H54       1.0  0.49640  0.70220  0.79370  1.0000 0.1111731519
H   H55       1.0  0.99640  0.79780  0.95630  1.0000 0.1111731519
H   H56       1.0  0.79780  0.99640  0.04370  1.0000 0.1111731519
H   H57       1.0  0.69930  0.63680  0.36010  1.0000 0.1111731519
H   H58       1.0  0.86320  0.19930  0.61010  1.0000 0.1111731519
H   H59       1.0  0.19930  0.86320  0.38990  1.0000 0.1111731519
H   H60       1.0  0.30070  0.36320  0.86010  1.0000 0.1111731519
H   H61       1.0  0.36320  0.30070  0.13990  1.0000 0.1111731519
H   H62       1.0  0.63680  0.69930  0.63990  1.0000 0.1111731519
H   H63       1.0  0.13680  0.80070  0.11010  1.0000 0.1111731519
H   H64       1.0  0.80070  0.13680  0.88990  1.0000 0.1111731519
H   H65       1.0  0.45670  0.37900  0.45950  1.0000 0.1111731519
H   H66       1.0  0.12100  0.95670  0.70950  1.0000 0.1111731519
H   H67       1.0  0.95670  0.12100  0.29050  1.0000 0.1111731519
H   H68       1.0  0.54330  0.62100  0.95950  1.0000 0.1111731519
H   H69       1.0  0.62100  0.54330  0.04050  1.0000 0.1111731519
H   H70       1.0  0.37900  0.45670  0.54050  1.0000 0.1111731519
H   H71       1.0  0.87900  0.04330  0.20950  1.0000 0.1111731519
H   H72       1.0  0.04330  0.87900  0.79050  1.0000 0.1111731519
H   H73       1.0  0.43880  0.27290  0.53040  1.0000 0.1111731519
H   H74       1.0  0.22710  0.93880  0.78040  1.0000 0.1111731519
H   H75       1.0  0.93880  0.22710  0.21960  1.0000 0.1111731519
H   H76       1.0  0.56120  0.72710  0.03040  1.0000 0.1111731519
H   H77       1.0  0.72710  0.56120  0.96960  1.0000 0.1111731519
H   H78       1.0  0.27290  0.43880  0.46960  1.0000 0.1111731519
H   H79       1.0  0.77290  0.06120  0.28040  1.0000 0.1111731519
H   H80       1.0  0.06120  0.77290  0.71960  1.0000 0.1111731519
H   H81       1.0  0.53730  0.16650  0.53960  1.0000 0.1111731519
H   H82       1.0  0.33350  0.03730  0.78960  1.0000 0.1111731519
H   H83       1.0  0.03730  0.33350  0.21040  1.0000 0.1111731519
H   H84       1.0  0.46270  0.83350  0.03960  1.0000 0.1111731519
H   H85       1.0  0.83350  0.46270  0.96040  1.0000 0.1111731519
H   H86       1.0  0.16650  0.53730  0.46040  1.0000 0.1111731519
H   H87       1.0  0.66650  0.96270  0.28960  1.0000 0.1111731519
H   H88       1.0  0.96270  0.66650  0.71040  1.0000 0.1111731519
H   H89       1.0  0.67360  0.27320  0.40360  1.0000 0.1111731519
H   H90       1.0  0.22680  0.17360  0.65360  1.0000 0.1111731519
H   H91       1.0  0.17360  0.22680  0.34640  1.0000 0.1111731519
H   H92       1.0  0.32640  0.72680  0.90360  1.0000 0.1111731519
H   H93       1.0  0.72680  0.32640  0.09640  1.0000 0.1111731519
H   H94       1.0  0.27320  0.67360  0.59640  1.0000 0.1111731519
H   H95       1.0  0.77320  0.82640  0.15360  1.0000 0.1111731519
H   H96       1.0  0.82640  0.77320  0.84640  1.0000 0.1111731519
H   H97       1.0  0.65350  0.10170  0.56440  1.0000 0.1286916514
H   H98       1.0  0.39830  0.15350  0.81440  1.0000 0.1286916514
H   H99       1.0  0.15350  0.39830  0.18560  1.0000 0.1286916514
H   H100      1.0  0.34650  0.89830  0.06440  1.0000 0.1286916514
H   H101      1.0  0.89830  0.34650  0.93560  1.0000 0.1286916514
H   H102      1.0  0.10170  0.65350  0.43560  1.0000 0.1286916514
H   H103      1.0  0.60170  0.84650  0.31440  1.0000 0.1286916514
H   H104      1.0  0.84650  0.60170  0.68560  1.0000 0.1286916514
H   H105      1.0  0.76110  0.00660  0.57270  1.0000 0.0999257531
H   H106      1.0  0.49340  0.26110  0.82270  1.0000 0.0999257531
H   H107      1.0  0.26110  0.49340  0.17730  1.0000 0.0999257531
H   H108      1.0  0.23890  0.99340  0.07270  1.0000 0.0999257531
H   H109      1.0  0.99340  0.23890  0.92730  1.0000 0.0999257531
H   H110      1.0  0.00660  0.76110  0.42730  1.0000 0.0999257531
H   H111      1.0  0.50660  0.73890  0.32270  1.0000 0.0999257531
H   H112      1.0  0.73890  0.50660  0.67730  1.0000 0.0999257531
H   H113      1.0  0.84040  0.05750  0.40720  1.0000 0.0999257531
H   H114      1.0  0.44250  0.34040  0.65720  1.0000 0.0999257531
H   H115      1.0  0.34040  0.44250  0.34280  1.0000 0.0999257531
H   H116      1.0  0.15960  0.94250  0.90720  1.0000 0.0999257531
H   H117      1.0  0.94250  0.15960  0.09280  1.0000 0.0999257531
H   H118      1.0  0.05750  0.84040  0.59280  1.0000 0.0999257531
H   H119      1.0  0.55750  0.65960  0.15720  1.0000 0.0999257531
H   H120      1.0  0.65960  0.55750  0.84280  1.0000 0.0999257531
H   H121      1.0  0.73410  0.15220  0.39250  1.0000 0.1286916514
H   H122      1.0  0.34780  0.23410  0.64250  1.0000 0.1286916514
H   H123      1.0  0.23410  0.34780  0.35750  1.0000 0.1286916514
H   H124      1.0  0.26590  0.84780  0.89250  1.0000 0.1286916514
H   H125      1.0  0.84780  0.26590  0.10750  1.0000 0.1286916514
H   H126      1.0  0.15220  0.73410  0.60750  1.0000 0.1286916514
H   H127      1.0  0.65220  0.76590  0.14250  1.0000 0.1286916514
H   H128      1.0  0.76590  0.65220  0.85750  1.0000 0.1286916514
H   H129      1.0  0.77600  0.45330  0.37700  1.0000 0.1642944233
H   H130      1.0  0.04670  0.27600  0.62700  1.0000 0.1642944233
H   H131      1.0  0.27600  0.04670  0.37300  1.0000 0.1642944233
H   H132      1.0  0.22400  0.54670  0.87700  1.0000 0.1642944233
H   H133      1.0  0.54670  0.22400  0.12300  1.0000 0.1642944233
H   H134      1.0  0.45330  0.77600  0.62300  1.0000 0.1642944233
H   H135      1.0  0.95330  0.72400  0.12700  1.0000 0.1642944233
H   H136      1.0  0.72400  0.95330  0.87300  1.0000 0.1642944233
H   H137      1.0  0.75810  0.39130  0.34990  1.0000 0.1684258784
H   H138      1.0  0.10870  0.25810  0.59990  1.0000 0.1684258784
H   H139      1.0  0.25810  0.10870  0.40010  1.0000 0.1684258784
H   H140      1.0  0.24190  0.60870  0.84990  1.0000 0.1684258784
H   H141      1.0  0.60870  0.24190  0.15010  1.0000 0.1684258784
H   H142      1.0  0.39130  0.75810  0.65010  1.0000 0.1684258784
H   H143      1.0  0.89130  0.74190  0.09990  1.0000 0.1684258784
H   H144      1.0  0.74190  0.89130  0.90010  1.0000 0.1684258784
C   C1        1.0  0.91340  0.85940  0.35880  1.0000 0.0671793491
C   C2        1.0  0.64060  0.41340  0.60880  1.0000 0.0671793491
C   C3        1.0  0.41340  0.64060  0.39120  1.0000 0.0671793491
C   C4        1.0  0.08660  0.14060  0.85880  1.0000 0.0671793491
C   C5        1.0  0.14060  0.08660  0.14120  1.0000 0.0671793491
C   C6        1.0  0.85940  0.91340  0.64120  1.0000 0.0671793491
C   C7        1.0  0.35940  0.58660  0.10880  1.0000 0.0671793491
C   C8        1.0  0.58660  0.35940  0.89120  1.0000 0.0671793491
C   C9        1.0  0.88450  0.79780  0.31890  1.0000 -0.2068281933
C   C10       1.0  0.70220  0.38450  0.56890  1.0000 -0.2068281933
C   C11       1.0  0.38450  0.70220  0.43110  1.0000 -0.2068281933
C   C12       1.0  0.11550  0.20220  0.81890  1.0000 -0.2068281933
C   C13       1.0  0.20220  0.11550  0.18110  1.0000 -0.2068281933
C   C14       1.0  0.79780  0.88450  0.68110  1.0000 -0.2068281933
C   C15       1.0  0.29780  0.61550  0.06890  1.0000 -0.2068281933
C   C16       1.0  0.61550  0.29780  0.93110  1.0000 -0.2068281933
C   C17       1.0  0.81080  0.75370  0.33280  1.0000 0.1177875975
C   C18       1.0  0.74630  0.31080  0.58280  1.0000 0.1177875975
C   C19       1.0  0.31080  0.74630  0.41720  1.0000 0.1177875975
C   C20       1.0  0.18920  0.24630  0.83280  1.0000 0.1177875975
C   C21       1.0  0.24630  0.18920  0.16720  1.0000 0.1177875975
C   C22       1.0  0.75370  0.81080  0.66720  1.0000 0.1177875975
C   C23       1.0  0.25370  0.68920  0.08280  1.0000 0.1177875975
C   C24       1.0  0.68920  0.25370  0.91720  1.0000 0.1177875975
C   C25       1.0  0.76810  0.78090  0.38560  1.0000 -0.2068281933
C   C26       1.0  0.71910  0.26810  0.63560  1.0000 -0.2068281933
C   C27       1.0  0.26810  0.71910  0.36440  1.0000 -0.2068281933
C   C28       1.0  0.23190  0.21910  0.88560  1.0000 -0.2068281933
C   C29       1.0  0.21910  0.23190  0.11440  1.0000 -0.2068281933
C   C30       1.0  0.78090  0.76810  0.61440  1.0000 -0.2068281933
C   C31       1.0  0.28090  0.73190  0.13560  1.0000 -0.2068281933
C   C32       1.0  0.73190  0.28090  0.86440  1.0000 -0.2068281933
C   C33       1.0  0.80130  0.84200  0.42280  1.0000 0.0286716797
C   C34       1.0  0.65800  0.30130  0.67280  1.0000 0.0286716797
C   C35       1.0  0.30130  0.65800  0.32720  1.0000 0.0286716797
C   C36       1.0  0.19870  0.15800  0.92280  1.0000 0.0286716797
C   C37       1.0  0.15800  0.19870  0.07720  1.0000 0.0286716797
C   C38       1.0  0.84200  0.80130  0.57720  1.0000 0.0286716797
C   C39       1.0  0.34200  0.69870  0.17280  1.0000 0.0286716797
C   C40       1.0  0.69870  0.34200  0.82720  1.0000 0.0286716797
C   C41       1.0  0.78000  0.68150  0.29590  1.0000 0.0671793491
C   C42       1.0  0.81850  0.28000  0.54590  1.0000 0.0671793491
C   C43       1.0  0.28000  0.81850  0.45410  1.0000 0.0671793491
C   C44       1.0  0.22000  0.31850  0.79590  1.0000 0.0671793491
C   C45       1.0  0.31850  0.22000  0.20410  1.0000 0.0671793491
C   C46       1.0  0.68150  0.78000  0.70410  1.0000 0.0671793491
C   C47       1.0  0.18150  0.72000  0.04590  1.0000 0.0671793491
C   C48       1.0  0.72000  0.18150  0.95410  1.0000 0.0671793491
C   C49       1.0  0.80950  0.66510  0.23650  1.0000 -0.1623671979
C   C50       1.0  0.83490  0.30950  0.48650  1.0000 -0.1623671979
C   C51       1.0  0.30950  0.83490  0.51350  1.0000 -0.1623671979
C   C52       1.0  0.19050  0.33490  0.73650  1.0000 -0.1623671979
C   C53       1.0  0.33490  0.19050  0.26350  1.0000 -0.1623671979
C   C54       1.0  0.66510  0.80950  0.76350  1.0000 -0.1623671979
C   C55       1.0  0.16510  0.69050  0.98650  1.0000 -0.1623671979
C   C56       1.0  0.69050  0.16510  0.01350  1.0000 -0.1623671979
C   C57       1.0  0.77990  0.59730  0.20320  1.0000 -0.1017876819
C   C58       1.0  0.90270  0.27990  0.45320  1.0000 -0.1017876819
C   C59       1.0  0.27990  0.90270  0.54680  1.0000 -0.1017876819
C   C60       1.0  0.22010  0.40270  0.70320  1.0000 -0.1017876819
C   C61       1.0  0.40270  0.22010  0.29680  1.0000 -0.1017876819
C   C62       1.0  0.59730  0.77990  0.79680  1.0000 -0.1017876819
C   C63       1.0  0.09730  0.72010  0.95320  1.0000 -0.1017876819
C   C64       1.0  0.72010  0.09730  0.04680  1.0000 -0.1017876819
C   C65       1.0  0.72090  0.54280  0.22850  1.0000 -0.1623671979
C   C66       1.0  0.95720  0.22090  0.47850  1.0000 -0.1623671979
C   C67       1.0  0.22090  0.95720  0.52150  1.0000 -0.1623671979
C   C68       1.0  0.27910  0.45720  0.72850  1.0000 -0.1623671979
C   C69       1.0  0.45720  0.27910  0.27150  1.0000 -0.1623671979
C   C70       1.0  0.54280  0.72090  0.77150  1.0000 -0.1623671979
C   C71       1.0  0.04280  0.77910  0.97850  1.0000 -0.1623671979
C   C72       1.0  0.77910  0.04280  0.02150  1.0000 -0.1623671979
C   C73       1.0  0.69020  0.55880  0.28779  1.0000 0.0286716797
C   C74       1.0  0.94120  0.19020  0.53779  1.0000 0.0286716797
C   C75       1.0  0.19020  0.94120  0.46221  1.0000 0.0286716797
C   C76       1.0  0.30980  0.44120  0.78779  1.0000 0.0286716797
C   C77       1.0  0.44120  0.30980  0.21221  1.0000 0.0286716797
C   C78       1.0  0.55880  0.69020  0.71221  1.0000 0.0286716797
C   C79       1.0  0.05880  0.80980  0.03779  1.0000 0.0286716797
C   C80       1.0  0.80980  0.05880  0.96221  1.0000 0.0286716797
C   C81       1.0  0.71980  0.62690  0.32052  1.0000 -0.1965523153
C   C82       1.0  0.87310  0.21980  0.57052  1.0000 -0.1965523153
C   C83       1.0  0.21980  0.87310  0.42948  1.0000 -0.1965523153
C   C84       1.0  0.28020  0.37310  0.82052  1.0000 -0.1965523153
C   C85       1.0  0.37310  0.28020  0.17948  1.0000 -0.1965523153
C   C86       1.0  0.62690  0.71980  0.67948  1.0000 -0.1965523153
C   C87       1.0  0.12690  0.78020  0.07052  1.0000 -0.1965523153
C   C88       1.0  0.78020  0.12690  0.92948  1.0000 -0.1965523153
C   C89       1.0  0.62720  0.50330  0.31857  1.0000 0.182207411
C   C90       1.0  0.99670  0.12720  0.56857  1.0000 0.182207411
C   C91       1.0  0.12720  0.99670  0.43143  1.0000 0.182207411
C   C92       1.0  0.37280  0.49670  0.81857  1.0000 0.182207411
C   C93       1.0  0.49670  0.37280  0.18143  1.0000 0.182207411
C   C94       1.0  0.50330  0.62720  0.68143  1.0000 0.182207411
C   C95       1.0  0.00330  0.87280  0.06857  1.0000 0.182207411
C   C96       1.0  0.87280  0.00330  0.93143  1.0000 0.182207411
C   C97       1.0  0.57670  0.40830  0.38105  1.0000 0.182207411
C   C98       1.0  0.09170  0.07670  0.63105  1.0000 0.182207411
C   C99       1.0  0.07670  0.09170  0.36895  1.0000 0.182207411
C   C100      1.0  0.42330  0.59170  0.88105  1.0000 0.182207411
C   C101      1.0  0.59170  0.42330  0.11895  1.0000 0.182207411
C   C102      1.0  0.40830  0.57670  0.61895  1.0000 0.182207411
C   C103      1.0  0.90830  0.92330  0.13105  1.0000 0.182207411
C   C104      1.0  0.92330  0.90830  0.86895  1.0000 0.182207411
C   C105      1.0  0.56870  0.33890  0.42555  1.0000 0.0388996767
C   C106      1.0  0.16110  0.06870  0.67555  1.0000 0.0388996767
C   C107      1.0  0.06870  0.16110  0.32445  1.0000 0.0388996767
C   C108      1.0  0.43130  0.66110  0.92555  1.0000 0.0388996767
C   C109      1.0  0.66110  0.43130  0.07445  1.0000 0.0388996767
C   C110      1.0  0.33890  0.56870  0.57445  1.0000 0.0388996767
C   C111      1.0  0.83890  0.93130  0.17555  1.0000 0.0388996767
C   C112      1.0  0.93130  0.83890  0.82445  1.0000 0.0388996767
C   C113      1.0  0.49700  0.33700  0.46300  1.0000 -0.1623671979
C   C114      1.0  0.16300  0.99700  0.71300  1.0000 -0.1623671979
C   C115      1.0  0.99700  0.16300  0.28700  1.0000 -0.1623671979
C   C116      1.0  0.50300  0.66300  0.96300  1.0000 -0.1623671979
C   C117      1.0  0.66300  0.50300  0.03700  1.0000 -0.1623671979
C   C118      1.0  0.33700  0.49700  0.53700  1.0000 -0.1623671979
C   C119      1.0  0.83700  0.00300  0.21300  1.0000 -0.1623671979
C   C120      1.0  0.00300  0.83700  0.78700  1.0000 -0.1623671979
C   C121      1.0  0.48620  0.27320  0.50510  1.0000 -0.1017876819
C   C122      1.0  0.22680  0.98620  0.75510  1.0000 -0.1055089181
C   C123      1.0  0.98620  0.22680  0.24490  1.0000 -0.1017876819
C   C124      1.0  0.51380  0.72680  0.00510  1.0000 -0.1017876819
C   C125      1.0  0.72680  0.51380  0.99490  1.0000 -0.1017876819
C   C126      1.0  0.27320  0.48620  0.49490  1.0000 -0.1017876819
C   C127      1.0  0.77320  0.01380  0.25510  1.0000 -0.1017876819
C   C128      1.0  0.01380  0.77320  0.74490  1.0000 -0.1017876819
C   C129      1.0  0.54500  0.20890  0.51060  1.0000 -0.1623671979
C   C130      1.0  0.29110  0.04500  0.76060  1.0000 -0.1623671979
C   C131      1.0  0.04500  0.29110  0.23940  1.0000 -0.1623671979
C   C132      1.0  0.45500  0.79110  0.01060  1.0000 -0.1623671979
C   C133      1.0  0.79110  0.45500  0.98940  1.0000 -0.1623671979
C   C134      1.0  0.20890  0.54500  0.48940  1.0000 -0.1623671979
C   C135      1.0  0.70890  0.95500  0.26060  1.0000 -0.1623671979
C   C136      1.0  0.95500  0.70890  0.73940  1.0000 -0.1623671979
C   C137      1.0  0.61670  0.20840  0.47170  1.0000 0.0671793491
C   C138      1.0  0.29160  0.11670  0.72170  1.0000 0.0671793491
C   C139      1.0  0.11670  0.29160  0.27830  1.0000 0.0671793491
C   C140      1.0  0.38330  0.79160  0.97170  1.0000 0.0671793491
C   C141      1.0  0.79160  0.38330  0.02830  1.0000 0.0671793491
C   C142      1.0  0.20840  0.61670  0.52830  1.0000 0.0671793491
C   C143      1.0  0.70840  0.88330  0.22170  1.0000 0.0671793491
C   C144      1.0  0.88330  0.70840  0.77830  1.0000 0.0671793491
C   C145      1.0  0.62710  0.27320  0.42960  1.0000 -0.1965523153
C   C146      1.0  0.22680  0.12710  0.67960  1.0000 -0.1965523153
C   C147      1.0  0.12710  0.22680  0.32040  1.0000 -0.1965523153
C   C148      1.0  0.37290  0.72680  0.92960  1.0000 -0.1965523153
C   C149      1.0  0.72680  0.37290  0.07040  1.0000 -0.1965523153
C   C150      1.0  0.27320  0.62710  0.57040  1.0000 -0.1965523153
C   C151      1.0  0.77320  0.87290  0.17960  1.0000 -0.1965523153
C   C152      1.0  0.87290  0.77320  0.82040  1.0000 -0.1965523153
C   C153      1.0  0.68130  0.14270  0.47790  1.0000 0.1111731519
C   C154      1.0  0.35730  0.18130  0.72790  1.0000 0.1111731519
C   C155      1.0  0.18130  0.35730  0.27210  1.0000 0.1111731519
C   C156      1.0  0.31870  0.85730  0.97790  1.0000 0.1111731519
C   C157      1.0  0.85730  0.31870  0.02210  1.0000 0.1111731519
C   C158      1.0  0.14270  0.68130  0.52210  1.0000 0.1111731519
C   C159      1.0  0.64270  0.81870  0.22790  1.0000 0.1111731519
C   C160      1.0  0.81870  0.64270  0.77210  1.0000 0.1111731519
C   C161      1.0  0.69090  0.09500  0.53180  1.0000 -0.2068281933
C   C162      1.0  0.40500  0.19090  0.78180  1.0000 -0.2068281933
C   C163      1.0  0.19090  0.40500  0.21820  1.0000 -0.2068281933
C   C164      1.0  0.30910  0.90500  0.03180  1.0000 -0.2068281933
C   C165      1.0  0.90500  0.30910  0.96820  1.0000 -0.2068281933
C   C166      1.0  0.09500  0.69090  0.46820  1.0000 -0.2068281933
C   C167      1.0  0.59500  0.80910  0.28180  1.0000 -0.2068281933
C   C168      1.0  0.80910  0.59500  0.71820  1.0000 -0.2068281933
C   C169      1.0  0.75640  0.03760  0.53640  1.0000 0.0617705833
C   C170      1.0  0.46240  0.25640  0.78640  1.0000 0.0617705833
C   C171      1.0  0.25640  0.46240  0.21360  1.0000 0.0617705833
C   C172      1.0  0.24360  0.96240  0.03640  1.0000 0.0617705833
C   C173      1.0  0.96240  0.24360  0.96360  1.0000 0.0617705833
C   C174      1.0  0.03760  0.75640  0.46360  1.0000 0.0617705833
C   C175      1.0  0.53760  0.74360  0.28640  1.0000 0.0617705833
C   C176      1.0  0.74360  0.53760  0.71360  1.0000 0.0617705833
C   C177      1.0  0.80270  0.06700  0.43940  1.0000 0.0671793491
C   C178      1.0  0.43300  0.30270  0.68940  1.0000 0.0671793491
C   C179      1.0  0.30270  0.43300  0.31060  1.0000 0.0671793491
C   C180      1.0  0.19730  0.93300  0.93940  1.0000 0.0671793491
C   C181      1.0  0.93300  0.19730  0.06060  1.0000 0.0671793491
C   C182      1.0  0.06700  0.80270  0.56060  1.0000 0.0671793491
C   C183      1.0  0.56700  0.69730  0.18940  1.0000 0.0671793491
C   C184      1.0  0.69730  0.56700  0.81060  1.0000 0.0671793491
C   C185      1.0  0.73890  0.12480  0.43030  1.0000 -0.1965523153
C   C186      1.0  0.37520  0.23890  0.68030  1.0000 -0.1965523153
C   C187      1.0  0.23890  0.37520  0.31970  1.0000 -0.1965523153
C   C188      1.0  0.26110  0.87520  0.93030  1.0000 -0.1965523153
C   C189      1.0  0.87520  0.26110  0.06970  1.0000 -0.1965523153
C   C190      1.0  0.12480  0.73890  0.56970  1.0000 -0.1965523153
C   C191      1.0  0.62480  0.76110  0.18030  1.0000 -0.1965523153
C   C192      1.0  0.76110  0.62480  0.81970  1.0000 -0.1965523153
N   N1        1.0  0.87560  0.88020  0.41147  1.0000 -0.2382784724
N   N2        1.0  0.61980  0.37560  0.66147  1.0000 -0.2382784724
N   N3        1.0  0.37560  0.61980  0.33853  1.0000 -0.2382784724
N   N4        1.0  0.12440  0.11980  0.91147  1.0000 -0.2382784724
N   N5        1.0  0.11980  0.12440  0.08853  1.0000 -0.2382784724
N   N6        1.0  0.88020  0.87560  0.58853  1.0000 -0.2382784724
N   N7        1.0  0.38020  0.62440  0.16147  1.0000 -0.2382784724
N   N8        1.0  0.62440  0.38020  0.83853  1.0000 -0.2382784724
N   N9        1.0  0.54560  0.50770  0.31612  1.0000 -0.2382784724
N   N10       1.0  0.99230  0.04560  0.56612  1.0000 -0.2382784724
N   N11       1.0  0.04560  0.99230  0.43388  1.0000 -0.2382784724
N   N12       1.0  0.45440  0.49230  0.81612  1.0000 -0.2382784724
N   N13       1.0  0.49230  0.45440  0.18388  1.0000 -0.2382784724
N   N14       1.0  0.50770  0.54560  0.68388  1.0000 -0.2382784724
N   N15       1.0  0.00770  0.95440  0.06612  1.0000 -0.2382784724
N   N16       1.0  0.95440  0.00770  0.93388  1.0000 -0.2382784724
N   N17       1.0  0.51270  0.44680  0.35555  1.0000 -0.2841659693
N   N18       1.0  0.05320  0.01270  0.60555  1.0000 -0.2841659693
N   N19       1.0  0.01270  0.05320  0.39445  1.0000 -0.2841659693
N   N20       1.0  0.48730  0.55320  0.85555  1.0000 -0.2841659693
N   N21       1.0  0.55320  0.48730  0.14445  1.0000 -0.2841659693
N   N22       1.0  0.44680  0.51270  0.64445  1.0000 -0.2841659693
N   N23       1.0  0.94680  0.98730  0.10555  1.0000 -0.2841659693
N   N24       1.0  0.98730  0.94680  0.89445  1.0000 -0.2841659693
N   N25       1.0  0.64930  0.44220  0.35865  1.0000 0.0758165399
N   N26       1.0  0.05780  0.14930  0.60865  1.0000 0.0758165399
N   N27       1.0  0.14930  0.05780  0.39135  1.0000 0.0758165399
N   N28       1.0  0.35070  0.55780  0.85865  1.0000 0.0758165399
N   N29       1.0  0.55780  0.35070  0.14135  1.0000 0.0758165399
N   N30       1.0  0.44220  0.64930  0.64135  1.0000 0.0758165399
N   N31       1.0  0.94220  0.85070  0.10865  1.0000 0.0758165399
N   N32       1.0  0.85070  0.94220  0.89135  1.0000 0.0758165399
N   N33       1.0  0.73160  0.42140  0.37830  1.0000 -0.4888998775
N   N34       1.0  0.07860  0.23160  0.62830  1.0000 -0.4888998775
N   N35       1.0  0.23160  0.07860  0.37170  1.0000 -0.4888998775
N   N36       1.0  0.26840  0.57860  0.87830  1.0000 -0.4888998775
N   N37       1.0  0.57860  0.26840  0.12170  1.0000 -0.4888998775
N   N38       1.0  0.42140  0.73160  0.62170  1.0000 -0.4888998775
N   N39       1.0  0.92140  0.76840  0.12830  1.0000 -0.4888998775
N   N40       1.0  0.76840  0.92140  0.87170  1.0000 -0.4888998775
N   N41       1.0  0.81300  0.02410  0.49202  1.0000 -0.2382784724
N   N42       1.0  0.47590  0.31300  0.74202  1.0000 -0.2382784724
N   N43       1.0  0.31300  0.47590  0.25798  1.0000 -0.2382784724
N   N44       1.0  0.18700  0.97590  0.99202  1.0000 -0.2382784724
N   N45       1.0  0.97590  0.18700  0.00798  1.0000 -0.2382784724
N   N46       1.0  0.02410  0.81300  0.50798  1.0000 -0.2382784724
N   N47       1.0  0.52410  0.68700  0.24202  1.0000 -0.2382784724
N   N48       1.0  0.68700  0.52410  0.75798  1.0000 -0.2382784724
