# DDEC6 charges by PACMAN v1.1 (https://github.com/mtap-research/PACMAN-charge/)
data_2015[Zn][nan]3[ASR]40
_chemical_formula_sum              "Zn4 H32 C56 N32 O24"
_cell_length_a       10.3265
_cell_length_b       14.1976
_cell_length_c       18.2477
_cell_angle_alpha    90
_cell_angle_beta     93.759
_cell_angle_gamma    90

_symmetry_space_group_name_H-M    "P 1"
_symmetry_Int_Tables_number       1

loop_
  _symmetry_equiv_pos_as_xyz
  'x, y, z'

loop_
  _atom_site_type_symbol
  _atom_site_label
  _atom_site_symmetry_multiplicity
  _atom_site_fract_x
  _atom_site_fract_y
  _atom_site_fract_z
  _atom_site_occupancy
  _atom_site_charge
Zn  Zn1       1.0  0.78052  0.01057  0.76073  1.0000 0.76100295
Zn  Zn2       1.0  0.71948  0.51057  0.23927  1.0000 0.76100295
Zn  Zn3       1.0  0.21948  0.98943  0.23927  1.0000 0.76100295
Zn  Zn4       1.0  0.28052  0.48943  0.76073  1.0000 0.76100295
H   H1        1.0  0.40800  0.23410  0.05120  1.0000 0.2924373369
H   H2        1.0  0.09200  0.73410  0.94880  1.0000 0.2924373369
H   H3        1.0  0.59200  0.76590  0.94880  1.0000 0.2924373369
H   H4        1.0  0.90800  0.26590  0.05120  1.0000 0.2924373369
H   H5        1.0  0.63950  0.12400  0.97420  1.0000 0.1291298788
H   H6        1.0  0.86050  0.62400  0.02580  1.0000 0.1291298788
H   H7        1.0  0.36050  0.87600  0.02580  1.0000 0.1291298788
H   H8        1.0  0.13950  0.37600  0.97420  1.0000 0.1291298788
H   H9        1.0  0.65430  0.36420  0.10880  1.0000 0.1230799329
H   H10       1.0  0.84570  0.86420  0.89120  1.0000 0.1230799329
H   H11       1.0  0.34570  0.63580  0.89120  1.0000 0.1230799329
H   H12       1.0  0.15430  0.13580  0.10880  1.0000 0.1230799329
H   H13       1.0  0.34450  0.36450  0.62290  1.0000 0.1230799329
H   H14       1.0  0.15550  0.86450  0.37710  1.0000 0.1230799329
H   H15       1.0  0.65550  0.63550  0.37710  1.0000 0.1230799329
H   H16       1.0  0.84450  0.13550  0.62290  1.0000 0.1230799329
H   H17       1.0  0.33990  0.29250  0.21050  1.0000 0.1481753757
H   H18       1.0  0.16010  0.79250  0.78950  1.0000 0.1481753757
H   H19       1.0  0.66010  0.70750  0.78950  1.0000 0.1481753757
H   H20       1.0  0.83990  0.20750  0.21050  1.0000 0.1481753757
H   H21       1.0  0.54940  0.22180  0.57700  1.0000 0.2827982079
H   H22       1.0  0.95060  0.72180  0.42300  1.0000 0.2827982079
H   H23       1.0  0.45060  0.77820  0.42300  1.0000 0.2827982079
H   H24       1.0  0.04940  0.27820  0.57700  1.0000 0.2827982079
H   H25       1.0  0.32640  0.10420  0.47900  1.0000 0.1291298788
H   H26       1.0  0.17360  0.60420  0.52100  1.0000 0.1291298788
H   H27       1.0  0.67360  0.89580  0.52100  1.0000 0.1291298788
H   H28       1.0  0.82640  0.39580  0.47900  1.0000 0.1291298788
H   H29       1.0  0.58560  0.21680  0.75770  1.0000 0.1481753757
H   H30       1.0  0.91440  0.71680  0.24230  1.0000 0.1481753757
H   H31       1.0  0.41440  0.78320  0.24230  1.0000 0.1481753757
H   H32       1.0  0.08560  0.28320  0.75770  1.0000 0.1481753757
C   C1        1.0  0.58310  0.07364  0.98463  1.0000 -0.1313456934
C   C2        1.0  0.91690  0.57364  0.01537  1.0000 -0.1313456934
C   C3        1.0  0.41690  0.92636  0.01537  1.0000 -0.1313456934
C   C4        1.0  0.08310  0.42636  0.98463  1.0000 -0.1313456934
C   C5        1.0  0.56650  0.99858  0.93563  1.0000 -0.0312894239
C   C6        1.0  0.93350  0.49858  0.06437  1.0000 -0.0312894239
C   C7        1.0  0.43350  0.00142  0.06437  1.0000 -0.0245352801
C   C8        1.0  0.06650  0.50142  0.93563  1.0000 -0.0312894239
C   C9        1.0  0.58820  0.36246  0.14259  1.0000 0.0614861693
C   C10       1.0  0.91180  0.86246  0.85741  1.0000 0.0614861693
C   C11       1.0  0.41180  0.63754  0.85741  1.0000 0.0614861693
C   C12       1.0  0.08820  0.13754  0.14259  1.0000 0.0614861693
C   C13       1.0  0.54590  0.15553  0.10109  1.0000 0.4606390964
C   C14       1.0  0.95410  0.65553  0.89891  1.0000 0.4606390964
C   C15       1.0  0.45410  0.84447  0.89891  1.0000 0.4606390964
C   C16       1.0  0.04590  0.34447  0.10109  1.0000 0.4606390964
C   C17       1.0  0.46560  0.06012  0.55469  1.0000 -0.0312894239
C   C18       1.0  0.03440  0.56012  0.44531  1.0000 -0.0312894239
C   C19       1.0  0.53440  0.93988  0.44531  1.0000 -0.0312894239
C   C20       1.0  0.96560  0.43988  0.55469  1.0000 -0.0312894239
C   C21       1.0  0.64110  0.99676  0.86779  1.0000 0.5429860275
C   C22       1.0  0.85890  0.49676  0.13221  1.0000 0.5429860275
C   C23       1.0  0.35890  0.00324  0.13221  1.0000 0.5429860275
C   C24       1.0  0.14110  0.50324  0.86779  1.0000 0.5429860275
C   C25       1.0  0.51720  0.07505  0.04866  1.0000 -0.0312894239
C   C26       1.0  0.98280  0.57505  0.95134  1.0000 -0.0312894239
C   C27       1.0  0.48280  0.92495  0.95134  1.0000 -0.0312894239
C   C28       1.0  0.01720  0.42495  0.04866  1.0000 -0.0312894239
C   C29       1.0  0.39450  0.34350  0.66529  1.0000 0.0614861693
C   C30       1.0  0.10550  0.84350  0.33471  1.0000 0.0614861693
C   C31       1.0  0.60550  0.65650  0.33471  1.0000 0.0614861693
C   C32       1.0  0.89450  0.15650  0.66529  1.0000 0.0614861693
C   C33       1.0  0.41650  0.32420  0.19825  1.0000 0.0682782303
C   C34       1.0  0.08350  0.82420  0.80175  1.0000 0.0682782303
C   C35       1.0  0.58350  0.67580  0.80175  1.0000 0.0682782303
C   C36       1.0  0.91650  0.17580  0.19825  1.0000 0.0682782303
C   C37       1.0  0.39700  0.06190  0.48733  1.0000 -0.1170406531
C   C38       1.0  0.10300  0.56190  0.51267  1.0000 -0.1170406531
C   C39       1.0  0.60300  0.93810  0.51267  1.0000 -0.1170406531
C   C40       1.0  0.89700  0.43810  0.48733  1.0000 -0.1170406531
C   C41       1.0  0.56900  0.99840  0.56849  1.0000 -0.0245352801
C   C42       1.0  0.93100  0.49840  0.43151  1.0000 -0.0245352801
C   C43       1.0  0.43100  0.00160  0.43151  1.0000 -0.0312894239
C   C44       1.0  0.06900  0.50160  0.56849  1.0000 -0.0245352801
C   C45       1.0  0.52550  0.26330  0.73970  1.0000 0.0614861693
C   C46       1.0  0.97450  0.76330  0.26030  1.0000 0.0614861693
C   C47       1.0  0.47450  0.73670  0.26030  1.0000 0.0614861693
C   C48       1.0  0.02550  0.23670  0.73970  1.0000 0.0614861693
C   C49       1.0  0.42380  0.12950  0.61134  1.0000 0.4606390964
C   C50       1.0  0.07620  0.62950  0.38866  1.0000 0.4606390964
C   C51       1.0  0.57620  0.87050  0.38866  1.0000 0.4606390964
C   C52       1.0  0.92380  0.37050  0.61134  1.0000 0.4606390964
C   C53       1.0  0.64370  0.99950  0.64237  1.0000 0.5307297777
C   C54       1.0  0.85630  0.49950  0.35763  1.0000 0.5307297777
C   C55       1.0  0.35630  0.00050  0.35763  1.0000 0.5307297777
C   C56       1.0  0.14370  0.50050  0.64237  1.0000 0.5307297777
N   N1        1.0  0.58330  0.41567  0.20073  1.0000 -0.1638000537
N   N2        1.0  0.91670  0.91567  0.79927  1.0000 -0.1638000537
N   N3        1.0  0.41670  0.58433  0.79927  1.0000 -0.1638000537
N   N4        1.0  0.08330  0.08433  0.20073  1.0000 -0.1638000537
N   N5        1.0  0.46650  0.23173  0.08845  1.0000 -0.3286453862
N   N6        1.0  0.03350  0.73173  0.91155  1.0000 -0.3286453862
N   N7        1.0  0.53350  0.76827  0.91155  1.0000 -0.3286453862
N   N8        1.0  0.96650  0.26827  0.08845  1.0000 -0.3286453862
N   N9        1.0  0.48450  0.30486  0.13832  1.0000 0.1375566046
N   N10       1.0  0.01550  0.80486  0.86168  1.0000 0.1375566046
N   N11       1.0  0.51550  0.69514  0.86168  1.0000 0.1375566046
N   N12       1.0  0.98450  0.19514  0.13832  1.0000 0.1375566046
N   N13       1.0  0.47200  0.39263  0.23607  1.0000 -0.1725128334
N   N14       1.0  0.02800  0.89263  0.76393  1.0000 -0.1725128334
N   N15       1.0  0.52800  0.60737  0.76393  1.0000 -0.1725128334
N   N16       1.0  0.97200  0.10737  0.23607  1.0000 -0.1725128334
N   N17       1.0  0.39330  0.38022  0.73130  1.0000 -0.1725128334
N   N18       1.0  0.10670  0.88022  0.26870  1.0000 -0.1725128334
N   N19       1.0  0.60670  0.61978  0.26870  1.0000 -0.1725128334
N   N20       1.0  0.89330  0.11978  0.73130  1.0000 -0.1725128334
N   N21       1.0  0.47820  0.27174  0.66807  1.0000 0.1481753757
N   N22       1.0  0.02180  0.77174  0.33193  1.0000 0.1481753757
N   N23       1.0  0.52180  0.72826  0.33193  1.0000 0.1481753757
N   N24       1.0  0.97820  0.22826  0.66807  1.0000 0.1481753757
N   N25       1.0  0.49540  0.20995  0.61120  1.0000 -0.3497288603
N   N26       1.0  0.00460  0.70995  0.38880  1.0000 -0.3497288603
N   N27       1.0  0.50460  0.79005  0.38880  1.0000 -0.3497288603
N   N28       1.0  0.99540  0.29005  0.61120  1.0000 -0.3497288603
N   N29       1.0  0.47560  0.32910  0.77944  1.0000 -0.1725128334
N   N30       1.0  0.02440  0.82910  0.22056  1.0000 -0.1725128334
N   N31       1.0  0.52440  0.67090  0.22056  1.0000 -0.1725128334
N   N32       1.0  0.97560  0.17090  0.77944  1.0000 -0.1725128334
O   O1        1.0  0.63237  0.92606  0.82687  1.0000 -0.5323695321
O   O2        1.0  0.86763  0.42606  0.17313  1.0000 -0.5323695321
O   O3        1.0  0.36763  0.07394  0.17313  1.0000 -0.5323695321
O   O4        1.0  0.13237  0.57394  0.82687  1.0000 -0.5323695321
O   O5        1.0  0.63889  0.15561  0.14514  1.0000 -0.4440369684
O   O6        1.0  0.86111  0.65561  0.85486  1.0000 -0.4440369684
O   O7        1.0  0.36111  0.84439  0.85486  1.0000 -0.4440369684
O   O8        1.0  0.13889  0.34439  0.14514  1.0000 -0.4440369684
O   O9        1.0  0.71270  0.06628  0.85541  1.0000 -0.5219286758
O   O10       1.0  0.78730  0.56628  0.14459  1.0000 -0.5219286758
O   O11       1.0  0.28730  0.93372  0.14459  1.0000 -0.5219286758
O   O12       1.0  0.21270  0.43372  0.85541  1.0000 -0.5219286758
O   O13       1.0  0.61380  0.05684  0.68975  1.0000 -0.5102783818
O   O14       1.0  0.88620  0.55684  0.31025  1.0000 -0.5102783818
O   O15       1.0  0.38620  0.94316  0.31025  1.0000 -0.5102783818
O   O16       1.0  0.11380  0.44316  0.68975  1.0000 -0.5102783818
O   O17       1.0  0.33230  0.11887  0.64869  1.0000 -0.4486974854
O   O18       1.0  0.16770  0.61887  0.35131  1.0000 -0.4486974854
O   O19       1.0  0.66770  0.88113  0.35131  1.0000 -0.4486974854
O   O20       1.0  0.83230  0.38113  0.64869  1.0000 -0.4486974854
O   O21       1.0  0.73420  0.94440  0.65399  1.0000 -0.4866578434
O   O22       1.0  0.76580  0.44440  0.34601  1.0000 -0.4866578434
O   O23       1.0  0.26580  0.05560  0.34601  1.0000 -0.4866578434
O   O24       1.0  0.23420  0.55560  0.65399  1.0000 -0.4866578434
