# DDEC6 charges by PACMAN v1.1 (https://github.com/mtap-research/PACMAN-charge/)
data_2015[Cd][hex]3[ASR]1
_chemical_formula_sum              "Cd12 H80 C120 N100 O4"
_cell_length_a       14.044
_cell_length_b       20.297
_cell_length_c       23.635
_cell_angle_alpha    90
_cell_angle_beta     90
_cell_angle_gamma    90

_symmetry_space_group_name_H-M    "P 1"
_symmetry_Int_Tables_number       1

loop_
  _symmetry_equiv_pos_as_xyz
  'x, y, z'

loop_
  _atom_site_type_symbol
  _atom_site_label
  _atom_site_symmetry_multiplicity
  _atom_site_fract_x
  _atom_site_fract_y
  _atom_site_fract_z
  _atom_site_occupancy
  _atom_site_charge
Cd  Cd1       1.0  0.89999  0.73070  0.83136  1.0000 0.6830776235
Cd  Cd2       1.0  0.60001  0.26930  0.83136  1.0000 0.6830776235
Cd  Cd3       1.0  0.89999  0.76930  0.66864  1.0000 0.6830776235
Cd  Cd4       1.0  0.60001  0.23070  0.66864  1.0000 0.6830776235
Cd  Cd5       1.0  0.10001  0.26930  0.16864  1.0000 0.6830776235
Cd  Cd6       1.0  0.39999  0.73070  0.16864  1.0000 0.6830776235
Cd  Cd7       1.0  0.10001  0.23070  0.33136  1.0000 0.6830776235
Cd  Cd8       1.0  0.39999  0.76930  0.33136  1.0000 0.6830776235
Cd  Cd9       1.0  0.65567  0.75000  0.75000  1.0000 0.6694952597
Cd  Cd10      1.0  0.84433  0.25000  0.75000  1.0000 0.6694952597
Cd  Cd11      1.0  0.34433  0.25000  0.25000  1.0000 0.6694952597
Cd  Cd12      1.0  0.15567  0.75000  0.25000  1.0000 0.6694952597
H   H1        1.0  0.59230  0.67080  0.11470  1.0000 0.1006599339
H   H2        1.0  0.90770  0.32920  0.11470  1.0000 0.1006599339
H   H3        1.0  0.59230  0.82920  0.38530  1.0000 0.1006599339
H   H4        1.0  0.90770  0.17080  0.38530  1.0000 0.1006599339
H   H5        1.0  0.40770  0.32920  0.88530  1.0000 0.1006599339
H   H6        1.0  0.09230  0.67080  0.88530  1.0000 0.1006599339
H   H7        1.0  0.40770  0.17080  0.61470  1.0000 0.1006599339
H   H8        1.0  0.09230  0.82920  0.61470  1.0000 0.1006599339
H   H9        1.0  0.37930  0.73720  0.03280  1.0000 0.1006599339
H   H10       1.0  0.12070  0.26280  0.03280  1.0000 0.1006599339
H   H11       1.0  0.37930  0.76280  0.46720  1.0000 0.1006599339
H   H12       1.0  0.12070  0.23720  0.46720  1.0000 0.1006599339
H   H13       1.0  0.62070  0.26280  0.96720  1.0000 0.1006599339
H   H14       1.0  0.87930  0.73720  0.96720  1.0000 0.1006599339
H   H15       1.0  0.62070  0.23720  0.53280  1.0000 0.1006599339
H   H16       1.0  0.87930  0.76280  0.53280  1.0000 0.1006599339
H   H17       1.0  0.86550  0.05810  0.90460  1.0000 0.1471217076
H   H18       1.0  0.63450  0.94190  0.90460  1.0000 0.1471217076
H   H19       1.0  0.86550  0.44190  0.59540  1.0000 0.1471217076
H   H20       1.0  0.63450  0.55810  0.59540  1.0000 0.1471217076
H   H21       1.0  0.13450  0.94190  0.09540  1.0000 0.1471217076
H   H22       1.0  0.36550  0.05810  0.09540  1.0000 0.1471217076
H   H23       1.0  0.13450  0.55810  0.40460  1.0000 0.1471217076
H   H24       1.0  0.36550  0.44190  0.40460  1.0000 0.1471217076
H   H25       1.0  0.87320  0.99540  0.74280  1.0000 0.1471217076
H   H26       1.0  0.62680  0.00460  0.74280  1.0000 0.1471217076
H   H27       1.0  0.87320  0.50460  0.75720  1.0000 0.1471217076
H   H28       1.0  0.62680  0.49540  0.75720  1.0000 0.1471217076
H   H29       1.0  0.12680  0.00460  0.25720  1.0000 0.1471217076
H   H30       1.0  0.37320  0.99540  0.25720  1.0000 0.1471217076
H   H31       1.0  0.12680  0.49540  0.24280  1.0000 0.1471217076
H   H32       1.0  0.37320  0.50460  0.24280  1.0000 0.1471217076
H   H33       1.0  0.85090  0.16420  0.86980  1.0000 0.1006599339
H   H34       1.0  0.64910  0.83580  0.86980  1.0000 0.1006599339
H   H35       1.0  0.85090  0.33580  0.63020  1.0000 0.1006599339
H   H36       1.0  0.64910  0.66420  0.63020  1.0000 0.1006599339
H   H37       1.0  0.14910  0.83580  0.13020  1.0000 0.1006599339
H   H38       1.0  0.35090  0.16420  0.13020  1.0000 0.1006599339
H   H39       1.0  0.14910  0.66420  0.36980  1.0000 0.1006599339
H   H40       1.0  0.35090  0.33580  0.36980  1.0000 0.1006599339
H   H41       1.0  0.86880  0.10040  0.71620  1.0000 0.111971035
H   H42       1.0  0.63120  0.89960  0.71620  1.0000 0.111971035
H   H43       1.0  0.86880  0.39960  0.78380  1.0000 0.111971035
H   H44       1.0  0.63120  0.60040  0.78380  1.0000 0.111971035
H   H45       1.0  0.13120  0.89960  0.28380  1.0000 0.111971035
H   H46       1.0  0.36880  0.10040  0.28380  1.0000 0.111971035
H   H47       1.0  0.13120  0.60040  0.21620  1.0000 0.111971035
H   H48       1.0  0.36880  0.39960  0.21620  1.0000 0.111971035
H   H49       1.0  0.45640  0.72340  0.94980  1.0000 0.1434954231
H   H50       1.0  0.04360  0.27660  0.94980  1.0000 0.1434954231
H   H51       1.0  0.45640  0.77660  0.55020  1.0000 0.1434954231
H   H52       1.0  0.04360  0.22340  0.55020  1.0000 0.1434954231
H   H53       1.0  0.54360  0.27660  0.05020  1.0000 0.1434954231
H   H54       1.0  0.95640  0.72340  0.05020  1.0000 0.1434954231
H   H55       1.0  0.54360  0.22340  0.44980  1.0000 0.1434954231
H   H56       1.0  0.95640  0.77660  0.44980  1.0000 0.1434954231
H   H57       1.0  0.68420  0.66090  0.03370  1.0000 0.1471217076
H   H58       1.0  0.81580  0.33910  0.03370  1.0000 0.1471217076
H   H59       1.0  0.68420  0.83910  0.46630  1.0000 0.1471217076
H   H60       1.0  0.81580  0.16090  0.46630  1.0000 0.1471217076
H   H61       1.0  0.31580  0.33910  0.96630  1.0000 0.1471217076
H   H62       1.0  0.18420  0.66090  0.96630  1.0000 0.1471217076
H   H63       1.0  0.31580  0.16090  0.53370  1.0000 0.1471217076
H   H64       1.0  0.18420  0.83910  0.53370  1.0000 0.1471217076
H   H65       1.0  0.47010  0.77470  0.82980  1.0000 0.1006599339
H   H66       1.0  0.02990  0.22530  0.82980  1.0000 0.1006599339
H   H67       1.0  0.47010  0.72530  0.67020  1.0000 0.1006599339
H   H68       1.0  0.02990  0.27470  0.67020  1.0000 0.1006599339
H   H69       1.0  0.52990  0.22530  0.17020  1.0000 0.1006599339
H   H70       1.0  0.97010  0.77470  0.17020  1.0000 0.1006599339
H   H71       1.0  0.52990  0.27470  0.32980  1.0000 0.1006599339
H   H72       1.0  0.97010  0.72530  0.32980  1.0000 0.1006599339
H   H73       1.0  0.31010  0.77430  0.83190  1.0000 0.1434954231
H   H74       1.0  0.18990  0.22570  0.83190  1.0000 0.1434954231
H   H75       1.0  0.31010  0.72570  0.66810  1.0000 0.1434954231
H   H76       1.0  0.18990  0.27430  0.66810  1.0000 0.1434954231
H   H77       1.0  0.68990  0.22570  0.16810  1.0000 0.1434954231
H   H78       1.0  0.81010  0.77430  0.16810  1.0000 0.1434954231
H   H79       1.0  0.68990  0.27430  0.33190  1.0000 0.1434954231
H   H80       1.0  0.81010  0.72570  0.33190  1.0000 0.1434954231
C   C1        1.0  0.56460  0.68320  0.08050  1.0000 0.1006599339
C   C2        1.0  0.93540  0.31680  0.08050  1.0000 0.1006599339
C   C3        1.0  0.56460  0.81680  0.41950  1.0000 0.1006599339
C   C4        1.0  0.93540  0.18320  0.41950  1.0000 0.1006599339
C   C5        1.0  0.43540  0.31680  0.91950  1.0000 0.1006599339
C   C6        1.0  0.06460  0.68320  0.91950  1.0000 0.1006599339
C   C7        1.0  0.43540  0.18320  0.58050  1.0000 0.1006599339
C   C8        1.0  0.06460  0.81680  0.58050  1.0000 0.1006599339
C   C9        1.0  0.44100  0.72060  0.03330  1.0000 0.0505714792
C   C10       1.0  0.05900  0.27940  0.03330  1.0000 0.0505714792
C   C11       1.0  0.44100  0.77940  0.46670  1.0000 0.0505714792
C   C12       1.0  0.05900  0.22060  0.46670  1.0000 0.0505714792
C   C13       1.0  0.55900  0.27940  0.96670  1.0000 0.0505714792
C   C14       1.0  0.94100  0.72060  0.96670  1.0000 0.0505714792
C   C15       1.0  0.55900  0.22060  0.53330  1.0000 0.0505714792
C   C16       1.0  0.94100  0.77940  0.53330  1.0000 0.0505714792
C   C17       1.0  0.88110  0.94480  0.84990  1.0000 0.2124112238
C   C18       1.0  0.61890  0.05520  0.84990  1.0000 0.2124112238
C   C19       1.0  0.88110  0.55520  0.65010  1.0000 0.2124112238
C   C20       1.0  0.61890  0.44480  0.65010  1.0000 0.2124112238
C   C21       1.0  0.11890  0.05520  0.15010  1.0000 0.2124112238
C   C22       1.0  0.38110  0.94480  0.15010  1.0000 0.2124112238
C   C23       1.0  0.11890  0.44480  0.34990  1.0000 0.2124112238
C   C24       1.0  0.38110  0.55520  0.34990  1.0000 0.2124112238
C   C25       1.0  0.87420  0.01290  0.82870  1.0000 0.0887763848
C   C26       1.0  0.62580  0.98710  0.82870  1.0000 0.0887763848
C   C27       1.0  0.87420  0.48710  0.67130  1.0000 0.0887763848
C   C28       1.0  0.62580  0.51290  0.67130  1.0000 0.0887763848
C   C29       1.0  0.12580  0.98710  0.17130  1.0000 0.0887763848
C   C30       1.0  0.37420  0.01290  0.17130  1.0000 0.0887763848
C   C31       1.0  0.12580  0.51290  0.32870  1.0000 0.0887763848
C   C32       1.0  0.37420  0.48710  0.32870  1.0000 0.0887763848
C   C33       1.0  0.86540  0.06530  0.86580  1.0000 -0.1628906379
C   C34       1.0  0.63460  0.93470  0.86580  1.0000 -0.1628906379
C   C35       1.0  0.86540  0.43470  0.63420  1.0000 -0.1628906379
C   C36       1.0  0.63460  0.56530  0.63420  1.0000 -0.1628906379
C   C37       1.0  0.13460  0.93470  0.13420  1.0000 -0.1628906379
C   C38       1.0  0.36540  0.06530  0.13420  1.0000 -0.1628906379
C   C39       1.0  0.13460  0.56530  0.36580  1.0000 -0.1628906379
C   C40       1.0  0.36540  0.43470  0.36580  1.0000 -0.1628906379
C   C41       1.0  0.87120  0.02850  0.77000  1.0000 -0.1748205523
C   C42       1.0  0.62880  0.97150  0.77000  1.0000 -0.1769170373
C   C43       1.0  0.87120  0.47150  0.73000  1.0000 -0.1748205523
C   C44       1.0  0.62880  0.52850  0.73000  1.0000 -0.1748205523
C   C45       1.0  0.12880  0.97150  0.23000  1.0000 -0.1769170373
C   C46       1.0  0.37120  0.02850  0.23000  1.0000 -0.1748205523
C   C47       1.0  0.12880  0.52850  0.27000  1.0000 -0.1769170373
C   C48       1.0  0.37120  0.47150  0.27000  1.0000 -0.1748205523
C   C49       1.0  0.85640  0.12950  0.84430  1.0000 0.0828729923
C   C50       1.0  0.64360  0.87050  0.84430  1.0000 0.0828729923
C   C51       1.0  0.85640  0.37050  0.65570  1.0000 0.0828729923
C   C52       1.0  0.64360  0.62950  0.65570  1.0000 0.0828729923
C   C53       1.0  0.14360  0.87050  0.15570  1.0000 0.0828729923
C   C54       1.0  0.35640  0.12950  0.15570  1.0000 0.0828729923
C   C55       1.0  0.14360  0.62950  0.34430  1.0000 0.0828729923
C   C56       1.0  0.35640  0.37050  0.34430  1.0000 0.0828729923
C   C57       1.0  0.86540  0.09160  0.75470  1.0000 0.064015941
C   C58       1.0  0.63460  0.90840  0.75470  1.0000 0.064015941
C   C59       1.0  0.86540  0.40840  0.74530  1.0000 0.064015941
C   C60       1.0  0.63460  0.59160  0.74530  1.0000 0.064015941
C   C61       1.0  0.13460  0.90840  0.24530  1.0000 0.064015941
C   C62       1.0  0.36540  0.09160  0.24530  1.0000 0.064015941
C   C63       1.0  0.13460  0.59160  0.25470  1.0000 0.064015941
C   C64       1.0  0.36540  0.40840  0.25470  1.0000 0.064015941
C   C65       1.0  0.63400  0.69640  0.93050  1.0000 0.2124112238
C   C66       1.0  0.86600  0.30360  0.93050  1.0000 0.2124112238
C   C67       1.0  0.63400  0.80360  0.56950  1.0000 0.2124112238
C   C68       1.0  0.86600  0.19640  0.56950  1.0000 0.2124112238
C   C69       1.0  0.36600  0.30360  0.06950  1.0000 0.2124112238
C   C70       1.0  0.13400  0.69640  0.06950  1.0000 0.2124112238
C   C71       1.0  0.36600  0.19640  0.43050  1.0000 0.2124112238
C   C72       1.0  0.13400  0.80360  0.43050  1.0000 0.2124112238
C   C73       1.0  0.58070  0.69470  0.98210  1.0000 0.0828729923
C   C74       1.0  0.91930  0.30530  0.98210  1.0000 0.0887763848
C   C75       1.0  0.58070  0.80530  0.51790  1.0000 0.0828729923
C   C76       1.0  0.91930  0.19470  0.51790  1.0000 0.0887763848
C   C77       1.0  0.41930  0.30530  0.01790  1.0000 0.0887763848
C   C78       1.0  0.08070  0.69470  0.01790  1.0000 0.0828729923
C   C79       1.0  0.41930  0.19470  0.48210  1.0000 0.0828729923
C   C80       1.0  0.08070  0.80530  0.48210  1.0000 0.0828729923
C   C81       1.0  0.48790  0.71430  0.98350  1.0000 -0.1769170373
C   C82       1.0  0.01210  0.28570  0.98350  1.0000 -0.1769170373
C   C83       1.0  0.48790  0.78570  0.51650  1.0000 -0.1769170373
C   C84       1.0  0.01210  0.21430  0.51650  1.0000 -0.1769170373
C   C85       1.0  0.51210  0.28570  0.01650  1.0000 -0.1769170373
C   C86       1.0  0.98790  0.71430  0.01650  1.0000 -0.1769170373
C   C87       1.0  0.51210  0.21430  0.48350  1.0000 -0.1769170373
C   C88       1.0  0.98790  0.78570  0.48350  1.0000 -0.1769170373
C   C89       1.0  0.62210  0.67660  0.03190  1.0000 -0.1898150832
C   C90       1.0  0.87790  0.32340  0.03190  1.0000 -0.1898150832
C   C91       1.0  0.62210  0.82340  0.46810  1.0000 -0.1898150832
C   C92       1.0  0.87790  0.17660  0.46810  1.0000 -0.1898150832
C   C93       1.0  0.37790  0.32340  0.96810  1.0000 -0.1898150832
C   C94       1.0  0.12210  0.67660  0.96810  1.0000 -0.1898150832
C   C95       1.0  0.37790  0.17660  0.53190  1.0000 -0.1898150832
C   C96       1.0  0.12210  0.82340  0.53190  1.0000 -0.1898150832
C   C97       1.0  0.18040  0.75000  0.75000  1.0000 0.2124112238
C   C98       1.0  0.31960  0.25000  0.75000  1.0000 0.2124112238
C   C99       1.0  0.81960  0.25000  0.25000  1.0000 0.2124112238
C   C100      1.0  0.68040  0.75000  0.25000  1.0000 0.2124112238
C   C101      1.0  0.28390  0.75000  0.75000  1.0000 0.1006599339
C   C102      1.0  0.21610  0.25000  0.75000  1.0000 0.1006599339
C   C103      1.0  0.71610  0.25000  0.25000  1.0000 0.1006599339
C   C104      1.0  0.78390  0.75000  0.25000  1.0000 0.1006599339
C   C105      1.0  0.43700  0.76440  0.79690  1.0000 0.071022007
C   C106      1.0  0.06300  0.23560  0.79690  1.0000 0.071022007
C   C107      1.0  0.43700  0.73560  0.70310  1.0000 0.071022007
C   C108      1.0  0.06300  0.26440  0.70310  1.0000 0.071022007
C   C109      1.0  0.56300  0.23560  0.20310  1.0000 0.071022007
C   C110      1.0  0.93700  0.76440  0.20310  1.0000 0.071022007
C   C111      1.0  0.56300  0.26440  0.29690  1.0000 0.071022007
C   C112      1.0  0.93700  0.73560  0.29690  1.0000 0.071022007
C   C113      1.0  0.34060  0.76440  0.79800  1.0000 -0.1898150832
C   C114      1.0  0.15940  0.23560  0.79800  1.0000 -0.1898150832
C   C115      1.0  0.34060  0.73560  0.70200  1.0000 -0.1898150832
C   C116      1.0  0.15940  0.26440  0.70200  1.0000 -0.1898150832
C   C117      1.0  0.65940  0.23560  0.20200  1.0000 -0.1898150832
C   C118      1.0  0.84060  0.76440  0.20200  1.0000 -0.1898150832
C   C119      1.0  0.65940  0.26440  0.29800  1.0000 -0.1898150832
C   C120      1.0  0.84060  0.73560  0.29800  1.0000 -0.1898150832
N   N1        1.0  0.47960  0.70400  0.08320  1.0000 -0.2312816084
N   N2        1.0  0.02040  0.29600  0.08320  1.0000 -0.2312816084
N   N3        1.0  0.47960  0.79600  0.41680  1.0000 -0.2312816084
N   N4        1.0  0.02040  0.20400  0.41680  1.0000 -0.2312816084
N   N5        1.0  0.52040  0.29600  0.91680  1.0000 -0.2312816084
N   N6        1.0  0.97960  0.70400  0.91680  1.0000 -0.2312816084
N   N7        1.0  0.52040  0.20400  0.58320  1.0000 -0.2312816084
N   N8        1.0  0.97960  0.79600  0.58320  1.0000 -0.2312816084
N   N9        1.0  0.88700  0.84270  0.85650  1.0000 -0.033211461
N   N10       1.0  0.61300  0.15730  0.85650  1.0000 -0.033211461
N   N11       1.0  0.88700  0.65730  0.64350  1.0000 -0.033211461
N   N12       1.0  0.61300  0.34270  0.64350  1.0000 -0.033211461
N   N13       1.0  0.11300  0.15730  0.14350  1.0000 -0.033211461
N   N14       1.0  0.38700  0.84270  0.14350  1.0000 -0.033211461
N   N15       1.0  0.11300  0.34270  0.35650  1.0000 -0.033211461
N   N16       1.0  0.38700  0.65730  0.35650  1.0000 -0.033211461
N   N17       1.0  0.88140  0.86390  0.90710  1.0000 -0.1125136266
N   N18       1.0  0.61860  0.13610  0.90710  1.0000 -0.1125136266
N   N19       1.0  0.88140  0.63610  0.59290  1.0000 -0.1125136266
N   N20       1.0  0.61860  0.36390  0.59290  1.0000 -0.1125136266
N   N21       1.0  0.11860  0.13610  0.09290  1.0000 -0.1125136266
N   N22       1.0  0.38140  0.86390  0.09290  1.0000 -0.1125136266
N   N23       1.0  0.11860  0.36390  0.40710  1.0000 -0.1125136266
N   N24       1.0  0.38140  0.63610  0.40710  1.0000 -0.1125136266
N   N25       1.0  0.87490  0.92870  0.90410  1.0000 -0.2506664923
N   N26       1.0  0.62510  0.07130  0.90410  1.0000 -0.2506664923
N   N27       1.0  0.87490  0.57130  0.59590  1.0000 -0.2506664923
N   N28       1.0  0.62510  0.42870  0.59590  1.0000 -0.2506664923
N   N29       1.0  0.12510  0.07130  0.09590  1.0000 -0.2506664923
N   N30       1.0  0.37490  0.92870  0.09590  1.0000 -0.2506664923
N   N31       1.0  0.12510  0.42870  0.40410  1.0000 -0.2506664923
N   N32       1.0  0.37490  0.57130  0.40410  1.0000 -0.2506664923
N   N33       1.0  0.88460  0.89100  0.81810  1.0000 -0.2506664923
N   N34       1.0  0.61540  0.10900  0.81810  1.0000 -0.2506664923
N   N35       1.0  0.88460  0.60900  0.68190  1.0000 -0.2506664923
N   N36       1.0  0.61540  0.39100  0.68190  1.0000 -0.2506664923
N   N37       1.0  0.11540  0.10900  0.18190  1.0000 -0.2506664923
N   N38       1.0  0.38460  0.89100  0.18190  1.0000 -0.2506664923
N   N39       1.0  0.11540  0.39100  0.31810  1.0000 -0.2506664923
N   N40       1.0  0.38460  0.60900  0.31810  1.0000 -0.2506664923
N   N41       1.0  0.85530  0.14330  0.78860  1.0000 -0.2209361444
N   N42       1.0  0.64470  0.85670  0.78860  1.0000 -0.2209361444
N   N43       1.0  0.85530  0.35670  0.71140  1.0000 -0.2209361444
N   N44       1.0  0.64470  0.64330  0.71140  1.0000 -0.2209361444
N   N45       1.0  0.14470  0.85670  0.21140  1.0000 -0.2209361444
N   N46       1.0  0.35530  0.14330  0.21140  1.0000 -0.2209361444
N   N47       1.0  0.14470  0.64330  0.28860  1.0000 -0.2209361444
N   N48       1.0  0.35530  0.35670  0.28860  1.0000 -0.2209361444
N   N49       1.0  0.75040  0.70230  0.87190  1.0000 -0.0502289251
N   N50       1.0  0.74960  0.29770  0.87190  1.0000 -0.0502289251
N   N51       1.0  0.75040  0.79770  0.62810  1.0000 -0.0502289251
N   N52       1.0  0.74960  0.20230  0.62810  1.0000 -0.0502289251
N   N53       1.0  0.24960  0.29770  0.12810  1.0000 -0.0502289251
N   N54       1.0  0.25040  0.70230  0.12810  1.0000 -0.0502289251
N   N55       1.0  0.24960  0.20230  0.37190  1.0000 -0.0502289251
N   N56       1.0  0.25040  0.79770  0.37190  1.0000 -0.0502289251
N   N57       1.0  0.66750  0.70720  0.84320  1.0000 -0.0642976302
N   N58       1.0  0.83250  0.29280  0.84320  1.0000 -0.0642976302
N   N59       1.0  0.66750  0.79280  0.65680  1.0000 -0.0642976302
N   N60       1.0  0.83250  0.20720  0.65680  1.0000 -0.0642976302
N   N61       1.0  0.33250  0.29280  0.15680  1.0000 -0.0642976302
N   N62       1.0  0.16750  0.70720  0.15680  1.0000 -0.0642976302
N   N63       1.0  0.33250  0.20720  0.34320  1.0000 -0.0642976302
N   N64       1.0  0.16750  0.79280  0.34320  1.0000 -0.0642976302
N   N65       1.0  0.59380  0.70390  0.87820  1.0000 -0.2660125444
N   N66       1.0  0.90620  0.29610  0.87820  1.0000 -0.2660125444
N   N67       1.0  0.59380  0.79610  0.62180  1.0000 -0.2660125444
N   N68       1.0  0.90620  0.20390  0.62180  1.0000 -0.2660125444
N   N69       1.0  0.40620  0.29610  0.12180  1.0000 -0.2660125444
N   N70       1.0  0.09380  0.70390  0.12180  1.0000 -0.2660125444
N   N71       1.0  0.40620  0.20390  0.37820  1.0000 -0.2660125444
N   N72       1.0  0.09380  0.79610  0.37820  1.0000 -0.2660125444
N   N73       1.0  0.72940  0.69380  0.92630  1.0000 -0.2584091673
N   N74       1.0  0.77060  0.30620  0.92630  1.0000 -0.2584091673
N   N75       1.0  0.72940  0.80620  0.57370  1.0000 -0.2584091673
N   N76       1.0  0.77060  0.19380  0.57370  1.0000 -0.2584091673
N   N77       1.0  0.27060  0.30620  0.07370  1.0000 -0.2584091673
N   N78       1.0  0.22940  0.69380  0.07370  1.0000 -0.2584091673
N   N79       1.0  0.27060  0.19380  0.42630  1.0000 -0.2584091673
N   N80       1.0  0.22940  0.80620  0.42630  1.0000 -0.2584091673
N   N81       1.0  0.03920  0.75250  0.77930  1.0000 -0.0502289251
N   N82       1.0  0.46080  0.24750  0.77930  1.0000 -0.0502289251
N   N83       1.0  0.03920  0.74750  0.72070  1.0000 -0.0502289251
N   N84       1.0  0.46080  0.25250  0.72070  1.0000 -0.0502289251
N   N85       1.0  0.96080  0.24750  0.22070  1.0000 -0.0502289251
N   N86       1.0  0.53920  0.75250  0.22070  1.0000 -0.0502289251
N   N87       1.0  0.96080  0.25250  0.27930  1.0000 -0.0502289251
N   N88       1.0  0.53920  0.74750  0.27930  1.0000 -0.0502289251
N   N89       1.0  0.12750  0.74940  0.79730  1.0000 -0.2584091673
N   N90       1.0  0.37250  0.25060  0.79730  1.0000 -0.2584091673
N   N91       1.0  0.12750  0.75060  0.70270  1.0000 -0.2584091673
N   N92       1.0  0.37250  0.24940  0.70270  1.0000 -0.2584091673
N   N93       1.0  0.87250  0.25060  0.20270  1.0000 -0.2584091673
N   N94       1.0  0.62750  0.74940  0.20270  1.0000 -0.2584091673
N   N95       1.0  0.87250  0.24940  0.29730  1.0000 -0.2584091673
N   N96       1.0  0.62750  0.75060  0.29730  1.0000 -0.2584091673
N   N97       1.0  0.48610  0.75000  0.75000  1.0000 -0.2312816084
N   N98       1.0  0.01390  0.25000  0.75000  1.0000 -0.2312816084
N   N99       1.0  0.51390  0.25000  0.25000  1.0000 -0.2312816084
N   N100      1.0  0.98610  0.75000  0.25000  1.0000 -0.2312816084
O   O1        1.0  0.81550  0.75000  0.75000  1.0000 -0.6548248182
O   O2        1.0  0.68450  0.25000  0.75000  1.0000 -0.6548248182
O   O3        1.0  0.18450  0.25000  0.25000  1.0000 -0.6556070099
O   O4        1.0  0.31550  0.75000  0.25000  1.0000 -0.6556070099
