# DDEC6 charges by PACMAN v1.1 (https://github.com/mtap-research/PACMAN-charge/)
data_2015[Cd][nan]3[ASR]7
_chemical_formula_sum              "Cd24 H104 C176 N48 O72"
_cell_length_a       16.7399
_cell_length_b       16.7399
_cell_length_c       36.8943
_cell_angle_alpha    90
_cell_angle_beta     90
_cell_angle_gamma    103.413

_symmetry_space_group_name_H-M    "P 1"
_symmetry_Int_Tables_number       1

loop_
  _symmetry_equiv_pos_as_xyz
  'x, y, z'

loop_
  _atom_site_type_symbol
  _atom_site_label
  _atom_site_symmetry_multiplicity
  _atom_site_fract_x
  _atom_site_fract_y
  _atom_site_fract_z
  _atom_site_occupancy
  _atom_site_charge
Cd  Cd1       1.0  0.23151  0.23151  0.25000  1.0000 0.8894120641
Cd  Cd2       1.0  0.76849  0.76849  0.25000  1.0000 0.8894120641
Cd  Cd3       1.0  0.76849  0.76849  0.75000  1.0000 0.8894120641
Cd  Cd4       1.0  0.23151  0.23151  0.75000  1.0000 0.8894120641
Cd  Cd5       1.0  0.26311  0.14191  0.15126  1.0000 0.8488652594
Cd  Cd6       1.0  0.73689  0.85809  0.15126  1.0000 0.8488652594
Cd  Cd7       1.0  0.14191  0.26311  0.34874  1.0000 0.8488652594
Cd  Cd8       1.0  0.85809  0.73689  0.34874  1.0000 0.8488652594
Cd  Cd9       1.0  0.73689  0.85809  0.84874  1.0000 0.8488652594
Cd  Cd10      1.0  0.26311  0.14191  0.84874  1.0000 0.8488652594
Cd  Cd11      1.0  0.85809  0.73689  0.65126  1.0000 0.8488652594
Cd  Cd12      1.0  0.14191  0.26311  0.65126  1.0000 0.8488652594
Cd  Cd13      1.0  0.91579  0.24267  0.15047  1.0000 0.8399411552
Cd  Cd14      1.0  0.08421  0.75733  0.15047  1.0000 0.8399411552
Cd  Cd15      1.0  0.24267  0.91579  0.34953  1.0000 0.8399411552
Cd  Cd16      1.0  0.75733  0.08421  0.34953  1.0000 0.8399411552
Cd  Cd17      1.0  0.08421  0.75733  0.84953  1.0000 0.8399411552
Cd  Cd18      1.0  0.91579  0.24267  0.84953  1.0000 0.8399411552
Cd  Cd19      1.0  0.75733  0.08421  0.65047  1.0000 0.8399411552
Cd  Cd20      1.0  0.24267  0.91579  0.65047  1.0000 0.8399411552
Cd  Cd21      1.0  0.80891  0.19109  0.25000  1.0000 0.8618349321
Cd  Cd22      1.0  0.19109  0.80891  0.25000  1.0000 0.8618349321
Cd  Cd23      1.0  0.19109  0.80891  0.75000  1.0000 0.8618349321
Cd  Cd24      1.0  0.80891  0.19109  0.75000  1.0000 0.8618349321
H   H1        1.0  0.07740  0.16120  0.12880  1.0000 0.1292028651
H   H2        1.0  0.92260  0.83880  0.12880  1.0000 0.1292028651
H   H3        1.0  0.16120  0.07740  0.37120  1.0000 0.1292028651
H   H4        1.0  0.83880  0.92260  0.37120  1.0000 0.1292028651
H   H5        1.0  0.92260  0.83880  0.87120  1.0000 0.1292028651
H   H6        1.0  0.07740  0.16120  0.87120  1.0000 0.1292028651
H   H7        1.0  0.83880  0.92260  0.62880  1.0000 0.1292028651
H   H8        1.0  0.16120  0.07740  0.62880  1.0000 0.1292028651
H   H9        1.0  0.44480  0.44360  0.19570  1.0000 0.1204211624
H   H10       1.0  0.55520  0.55640  0.19570  1.0000 0.1204211624
H   H11       1.0  0.44360  0.44480  0.30430  1.0000 0.1204211624
H   H12       1.0  0.55640  0.55520  0.30430  1.0000 0.1204211624
H   H13       1.0  0.55520  0.55640  0.80430  1.0000 0.1204211624
H   H14       1.0  0.44480  0.44360  0.80430  1.0000 0.1204211624
H   H15       1.0  0.55640  0.55520  0.69570  1.0000 0.1204211624
H   H16       1.0  0.44360  0.44480  0.69570  1.0000 0.1204211624
H   H17       1.0  0.05010  0.26270  0.22060  1.0000 0.1066551805
H   H18       1.0  0.94990  0.73730  0.22060  1.0000 0.1066551805
H   H19       1.0  0.26270  0.05010  0.27940  1.0000 0.1066551805
H   H20       1.0  0.73730  0.94990  0.27940  1.0000 0.1066551805
H   H21       1.0  0.94990  0.73730  0.77940  1.0000 0.1066551805
H   H22       1.0  0.05010  0.26270  0.77940  1.0000 0.1066551805
H   H23       1.0  0.73730  0.94990  0.72060  1.0000 0.1066551805
H   H24       1.0  0.26270  0.05010  0.72060  1.0000 0.1066551805
H   H25       1.0  0.83590  0.05190  0.12740  1.0000 0.1292028651
H   H26       1.0  0.16410  0.94810  0.12740  1.0000 0.1292028651
H   H27       1.0  0.05190  0.83590  0.37260  1.0000 0.1292028651
H   H28       1.0  0.94810  0.16410  0.37260  1.0000 0.1292028651
H   H29       1.0  0.16410  0.94810  0.87260  1.0000 0.1292028651
H   H30       1.0  0.83590  0.05190  0.87260  1.0000 0.1292028651
H   H31       1.0  0.94810  0.16410  0.62740  1.0000 0.1292028651
H   H32       1.0  0.05190  0.83590  0.62740  1.0000 0.1292028651
H   H33       1.0  0.83160  0.59660  0.22190  1.0000 0.1204211624
H   H34       1.0  0.16840  0.40340  0.22190  1.0000 0.1204211624
H   H35       1.0  0.59660  0.83160  0.27810  1.0000 0.1204211624
H   H36       1.0  0.40340  0.16840  0.27810  1.0000 0.1204211624
H   H37       1.0  0.16840  0.40340  0.77810  1.0000 0.1204211624
H   H38       1.0  0.83160  0.59660  0.77810  1.0000 0.1204211624
H   H39       1.0  0.40340  0.16840  0.72190  1.0000 0.1204211624
H   H40       1.0  0.59660  0.83160  0.72190  1.0000 0.1204211624
H   H41       1.0  0.88720  0.48540  0.31010  1.0000 0.1292028651
H   H42       1.0  0.11280  0.51460  0.31010  1.0000 0.1292028651
H   H43       1.0  0.48540  0.88720  0.18990  1.0000 0.1292028651
H   H44       1.0  0.51460  0.11280  0.18990  1.0000 0.1292028651
H   H45       1.0  0.11280  0.51460  0.68990  1.0000 0.1292028651
H   H46       1.0  0.88720  0.48540  0.68990  1.0000 0.1292028651
H   H47       1.0  0.51460  0.11280  0.81010  1.0000 0.1292028651
H   H48       1.0  0.48540  0.88720  0.81010  1.0000 0.1292028651
H   H49       1.0  0.84920  0.48800  0.18660  1.0000 0.1292028651
H   H50       1.0  0.15080  0.51200  0.18660  1.0000 0.1292028651
H   H51       1.0  0.48800  0.84920  0.31340  1.0000 0.1292028651
H   H52       1.0  0.51200  0.15080  0.31340  1.0000 0.1292028651
H   H53       1.0  0.15080  0.51200  0.81340  1.0000 0.1292028651
H   H54       1.0  0.84920  0.48800  0.81340  1.0000 0.1292028651
H   H55       1.0  0.51200  0.15080  0.68660  1.0000 0.1292028651
H   H56       1.0  0.48800  0.84920  0.68660  1.0000 0.1292028651
H   H57       1.0  0.91260  0.38000  0.27480  1.0000 0.1066551805
H   H58       1.0  0.08740  0.62000  0.27480  1.0000 0.1066551805
H   H59       1.0  0.38000  0.91260  0.22520  1.0000 0.1066551805
H   H60       1.0  0.62000  0.08740  0.22520  1.0000 0.1066551805
H   H61       1.0  0.08740  0.62000  0.72520  1.0000 0.1066551805
H   H62       1.0  0.91260  0.38000  0.72520  1.0000 0.1066551805
H   H63       1.0  0.62000  0.08740  0.77480  1.0000 0.1066551805
H   H64       1.0  0.38000  0.91260  0.77480  1.0000 0.1066551805
H   H65       1.0  0.94300  0.11360  0.03140  1.0000 0.1292028651
H   H66       1.0  0.05700  0.88640  0.03140  1.0000 0.1292028651
H   H67       1.0  0.11360  0.94300  0.46860  1.0000 0.1292028651
H   H68       1.0  0.88640  0.05700  0.46860  1.0000 0.1292028651
H   H69       1.0  0.05700  0.88640  0.96860  1.0000 0.1292028651
H   H70       1.0  0.94300  0.11360  0.96860  1.0000 0.1292028651
H   H71       1.0  0.88640  0.05700  0.53140  1.0000 0.1292028651
H   H72       1.0  0.11360  0.94300  0.53140  1.0000 0.1292028651
H   H73       1.0  0.12680  0.07760  0.03150  1.0000 0.1204211624
H   H74       1.0  0.87320  0.92240  0.03150  1.0000 0.1204211624
H   H75       1.0  0.07760  0.12680  0.46850  1.0000 0.1204211624
H   H76       1.0  0.92240  0.87320  0.46850  1.0000 0.1204211624
H   H77       1.0  0.87320  0.92240  0.96850  1.0000 0.1204211624
H   H78       1.0  0.12680  0.07760  0.96850  1.0000 0.1204211624
H   H79       1.0  0.92240  0.87320  0.53150  1.0000 0.1204211624
H   H80       1.0  0.07760  0.12680  0.53150  1.0000 0.1204211624
H   H81       1.0  0.37340  0.14240  0.03160  1.0000 0.1204211624
H   H82       1.0  0.62660  0.85760  0.03160  1.0000 0.1204211624
H   H83       1.0  0.14240  0.37340  0.46840  1.0000 0.1204211624
H   H84       1.0  0.85760  0.62660  0.46840  1.0000 0.1204211624
H   H85       1.0  0.62660  0.85760  0.96840  1.0000 0.1204211624
H   H86       1.0  0.37340  0.14240  0.96840  1.0000 0.1204211624
H   H87       1.0  0.85760  0.62660  0.53160  1.0000 0.1204211624
H   H88       1.0  0.14240  0.37340  0.53160  1.0000 0.1204211624
H   H89       1.0  0.72460  0.00260  0.21860  1.0000 0.1066551805
H   H90       1.0  0.27540  0.99740  0.21860  1.0000 0.1066551805
H   H91       1.0  0.00260  0.72460  0.28140  1.0000 0.1066551805
H   H92       1.0  0.99740  0.27540  0.28140  1.0000 0.1066551805
H   H93       1.0  0.27540  0.99740  0.78140  1.0000 0.1066551805
H   H94       1.0  0.72460  0.00260  0.78140  1.0000 0.1066551805
H   H95       1.0  0.99740  0.27540  0.71860  1.0000 0.1066551805
H   H96       1.0  0.00260  0.72460  0.71860  1.0000 0.1066551805
H   H97       1.0  0.91380  0.34140  0.03250  1.0000 0.1292028651
H   H98       1.0  0.08620  0.65860  0.03250  1.0000 0.1292028651
H   H99       1.0  0.34140  0.91380  0.46750  1.0000 0.1292028651
H   H100      1.0  0.65860  0.08620  0.46750  1.0000 0.1292028651
H   H101      1.0  0.08620  0.65860  0.96750  1.0000 0.1292028651
H   H102      1.0  0.91380  0.34140  0.96750  1.0000 0.1292028651
H   H103      1.0  0.65860  0.08620  0.53250  1.0000 0.1292028651
H   H104      1.0  0.34140  0.91380  0.53250  1.0000 0.1292028651
C   C1        1.0  0.08610  0.18110  0.15237  1.0000 0.1567959991
C   C2        1.0  0.91390  0.81890  0.15237  1.0000 0.1567959991
C   C3        1.0  0.18110  0.08610  0.34763  1.0000 0.1567959991
C   C4        1.0  0.81890  0.91390  0.34763  1.0000 0.1567959991
C   C5        1.0  0.91390  0.81890  0.84763  1.0000 0.1567959991
C   C6        1.0  0.08610  0.18110  0.84763  1.0000 0.1567959991
C   C7        1.0  0.81890  0.91390  0.65237  1.0000 0.1567959991
C   C8        1.0  0.18110  0.08610  0.65237  1.0000 0.1567959991
C   C9        1.0  0.88370  0.42310  0.22714  1.0000 -0.0367383193
C   C10       1.0  0.11630  0.57690  0.22714  1.0000 -0.0367383193
C   C11       1.0  0.42310  0.88370  0.27286  1.0000 -0.0367383193
C   C12       1.0  0.57690  0.11630  0.27286  1.0000 -0.0367383193
C   C13       1.0  0.11630  0.57690  0.77286  1.0000 -0.0367383193
C   C14       1.0  0.88370  0.42310  0.77286  1.0000 -0.0367383193
C   C15       1.0  0.57690  0.11630  0.72714  1.0000 -0.0367383193
C   C16       1.0  0.42310  0.88370  0.72714  1.0000 -0.0367383193
C   C17       1.0  0.35870  0.35870  0.25000  1.0000 0.5259916969
C   C18       1.0  0.64130  0.64130  0.25000  1.0000 0.5259916969
C   C19       1.0  0.64130  0.64130  0.75000  1.0000 0.5259916969
C   C20       1.0  0.35870  0.35870  0.75000  1.0000 0.5259916969
C   C21       1.0  0.43310  0.43310  0.25000  1.0000 -0.0014736564
C   C22       1.0  0.56690  0.56690  0.25000  1.0000 -0.0014736564
C   C23       1.0  0.56690  0.56690  0.75000  1.0000 -0.0014736564
C   C24       1.0  0.43310  0.43310  0.75000  1.0000 -0.0014736564
C   C25       1.0  0.46680  0.46640  0.21750  1.0000 -0.1006375905
C   C26       1.0  0.53320  0.53360  0.21750  1.0000 -0.1006375905
C   C27       1.0  0.46640  0.46680  0.28250  1.0000 -0.1006375905
C   C28       1.0  0.53360  0.53320  0.28250  1.0000 -0.1006375905
C   C29       1.0  0.53320  0.53360  0.78250  1.0000 -0.1006375905
C   C30       1.0  0.46680  0.46640  0.78250  1.0000 -0.1006375905
C   C31       1.0  0.53360  0.53320  0.71750  1.0000 -0.1006375905
C   C32       1.0  0.46640  0.46680  0.71750  1.0000 -0.1006375905
C   C33       1.0  0.07090  0.23610  0.20192  1.0000 0.1486930661
C   C34       1.0  0.92910  0.76390  0.20192  1.0000 0.1486930661
C   C35       1.0  0.23610  0.07090  0.29808  1.0000 0.1486930661
C   C36       1.0  0.76390  0.92910  0.29808  1.0000 0.1486930661
C   C37       1.0  0.92910  0.76390  0.79808  1.0000 0.1486930661
C   C38       1.0  0.07090  0.23610  0.79808  1.0000 0.1486930661
C   C39       1.0  0.76390  0.92910  0.70192  1.0000 0.1486930661
C   C40       1.0  0.23610  0.07090  0.70192  1.0000 0.1486930661
C   C41       1.0  0.81600  0.05680  0.15060  1.0000 0.1700415947
C   C42       1.0  0.18400  0.94320  0.15060  1.0000 0.1700415947
C   C43       1.0  0.05680  0.81600  0.34940  1.0000 0.1700415947
C   C44       1.0  0.94320  0.18400  0.34940  1.0000 0.1700415947
C   C45       1.0  0.18400  0.94320  0.84940  1.0000 0.1700415947
C   C46       1.0  0.81600  0.05680  0.84940  1.0000 0.1700415947
C   C47       1.0  0.94320  0.18400  0.65060  1.0000 0.1700415947
C   C48       1.0  0.05680  0.81600  0.65060  1.0000 0.1700415947
C   C49       1.0  0.25220  0.12140  0.07849  1.0000 0.5400972329
C   C50       1.0  0.74780  0.87860  0.07849  1.0000 0.5400972329
C   C51       1.0  0.12140  0.25220  0.42151  1.0000 0.5400972329
C   C52       1.0  0.87860  0.74780  0.42151  1.0000 0.5400972329
C   C53       1.0  0.74780  0.87860  0.92151  1.0000 0.5400972329
C   C54       1.0  0.25220  0.12140  0.92151  1.0000 0.5400972329
C   C55       1.0  0.87860  0.74780  0.57849  1.0000 0.5400972329
C   C56       1.0  0.12140  0.25220  0.57849  1.0000 0.5400972329
C   C57       1.0  0.25150  0.11550  0.03800  1.0000 -0.0102720609
C   C58       1.0  0.74850  0.88450  0.03800  1.0000 -0.0102720609
C   C59       1.0  0.11550  0.25150  0.46200  1.0000 -0.0102720609
C   C60       1.0  0.88450  0.74850  0.46200  1.0000 -0.0102720609
C   C61       1.0  0.74850  0.88450  0.96200  1.0000 -0.0102720609
C   C62       1.0  0.25150  0.11550  0.96200  1.0000 -0.0102720609
C   C63       1.0  0.88450  0.74850  0.53800  1.0000 -0.0102720609
C   C64       1.0  0.11550  0.25150  0.53800  1.0000 -0.0102720609
C   C65       1.0  0.89730  0.35470  0.20470  1.0000 0.5606953539
C   C66       1.0  0.10270  0.64530  0.20470  1.0000 0.5606953539
C   C67       1.0  0.35470  0.89730  0.29530  1.0000 0.5606953539
C   C68       1.0  0.64530  0.10270  0.29530  1.0000 0.5606953539
C   C69       1.0  0.10270  0.64530  0.79530  1.0000 0.5606953539
C   C70       1.0  0.89730  0.35470  0.79530  1.0000 0.5606953539
C   C71       1.0  0.64530  0.10270  0.70470  1.0000 0.5606953539
C   C72       1.0  0.35470  0.89730  0.70470  1.0000 0.5606953539
C   C73       1.0  0.84710  0.55230  0.23270  1.0000 -0.1093537067
C   C74       1.0  0.15290  0.44770  0.23270  1.0000 -0.1093537067
C   C75       1.0  0.55230  0.84710  0.26730  1.0000 -0.1093537067
C   C76       1.0  0.44770  0.15290  0.26730  1.0000 -0.1093537067
C   C77       1.0  0.15290  0.44770  0.76730  1.0000 -0.1093537067
C   C78       1.0  0.84710  0.55230  0.76730  1.0000 -0.1093537067
C   C79       1.0  0.44770  0.15290  0.73270  1.0000 -0.1093537067
C   C80       1.0  0.55230  0.84710  0.73270  1.0000 -0.1093537067
C   C81       1.0  0.88110  0.48690  0.28500  1.0000 -0.0908014479
C   C82       1.0  0.11890  0.51310  0.28500  1.0000 -0.0908014479
C   C83       1.0  0.48690  0.88110  0.21500  1.0000 -0.0908014479
C   C84       1.0  0.51310  0.11890  0.21500  1.0000 -0.0908014479
C   C85       1.0  0.11890  0.51310  0.71500  1.0000 -0.0908014479
C   C86       1.0  0.88110  0.48690  0.71500  1.0000 -0.0908014479
C   C87       1.0  0.51310  0.11890  0.78500  1.0000 -0.0908014479
C   C88       1.0  0.48690  0.88110  0.78500  1.0000 -0.0908014479
C   C89       1.0  0.85850  0.48770  0.21150  1.0000 -0.0908014479
C   C90       1.0  0.14150  0.51230  0.21150  1.0000 -0.0908014479
C   C91       1.0  0.48770  0.85850  0.28850  1.0000 -0.0908014479
C   C92       1.0  0.51230  0.14150  0.28850  1.0000 -0.0908014479
C   C93       1.0  0.14150  0.51230  0.78850  1.0000 -0.0908014479
C   C94       1.0  0.85850  0.48770  0.78850  1.0000 -0.0908014479
C   C95       1.0  0.51230  0.14150  0.71150  1.0000 -0.0908014479
C   C96       1.0  0.48770  0.85850  0.71150  1.0000 -0.0908014479
C   C97       1.0  0.89520  0.42320  0.26390  1.0000 -0.1208563
C   C98       1.0  0.10480  0.57680  0.26390  1.0000 -0.1208563
C   C99       1.0  0.42320  0.89520  0.23610  1.0000 -0.1208563
C   C100      1.0  0.57680  0.10480  0.23610  1.0000 -0.1208563
C   C101      1.0  0.10480  0.57680  0.73610  1.0000 -0.1208563
C   C102      1.0  0.89520  0.42320  0.73610  1.0000 -0.1208563
C   C103      1.0  0.57680  0.10480  0.76390  1.0000 -0.1208563
C   C104      1.0  0.42320  0.89520  0.76390  1.0000 -0.1208563
C   C105      1.0  0.85830  0.55150  0.26933  1.0000 -0.0102720609
C   C106      1.0  0.14170  0.44850  0.26933  1.0000 -0.0102720609
C   C107      1.0  0.55150  0.85830  0.23067  1.0000 -0.0102720609
C   C108      1.0  0.44850  0.14170  0.23067  1.0000 -0.0102720609
C   C109      1.0  0.14170  0.44850  0.73067  1.0000 -0.0102720609
C   C110      1.0  0.85830  0.55150  0.73067  1.0000 -0.0102720609
C   C111      1.0  0.44850  0.14170  0.76933  1.0000 -0.0102720609
C   C112      1.0  0.55150  0.85830  0.76933  1.0000 -0.0102720609
C   C113      1.0  0.93540  0.15960  0.01893  1.0000 -0.1006375905
C   C114      1.0  0.06460  0.84040  0.01893  1.0000 -0.1006375905
C   C115      1.0  0.15960  0.93540  0.48107  1.0000 -0.1006375905
C   C116      1.0  0.84040  0.06460  0.48107  1.0000 -0.1006375905
C   C117      1.0  0.06460  0.84040  0.98107  1.0000 -0.1006375905
C   C118      1.0  0.93540  0.15960  0.98107  1.0000 -0.1006375905
C   C119      1.0  0.84040  0.06460  0.51893  1.0000 -0.1006375905
C   C120      1.0  0.15960  0.93540  0.51893  1.0000 -0.1006375905
C   C121      1.0  0.17600  0.09260  0.01890  1.0000 -0.1093537067
C   C122      1.0  0.82400  0.90740  0.01890  1.0000 -0.1093537067
C   C123      1.0  0.09260  0.17600  0.48110  1.0000 -0.1093537067
C   C124      1.0  0.90740  0.82400  0.48110  1.0000 -0.1093537067
C   C125      1.0  0.82400  0.90740  0.98110  1.0000 -0.1093537067
C   C126      1.0  0.17600  0.09260  0.98110  1.0000 -0.1093537067
C   C127      1.0  0.90740  0.82400  0.51890  1.0000 -0.1093537067
C   C128      1.0  0.09260  0.17600  0.51890  1.0000 -0.1093537067
C   C129      1.0  0.32380  0.13140  0.01910  1.0000 -0.0908014479
C   C130      1.0  0.67620  0.86860  0.01910  1.0000 -0.0908014479
C   C131      1.0  0.13140  0.32380  0.48090  1.0000 -0.0908014479
C   C132      1.0  0.86860  0.67620  0.48090  1.0000 -0.0908014479
C   C133      1.0  0.67620  0.86860  0.98090  1.0000 -0.0908014479
C   C134      1.0  0.32380  0.13140  0.98090  1.0000 -0.0908014479
C   C135      1.0  0.86860  0.67620  0.51910  1.0000 -0.0908014479
C   C136      1.0  0.13140  0.32380  0.51910  1.0000 -0.0908014479
C   C137      1.0  0.92440  0.22660  0.03780  1.0000 0.0082395302
C   C138      1.0  0.07560  0.77340  0.03780  1.0000 0.0082395302
C   C139      1.0  0.22660  0.92440  0.46220  1.0000 0.0082395302
C   C140      1.0  0.77340  0.07560  0.46220  1.0000 0.0082395302
C   C141      1.0  0.07560  0.77340  0.96220  1.0000 0.0082395302
C   C142      1.0  0.92440  0.22660  0.96220  1.0000 0.0082395302
C   C143      1.0  0.77340  0.07560  0.53780  1.0000 0.0082395302
C   C144      1.0  0.22660  0.92440  0.53780  1.0000 0.0082395302
C   C145      1.0  0.84740  0.62040  0.29311  1.0000 0.5703745969
C   C146      1.0  0.15260  0.37960  0.29311  1.0000 0.5703745969
C   C147      1.0  0.62040  0.84740  0.20689  1.0000 0.5703745969
C   C148      1.0  0.37960  0.15260  0.20689  1.0000 0.5703745969
C   C149      1.0  0.15260  0.37960  0.70689  1.0000 0.5703745969
C   C150      1.0  0.84740  0.62040  0.70689  1.0000 0.5703745969
C   C151      1.0  0.37960  0.15260  0.79311  1.0000 0.5703745969
C   C152      1.0  0.62040  0.84740  0.79311  1.0000 0.5703745969
C   C153      1.0  0.75620  0.03060  0.19970  1.0000 0.1410750039
C   C154      1.0  0.24380  0.96940  0.19970  1.0000 0.1410750039
C   C155      1.0  0.03060  0.75620  0.30030  1.0000 0.1410750039
C   C156      1.0  0.96940  0.24380  0.30030  1.0000 0.1410750039
C   C157      1.0  0.24380  0.96940  0.80030  1.0000 0.1410750039
C   C158      1.0  0.75620  0.03060  0.80030  1.0000 0.1410750039
C   C159      1.0  0.96940  0.24380  0.69970  1.0000 0.1410750039
C   C160      1.0  0.03060  0.75620  0.69970  1.0000 0.1410750039
C   C161      1.0  0.92630  0.22870  0.07860  1.0000 0.5259916969
C   C162      1.0  0.07370  0.77130  0.07860  1.0000 0.5259916969
C   C163      1.0  0.22870  0.92630  0.42140  1.0000 0.5259916969
C   C164      1.0  0.77130  0.07370  0.42140  1.0000 0.5259916969
C   C165      1.0  0.07370  0.77130  0.92140  1.0000 0.5259916969
C   C166      1.0  0.92630  0.22870  0.92140  1.0000 0.5259916969
C   C167      1.0  0.77130  0.07370  0.57860  1.0000 0.5259916969
C   C168      1.0  0.22870  0.92630  0.57860  1.0000 0.5259916969
C   C169      1.0  0.91810  0.29450  0.01990  1.0000 -0.1006375905
C   C170      1.0  0.08190  0.70550  0.01990  1.0000 -0.1006375905
C   C171      1.0  0.29450  0.91810  0.48010  1.0000 -0.1006375905
C   C172      1.0  0.70550  0.08190  0.48010  1.0000 -0.1006375905
C   C173      1.0  0.08190  0.70550  0.98010  1.0000 -0.1006375905
C   C174      1.0  0.91810  0.29450  0.98010  1.0000 -0.1006375905
C   C175      1.0  0.70550  0.08190  0.51990  1.0000 -0.1006375905
C   C176      1.0  0.29450  0.91810  0.51990  1.0000 -0.1006375905
N   N1        1.0  0.03380  0.22000  0.16985  1.0000 -0.3588339277
N   N2        1.0  0.96620  0.78000  0.16985  1.0000 -0.3588339277
N   N3        1.0  0.22000  0.03380  0.33015  1.0000 -0.3588339277
N   N4        1.0  0.78000  0.96620  0.33015  1.0000 -0.3588339277
N   N5        1.0  0.96620  0.78000  0.83015  1.0000 -0.3588339277
N   N6        1.0  0.03380  0.22000  0.83015  1.0000 -0.3588339277
N   N7        1.0  0.78000  0.96620  0.66985  1.0000 -0.3588339277
N   N8        1.0  0.22000  0.03380  0.66985  1.0000 -0.3588339277
N   N9        1.0  0.76990  0.99430  0.16836  1.0000 -0.331375543
N   N10       1.0  0.23010  0.00570  0.16836  1.0000 -0.331375543
N   N11       1.0  0.99430  0.76990  0.33164  1.0000 -0.331375543
N   N12       1.0  0.00570  0.23010  0.33164  1.0000 -0.331375543
N   N13       1.0  0.23010  0.00570  0.83164  1.0000 -0.331375543
N   N14       1.0  0.76990  0.99430  0.83164  1.0000 -0.331375543
N   N15       1.0  0.00570  0.23010  0.66836  1.0000 -0.331375543
N   N16       1.0  0.99430  0.76990  0.66836  1.0000 -0.331375543
N   N17       1.0  0.14970  0.17450  0.17207  1.0000 -0.2003260739
N   N18       1.0  0.85030  0.82550  0.17207  1.0000 -0.2003260739
N   N19       1.0  0.17450  0.14970  0.32793  1.0000 -0.2003260739
N   N20       1.0  0.82550  0.85030  0.32793  1.0000 -0.2003260739
N   N21       1.0  0.85030  0.82550  0.82793  1.0000 -0.2003260739
N   N22       1.0  0.14970  0.17450  0.82793  1.0000 -0.2003260739
N   N23       1.0  0.82550  0.85030  0.67207  1.0000 -0.2003260739
N   N24       1.0  0.17450  0.14970  0.67207  1.0000 -0.2003260739
N   N25       1.0  0.13960  0.21100  0.20465  1.0000 -0.2096950411
N   N26       1.0  0.86040  0.78900  0.20465  1.0000 -0.2096950411
N   N27       1.0  0.21100  0.13960  0.29535  1.0000 -0.2096950411
N   N28       1.0  0.78900  0.86040  0.29535  1.0000 -0.2096950411
N   N29       1.0  0.86040  0.78900  0.79535  1.0000 -0.2096950411
N   N30       1.0  0.13960  0.21100  0.79535  1.0000 -0.2096950411
N   N31       1.0  0.78900  0.86040  0.70465  1.0000 -0.2096950411
N   N32       1.0  0.21100  0.13960  0.70465  1.0000 -0.2096950411
N   N33       1.0  0.83150  0.12670  0.16843  1.0000 -0.2216548733
N   N34       1.0  0.16850  0.87330  0.16843  1.0000 -0.2216548733
N   N35       1.0  0.12670  0.83150  0.33157  1.0000 -0.2216548733
N   N36       1.0  0.87330  0.16850  0.33157  1.0000 -0.2216548733
N   N37       1.0  0.16850  0.87330  0.83157  1.0000 -0.2216548733
N   N38       1.0  0.83150  0.12670  0.83157  1.0000 -0.2216548733
N   N39       1.0  0.87330  0.16850  0.66843  1.0000 -0.2216548733
N   N40       1.0  0.12670  0.83150  0.66843  1.0000 -0.2216548733
N   N41       1.0  0.79140  0.10880  0.20103  1.0000 -0.2096950411
N   N42       1.0  0.20860  0.89120  0.20103  1.0000 -0.2096950411
N   N43       1.0  0.10880  0.79140  0.29897  1.0000 -0.2096950411
N   N44       1.0  0.89120  0.20860  0.29897  1.0000 -0.2096950411
N   N45       1.0  0.20860  0.89120  0.79897  1.0000 -0.2096950411
N   N46       1.0  0.79140  0.10880  0.79897  1.0000 -0.2096950411
N   N47       1.0  0.89120  0.20860  0.70103  1.0000 -0.2096950411
N   N48       1.0  0.10880  0.79140  0.70103  1.0000 -0.2096950411
O   O1        1.0  0.90719  0.28941  0.21922  1.0000 -0.6024611555
O   O2        1.0  0.09281  0.71059  0.21922  1.0000 -0.6024611555
O   O3        1.0  0.28941  0.90719  0.28078  1.0000 -0.6024611555
O   O4        1.0  0.71059  0.09281  0.28078  1.0000 -0.6024611555
O   O5        1.0  0.09281  0.71059  0.78078  1.0000 -0.6024611555
O   O6        1.0  0.90719  0.28941  0.78078  1.0000 -0.6024611555
O   O7        1.0  0.71059  0.09281  0.71922  1.0000 -0.6024611555
O   O8        1.0  0.28941  0.90719  0.71922  1.0000 -0.6024611555
O   O9        1.0  0.84645  0.68955  0.27900  1.0000 -0.6080576591
O   O10       1.0  0.15355  0.31045  0.27900  1.0000 -0.6080576591
O   O11       1.0  0.68955  0.84645  0.22100  1.0000 -0.6080576591
O   O12       1.0  0.31045  0.15355  0.22100  1.0000 -0.6080576591
O   O13       1.0  0.15355  0.31045  0.72100  1.0000 -0.6080576591
O   O14       1.0  0.84645  0.68955  0.72100  1.0000 -0.6080576591
O   O15       1.0  0.31045  0.15355  0.77900  1.0000 -0.6080576591
O   O16       1.0  0.68955  0.84645  0.77900  1.0000 -0.6080576591
O   O17       1.0  0.84440  0.60860  0.32668  1.0000 -0.4896622225
O   O18       1.0  0.15560  0.39140  0.32668  1.0000 -0.4896622225
O   O19       1.0  0.60860  0.84440  0.17332  1.0000 -0.4896622225
O   O20       1.0  0.39140  0.15560  0.17332  1.0000 -0.4896622225
O   O21       1.0  0.15560  0.39140  0.67332  1.0000 -0.4896622225
O   O22       1.0  0.84440  0.60860  0.67332  1.0000 -0.4896622225
O   O23       1.0  0.39140  0.15560  0.82668  1.0000 -0.4896622225
O   O24       1.0  0.60860  0.84440  0.82668  1.0000 -0.4896622225
O   O25       1.0  0.32070  0.34470  0.22122  1.0000 -0.5270965211
O   O26       1.0  0.67930  0.65530  0.22122  1.0000 -0.5270965211
O   O27       1.0  0.34470  0.32070  0.27878  1.0000 -0.5270965211
O   O28       1.0  0.65530  0.67930  0.27878  1.0000 -0.5270965211
O   O29       1.0  0.67930  0.65530  0.77878  1.0000 -0.5270965211
O   O30       1.0  0.32070  0.34470  0.77878  1.0000 -0.5270965211
O   O31       1.0  0.65530  0.67930  0.72122  1.0000 -0.5270965211
O   O32       1.0  0.34470  0.32070  0.72122  1.0000 -0.5270965211
O   O33       1.0  0.18570  0.10770  0.09523  1.0000 -0.5557366125
O   O34       1.0  0.81430  0.89230  0.09523  1.0000 -0.5548632256
O   O35       1.0  0.10770  0.18570  0.40477  1.0000 -0.5557366125
O   O36       1.0  0.89230  0.81430  0.40477  1.0000 -0.5548632256
O   O37       1.0  0.81430  0.89230  0.90477  1.0000 -0.5548632256
O   O38       1.0  0.18570  0.10770  0.90477  1.0000 -0.5557366125
O   O39       1.0  0.89230  0.81430  0.59523  1.0000 -0.5548632256
O   O40       1.0  0.10770  0.18570  0.59523  1.0000 -0.5557366125
O   O41       1.0  0.93460  0.17040  0.09460  1.0000 -0.4817500822
O   O42       1.0  0.06540  0.82960  0.09460  1.0000 -0.4817500822
O   O43       1.0  0.17040  0.93460  0.40540  1.0000 -0.4817500822
O   O44       1.0  0.82960  0.06540  0.40540  1.0000 -0.4817500822
O   O45       1.0  0.06540  0.82960  0.90540  1.0000 -0.4817500822
O   O46       1.0  0.93460  0.17040  0.90540  1.0000 -0.4817500822
O   O47       1.0  0.82960  0.06540  0.59460  1.0000 -0.4817500822
O   O48       1.0  0.17040  0.93460  0.59460  1.0000 -0.4817500822
O   O49       1.0  0.89920  0.36260  0.17069  1.0000 -0.4896622225
O   O50       1.0  0.10080  0.63740  0.17069  1.0000 -0.4896622225
O   O51       1.0  0.36260  0.89920  0.32931  1.0000 -0.4896622225
O   O52       1.0  0.63740  0.10080  0.32931  1.0000 -0.4896622225
O   O53       1.0  0.10080  0.63740  0.82931  1.0000 -0.4896622225
O   O54       1.0  0.89920  0.36260  0.82931  1.0000 -0.4896622225
O   O55       1.0  0.63740  0.10080  0.67069  1.0000 -0.4896622225
O   O56       1.0  0.36260  0.89920  0.67069  1.0000 -0.4896622225
O   O57       1.0  0.31900  0.13880  0.09450  1.0000 -0.507636439
O   O58       1.0  0.68100  0.86120  0.09450  1.0000 -0.507636439
O   O59       1.0  0.13880  0.31900  0.40550  1.0000 -0.507636439
O   O60       1.0  0.86120  0.68100  0.40550  1.0000 -0.507636439
O   O61       1.0  0.68100  0.86120  0.90550  1.0000 -0.507636439
O   O62       1.0  0.31900  0.13880  0.90550  1.0000 -0.507636439
O   O63       1.0  0.86120  0.68100  0.59450  1.0000 -0.507636439
O   O64       1.0  0.13880  0.31900  0.59450  1.0000 -0.507636439
O   O65       1.0  0.90810  0.28590  0.09480  1.0000 -0.4611903987
O   O66       1.0  0.09190  0.71410  0.09480  1.0000 -0.4611903987
O   O67       1.0  0.28590  0.90810  0.40520  1.0000 -0.4611903987
O   O68       1.0  0.71410  0.09190  0.40520  1.0000 -0.4611903987
O   O69       1.0  0.09190  0.71410  0.90520  1.0000 -0.4611903987
O   O70       1.0  0.90810  0.28590  0.90520  1.0000 -0.4611903987
O   O71       1.0  0.71410  0.09190  0.59480  1.0000 -0.4611903987
O   O72       1.0  0.28590  0.90810  0.59480  1.0000 -0.4611903987
