# DDEC6 charges by PACMAN v1.1 (https://github.com/mtap-research/PACMAN-charge/)
data_2015[Co][nan]2[ASR]2
_chemical_formula_sum              "Co6 H48 C96 N12 O36"
_cell_length_a       16.483
_cell_length_b       16.483
_cell_length_c       14.203
_cell_angle_alpha    90
_cell_angle_beta     90
_cell_angle_gamma    120

_symmetry_space_group_name_H-M    "P 1"
_symmetry_Int_Tables_number       1

loop_
  _symmetry_equiv_pos_as_xyz
  'x, y, z'

loop_
  _atom_site_type_symbol
  _atom_site_label
  _atom_site_symmetry_multiplicity
  _atom_site_fract_x
  _atom_site_fract_y
  _atom_site_fract_z
  _atom_site_occupancy
  _atom_site_charge
Co  Co1       1.0  0.33333  0.66667  0.75000  1.0000 1.1517584878
Co  Co2       1.0  0.33333  0.66667  0.49697  1.0000 0.968194719
Co  Co3       1.0  0.33333  0.66667  0.00303  1.0000 0.968194719
Co  Co4       1.0  0.66667  0.33333  0.25000  1.0000 1.1517584878
Co  Co5       1.0  0.66667  0.33333  0.50303  1.0000 0.968194719
Co  Co6       1.0  0.66667  0.33333  0.99697  1.0000 0.968194719
H   H1        1.0  0.59190  0.89000  0.75010  1.0000 0.1292484112
H   H2        1.0  0.11000  0.70190  0.75010  1.0000 0.1292484112
H   H3        1.0  0.29810  0.40810  0.75010  1.0000 0.1292484112
H   H4        1.0  0.11000  0.40810  0.74990  1.0000 0.1292484112
H   H5        1.0  0.29810  0.89000  0.74990  1.0000 0.1292484112
H   H6        1.0  0.59190  0.70190  0.74990  1.0000 0.1292484112
H   H7        1.0  0.78320  0.97040  0.48810  1.0000 0.1292484112
H   H8        1.0  0.02960  0.81280  0.48810  1.0000 0.1292484112
H   H9        1.0  0.18720  0.21680  0.48810  1.0000 0.1292484112
H   H10       1.0  0.02960  0.21680  0.01190  1.0000 0.1292484112
H   H11       1.0  0.18720  0.97040  0.01190  1.0000 0.1292484112
H   H12       1.0  0.78320  0.81280  0.01190  1.0000 0.1292484112
H   H13       1.0  0.75140  0.99010  0.76510  1.0000 0.1432019281
H   H14       1.0  0.00990  0.76130  0.76510  1.0000 0.1432019281
H   H15       1.0  0.23870  0.24860  0.76510  1.0000 0.1432019281
H   H16       1.0  0.00990  0.24860  0.73490  1.0000 0.1432019281
H   H17       1.0  0.23870  0.99010  0.73490  1.0000 0.1432019281
H   H18       1.0  0.75140  0.76130  0.73490  1.0000 0.1432019281
H   H19       1.0  0.62360  0.86460  0.47450  1.0000 0.1292484112
H   H20       1.0  0.13540  0.75900  0.47450  1.0000 0.1292484112
H   H21       1.0  0.24100  0.37640  0.47450  1.0000 0.1292484112
H   H22       1.0  0.13540  0.37640  0.02550  1.0000 0.1292484112
H   H23       1.0  0.24100  0.86460  0.02550  1.0000 0.1292484112
H   H24       1.0  0.62360  0.75900  0.02550  1.0000 0.1292484112
H   H25       1.0  0.40810  0.11000  0.24990  1.0000 0.1292484112
H   H26       1.0  0.89000  0.29810  0.24990  1.0000 0.1292484112
H   H27       1.0  0.70190  0.59190  0.24990  1.0000 0.1292484112
H   H28       1.0  0.89000  0.59190  0.25010  1.0000 0.1292484112
H   H29       1.0  0.70190  0.11000  0.25010  1.0000 0.1292484112
H   H30       1.0  0.40810  0.29810  0.25010  1.0000 0.1292484112
H   H31       1.0  0.21680  0.02960  0.51190  1.0000 0.1292484112
H   H32       1.0  0.97040  0.18720  0.51190  1.0000 0.1292484112
H   H33       1.0  0.81280  0.78320  0.51190  1.0000 0.1292484112
H   H34       1.0  0.97040  0.78320  0.98810  1.0000 0.1292484112
H   H35       1.0  0.81280  0.02960  0.98810  1.0000 0.1292484112
H   H36       1.0  0.21680  0.18720  0.98810  1.0000 0.1292484112
H   H37       1.0  0.24860  0.00990  0.23490  1.0000 0.1432019281
H   H38       1.0  0.99010  0.23870  0.23490  1.0000 0.1432019281
H   H39       1.0  0.76130  0.75140  0.23490  1.0000 0.1432019281
H   H40       1.0  0.99010  0.75140  0.26510  1.0000 0.1432019281
H   H41       1.0  0.76130  0.00990  0.26510  1.0000 0.1432019281
H   H42       1.0  0.24860  0.23870  0.26510  1.0000 0.1432019281
H   H43       1.0  0.37640  0.13540  0.52550  1.0000 0.1292484112
H   H44       1.0  0.86460  0.24100  0.52550  1.0000 0.1292484112
H   H45       1.0  0.75900  0.62360  0.52550  1.0000 0.1292484112
H   H46       1.0  0.86460  0.62360  0.97450  1.0000 0.1292484112
H   H47       1.0  0.75900  0.13540  0.97450  1.0000 0.1292484112
H   H48       1.0  0.37640  0.24100  0.97450  1.0000 0.1292484112
C   C1        1.0  0.77930  0.98820  0.62760  1.0000 0.2433861514
C   C2        1.0  0.01180  0.79110  0.62760  1.0000 0.2433861514
C   C3        1.0  0.20890  0.22070  0.62760  1.0000 0.2433861514
C   C4        1.0  0.01180  0.22070  0.87240  1.0000 0.2433861514
C   C5        1.0  0.20890  0.98820  0.87240  1.0000 0.2433861514
C   C6        1.0  0.77930  0.79110  0.87240  1.0000 0.2433861514
C   C7        1.0  0.63060  0.90470  0.69770  1.0000 -0.0804145872
C   C8        1.0  0.09530  0.72590  0.69770  1.0000 -0.0804145872
C   C9        1.0  0.27410  0.36940  0.69770  1.0000 -0.0804145872
C   C10       1.0  0.09530  0.36940  0.80230  1.0000 -0.0804145872
C   C11       1.0  0.27410  0.90470  0.80230  1.0000 -0.0804145872
C   C12       1.0  0.63060  0.72590  0.80230  1.0000 -0.0804145872
C   C13       1.0  0.74440  0.95290  0.54060  1.0000 -0.1916160365
C   C14       1.0  0.04710  0.79150  0.54060  1.0000 -0.1916160365
C   C15       1.0  0.20850  0.25560  0.54060  1.0000 -0.1916160365
C   C16       1.0  0.04710  0.25560  0.95940  1.0000 -0.1916160365
C   C17       1.0  0.20850  0.95290  0.95940  1.0000 -0.1916160365
C   C18       1.0  0.74440  0.79150  0.95940  1.0000 -0.1916160365
C   C19       1.0  0.72500  0.96530  0.70680  1.0000 -0.1916160365
C   C20       1.0  0.03470  0.75970  0.70680  1.0000 -0.1916160365
C   C21       1.0  0.24030  0.27500  0.70680  1.0000 -0.1916160365
C   C22       1.0  0.03470  0.27500  0.79320  1.0000 -0.1916160365
C   C23       1.0  0.24030  0.96530  0.79320  1.0000 -0.1916160365
C   C24       1.0  0.72500  0.75970  0.79320  1.0000 -0.1916160365
C   C25       1.0  0.64920  0.89010  0.53290  1.0000 -0.0804145872
C   C26       1.0  0.10990  0.75910  0.53290  1.0000 -0.0804145872
C   C27       1.0  0.24090  0.35080  0.53290  1.0000 -0.0804145872
C   C28       1.0  0.10990  0.35080  0.96710  1.0000 -0.0804145872
C   C29       1.0  0.24090  0.89010  0.96710  1.0000 -0.0804145872
C   C30       1.0  0.64920  0.75910  0.96710  1.0000 -0.0804145872
C   C31       1.0  0.59230  0.86530  0.61100  1.0000 -0.0297409469
C   C32       1.0  0.13470  0.72700  0.61100  1.0000 -0.0297409469
C   C33       1.0  0.27300  0.40770  0.61100  1.0000 -0.0297409469
C   C34       1.0  0.13470  0.40770  0.88900  1.0000 -0.0297409469
C   C35       1.0  0.27300  0.86530  0.88900  1.0000 -0.0297409469
C   C36       1.0  0.59230  0.72700  0.88900  1.0000 -0.0297409469
C   C37       1.0  0.93620  0.02390  0.63240  1.0000 0.5854768277
C   C38       1.0  0.97610  0.91230  0.63240  1.0000 0.5846447306
C   C39       1.0  0.08770  0.06380  0.63240  1.0000 0.5854768277
C   C40       1.0  0.97610  0.06380  0.86760  1.0000 0.5854768277
C   C41       1.0  0.08770  0.02390  0.86760  1.0000 0.5854768277
C   C42       1.0  0.93620  0.91230  0.86760  1.0000 0.5854768277
C   C43       1.0  0.49000  0.79520  0.60160  1.0000 0.6105272231
C   C44       1.0  0.20480  0.69480  0.60160  1.0000 0.6105272231
C   C45       1.0  0.30520  0.51000  0.60160  1.0000 0.6105272231
C   C46       1.0  0.20480  0.51000  0.89840  1.0000 0.6105272231
C   C47       1.0  0.30520  0.79520  0.89840  1.0000 0.6105272231
C   C48       1.0  0.49000  0.69480  0.89840  1.0000 0.6105272231
C   C49       1.0  0.22070  0.01180  0.37240  1.0000 0.2433861514
C   C50       1.0  0.98820  0.20890  0.37240  1.0000 0.2433861514
C   C51       1.0  0.79110  0.77930  0.37240  1.0000 0.2433861514
C   C52       1.0  0.98820  0.77930  0.12760  1.0000 0.2433861514
C   C53       1.0  0.79110  0.01180  0.12760  1.0000 0.2433861514
C   C54       1.0  0.22070  0.20890  0.12760  1.0000 0.2433861514
C   C55       1.0  0.36940  0.09530  0.30230  1.0000 -0.0804145872
C   C56       1.0  0.90470  0.27410  0.30230  1.0000 -0.0804145872
C   C57       1.0  0.72590  0.63060  0.30230  1.0000 -0.0804145872
C   C58       1.0  0.90470  0.63060  0.19770  1.0000 -0.0804145872
C   C59       1.0  0.72590  0.09530  0.19770  1.0000 -0.0804145872
C   C60       1.0  0.36940  0.27410  0.19770  1.0000 -0.0804145872
C   C61       1.0  0.25560  0.04710  0.45940  1.0000 -0.1916160365
C   C62       1.0  0.95290  0.20850  0.45940  1.0000 -0.1916160365
C   C63       1.0  0.79150  0.74440  0.45940  1.0000 -0.1916160365
C   C64       1.0  0.95290  0.74440  0.04060  1.0000 -0.1916160365
C   C65       1.0  0.79150  0.04710  0.04060  1.0000 -0.1916160365
C   C66       1.0  0.25560  0.20850  0.04060  1.0000 -0.1916160365
C   C67       1.0  0.27500  0.03470  0.29320  1.0000 -0.1916160365
C   C68       1.0  0.96530  0.24030  0.29320  1.0000 -0.1916160365
C   C69       1.0  0.75970  0.72500  0.29320  1.0000 -0.1916160365
C   C70       1.0  0.96530  0.72500  0.20680  1.0000 -0.1916160365
C   C71       1.0  0.75970  0.03470  0.20680  1.0000 -0.1916160365
C   C72       1.0  0.27500  0.24030  0.20680  1.0000 -0.1916160365
C   C73       1.0  0.35080  0.10990  0.46710  1.0000 -0.0804145872
C   C74       1.0  0.89010  0.24090  0.46710  1.0000 -0.0804145872
C   C75       1.0  0.75910  0.64920  0.46710  1.0000 -0.0804145872
C   C76       1.0  0.89010  0.64920  0.03290  1.0000 -0.0804145872
C   C77       1.0  0.75910  0.10990  0.03290  1.0000 -0.0804145872
C   C78       1.0  0.35080  0.24090  0.03290  1.0000 -0.0804145872
C   C79       1.0  0.40770  0.13470  0.38900  1.0000 -0.0297409469
C   C80       1.0  0.86530  0.27300  0.38900  1.0000 -0.0297409469
C   C81       1.0  0.72700  0.59230  0.38900  1.0000 -0.0297409469
C   C82       1.0  0.86530  0.59230  0.11100  1.0000 -0.0297409469
C   C83       1.0  0.72700  0.13470  0.11100  1.0000 -0.0297409469
C   C84       1.0  0.40770  0.27300  0.11100  1.0000 -0.0297409469
C   C85       1.0  0.06380  0.97610  0.36760  1.0000 0.5854768277
C   C86       1.0  0.02390  0.08770  0.36760  1.0000 0.5854768277
C   C87       1.0  0.91230  0.93620  0.36760  1.0000 0.5854768277
C   C88       1.0  0.02390  0.93620  0.13240  1.0000 0.5854768277
C   C89       1.0  0.91230  0.97610  0.13240  1.0000 0.5854768277
C   C90       1.0  0.06380  0.08770  0.13240  1.0000 0.5854768277
C   C91       1.0  0.51000  0.20480  0.39840  1.0000 0.6105272231
C   C92       1.0  0.79520  0.30520  0.39840  1.0000 0.6105272231
C   C93       1.0  0.69480  0.49000  0.39840  1.0000 0.6105272231
C   C94       1.0  0.79520  0.49000  0.10160  1.0000 0.6105272231
C   C95       1.0  0.69480  0.20480  0.10160  1.0000 0.6105272231
C   C96       1.0  0.51000  0.30520  0.10160  1.0000 0.6105272231
N   N1        1.0  0.02660  0.09470  0.63240  1.0000 -0.5274121704
N   N2        1.0  0.90530  0.93190  0.63240  1.0000 -0.5274121704
N   N3        1.0  0.06810  0.97340  0.63240  1.0000 -0.5274121704
N   N4        1.0  0.90530  0.97340  0.86760  1.0000 -0.5274121704
N   N5        1.0  0.06810  0.09470  0.86760  1.0000 -0.5274121704
N   N6        1.0  0.02660  0.93190  0.86760  1.0000 -0.5274121704
N   N7        1.0  0.97340  0.90530  0.36760  1.0000 -0.5274121704
N   N8        1.0  0.09470  0.06810  0.36760  1.0000 -0.5274121704
N   N9        1.0  0.93190  0.02660  0.36760  1.0000 -0.5274121704
N   N10       1.0  0.09470  0.02660  0.13240  1.0000 -0.5274121704
N   N11       1.0  0.93190  0.90530  0.13240  1.0000 -0.5274121704
N   N12       1.0  0.97340  0.06810  0.13240  1.0000 -0.5274121704
O   O1        1.0  0.44080  0.77340  0.67580  1.0000 -0.58615674
O   O2        1.0  0.22660  0.66740  0.67580  1.0000 -0.58615674
O   O3        1.0  0.33260  0.55920  0.67580  1.0000 -0.58615674
O   O4        1.0  0.22660  0.55920  0.82420  1.0000 -0.58615674
O   O5        1.0  0.33260  0.77340  0.82420  1.0000 -0.58615674
O   O6        1.0  0.44080  0.66740  0.82420  1.0000 -0.58615674
O   O7        1.0  0.46050  0.76150  0.52040  1.0000 -0.5756455106
O   O8        1.0  0.23850  0.69900  0.52040  1.0000 -0.5756455106
O   O9        1.0  0.30100  0.53950  0.52040  1.0000 -0.5756455106
O   O10       1.0  0.23850  0.53950  0.97960  1.0000 -0.5746528208
O   O11       1.0  0.30100  0.76150  0.97960  1.0000 -0.5756455106
O   O12       1.0  0.46050  0.69900  0.97960  1.0000 -0.5746528208
O   O13       1.0  0.87570  0.05370  0.63540  1.0000 -0.2225217973
O   O14       1.0  0.94630  0.82200  0.63540  1.0000 -0.2225217973
O   O15       1.0  0.17800  0.12430  0.63540  1.0000 -0.2225217973
O   O16       1.0  0.94630  0.12430  0.86460  1.0000 -0.2225217973
O   O17       1.0  0.17800  0.05370  0.86460  1.0000 -0.2225217973
O   O18       1.0  0.87570  0.82200  0.86460  1.0000 -0.2225217973
O   O19       1.0  0.55920  0.22660  0.32420  1.0000 -0.58615674
O   O20       1.0  0.77340  0.33260  0.32420  1.0000 -0.58615674
O   O21       1.0  0.66740  0.44080  0.32420  1.0000 -0.58615674
O   O22       1.0  0.77340  0.44080  0.17580  1.0000 -0.58615674
O   O23       1.0  0.66740  0.22660  0.17580  1.0000 -0.58615674
O   O24       1.0  0.55920  0.33260  0.17580  1.0000 -0.58615674
O   O25       1.0  0.53950  0.23850  0.47960  1.0000 -0.5746528208
O   O26       1.0  0.76150  0.30100  0.47960  1.0000 -0.5756455106
O   O27       1.0  0.69900  0.46050  0.47960  1.0000 -0.5746528208
O   O28       1.0  0.76150  0.46050  0.02040  1.0000 -0.5746528208
O   O29       1.0  0.69900  0.23850  0.02040  1.0000 -0.5746528208
O   O30       1.0  0.53950  0.30100  0.02040  1.0000 -0.5746528208
O   O31       1.0  0.12430  0.94630  0.36460  1.0000 -0.2225217973
O   O32       1.0  0.05370  0.17800  0.36460  1.0000 -0.2225217973
O   O33       1.0  0.82200  0.87570  0.36460  1.0000 -0.2225217973
O   O34       1.0  0.05370  0.87570  0.13540  1.0000 -0.2225217973
O   O35       1.0  0.82200  0.94630  0.13540  1.0000 -0.2225217973
O   O36       1.0  0.12430  0.17800  0.13540  1.0000 -0.2225217973
