# DDEC6 charges by PACMAN v1.1 (https://github.com/mtap-research/PACMAN-charge/)
data_2015[Cd][nan]3[ASR]30
_chemical_formula_sum              "Cd6 H16 C30 N12 O26"
_cell_length_a       8.8438
_cell_length_b       12.7821
_cell_length_c       12.2085
_cell_angle_alpha    90
_cell_angle_beta     100.063
_cell_angle_gamma    90

_symmetry_space_group_name_H-M    "P 1"
_symmetry_Int_Tables_number       1

loop_
  _symmetry_equiv_pos_as_xyz
  'x, y, z'

loop_
  _atom_site_type_symbol
  _atom_site_label
  _atom_site_symmetry_multiplicity
  _atom_site_fract_x
  _atom_site_fract_y
  _atom_site_fract_z
  _atom_site_occupancy
  _atom_site_charge
Cd  Cd1       1.0  0.77985  0.08603  0.61525  1.0000 0.9139681438
Cd  Cd2       1.0  0.77985  0.91397  0.11525  1.0000 0.9139681438
Cd  Cd3       1.0  0.79374  0.20905  0.96604  1.0000 0.8599141219
Cd  Cd4       1.0  0.79374  0.79095  0.46604  1.0000 0.8599141219
Cd  Cd5       1.0  0.73679  0.43944  0.65026  1.0000 0.9346477368
Cd  Cd6       1.0  0.73679  0.56056  0.15026  1.0000 0.9346477368
H   H1        1.0  0.96800  0.32820  0.94300  1.0000 0.3860010484
H   H2        1.0  0.96800  0.67180  0.44300  1.0000 0.3860010484
H   H3        1.0  0.16220  0.00470  0.58280  1.0000 0.290962992
H   H4        1.0  0.16220  0.99530  0.08280  1.0000 0.290962992
H   H5        1.0  0.41220  0.13770  0.02290  1.0000 0.3032934049
H   H6        1.0  0.41220  0.86230  0.52290  1.0000 0.3032934049
H   H7        1.0  0.29380  0.29460  0.60860  1.0000 0.1608476953
H   H8        1.0  0.29380  0.70540  0.10860  1.0000 0.1608476953
H   H9        1.0  0.24410  0.36080  0.82300  1.0000 0.1608476953
H   H10       1.0  0.24410  0.63920  0.32300  1.0000 0.1608476953
H   H11       1.0  0.77950  0.78000  0.89480  1.0000 0.1517632583
H   H12       1.0  0.77950  0.22000  0.39480  1.0000 0.1517632583
H   H13       1.0  0.58390  0.38490  0.51330  1.0000 0.3107090572
H   H14       1.0  0.58390  0.61510  0.01330  1.0000 0.3107090572
H   H15       1.0  0.55890  0.48160  0.47190  1.0000 0.322803078
H   H16       1.0  0.55890  0.51840  0.97190  1.0000 0.322803078
C   C1        1.0  0.96240  0.30250  0.62410  1.0000 0.5502805391
C   C2        1.0  0.96240  0.69750  0.12410  1.0000 0.5502805391
C   C3        1.0  0.08140  0.22470  0.60860  1.0000 0.0378519173
C   C4        1.0  0.08140  0.77530  0.10860  1.0000 0.0378519173
C   C5        1.0  0.23570  0.23360  0.60450  1.0000 -0.2384300998
C   C6        1.0  0.23570  0.76640  0.10450  1.0000 -0.2384300998
C   C7        1.0  0.28570  0.13130  0.59290  1.0000 0.0587347191
C   C8        1.0  0.28570  0.86870  0.09290  1.0000 0.0587347191
C   C9        1.0  0.44340  0.08880  0.59100  1.0000 0.5353299359
C   C10       1.0  0.44340  0.91120  0.09100  1.0000 0.5353299359
C   C11       1.0  0.57320  0.35650  0.79970  1.0000 0.558258293
C   C12       1.0  0.57320  0.64350  0.29970  1.0000 0.558258293
C   C13       1.0  0.46760  0.30160  0.86330  1.0000 0.0587347191
C   C14       1.0  0.46760  0.69840  0.36330  1.0000 0.0587347191
C   C15       1.0  0.31120  0.31260  0.86270  1.0000 -0.2513484082
C   C16       1.0  0.31120  0.68740  0.36270  1.0000 -0.2513484082
C   C17       1.0  0.27800  0.23660  0.93400  1.0000 0.0378519173
C   C18       1.0  0.27800  0.76340  0.43400  1.0000 0.0378519173
C   C19       1.0  0.12770  0.20950  0.96530  1.0000 0.5502805391
C   C20       1.0  0.12770  0.79050  0.46530  1.0000 0.5502805391
C   C21       1.0  0.79100  0.64480  0.70140  1.0000 0.5353299359
C   C22       1.0  0.79100  0.35520  0.20140  1.0000 0.5353299359
C   C23       1.0  0.79780  0.75660  0.72800  1.0000 0.0587347191
C   C24       1.0  0.79780  0.24340  0.22800  1.0000 0.0587347191
C   C25       1.0  0.78850  0.80860  0.82620  1.0000 -0.2227581462
C   C26       1.0  0.78850  0.19140  0.32620  1.0000 -0.2227581462
C   C27       1.0  0.79610  0.91540  0.79740  1.0000 0.0165598893
C   C28       1.0  0.79610  0.08460  0.29740  1.0000 0.0165598893
C   C29       1.0  0.78490  0.01050  0.85960  1.0000 0.5502805391
C   C30       1.0  0.78490  0.98950  0.35960  1.0000 0.5502805391
N   N1        1.0  0.03830  0.12340  0.59900  1.0000 -0.1924150327
N   N2        1.0  0.03830  0.87660  0.09900  1.0000 -0.1924150327
N   N3        1.0  0.16090  0.07160  0.59000  1.0000 -0.0496643678
N   N4        1.0  0.16090  0.92840  0.09000  1.0000 -0.0496643678
N   N5        1.0  0.52430  0.22530  0.93270  1.0000 -0.1924150327
N   N6        1.0  0.52430  0.77470  0.43270  1.0000 -0.1924150327
N   N7        1.0  0.40560  0.18750  0.97500  1.0000 -0.0553329123
N   N8        1.0  0.40560  0.81250  0.47500  1.0000 -0.0496643678
N   N9        1.0  0.80830  0.82630  0.64690  1.0000 -0.1924150327
N   N10       1.0  0.80830  0.17370  0.14690  1.0000 -0.1924150327
N   N11       1.0  0.80960  0.92320  0.69050  1.0000 -0.1924150327
N   N12       1.0  0.80960  0.07680  0.19050  1.0000 -0.1924150327
O   O1        1.0  0.99610  0.39500  0.63850  1.0000 -0.4747133872
O   O2        1.0  0.99610  0.60500  0.13850  1.0000 -0.4747133872
O   O3        1.0  0.82650  0.26990  0.61630  1.0000 -0.5390493294
O   O4        1.0  0.82650  0.73010  0.11630  1.0000 -0.5390493294
O   O5        1.0  0.54630  0.15460  0.58250  1.0000 -0.509446474
O   O6        1.0  0.54630  0.84540  0.08250  1.0000 -0.509446474
O   O7        1.0  0.46190  0.99620  0.59880  1.0000 -0.5486577472
O   O8        1.0  0.46190  0.00380  0.09880  1.0000 -0.5486577472
O   O9        1.0  0.51580  0.41000  0.71450  1.0000 -0.524327161
O   O10       1.0  0.51580  0.59000  0.21450  1.0000 -0.524327161
O   O11       1.0  0.71330  0.34490  0.83020  1.0000 -0.524327161
O   O12       1.0  0.71330  0.65510  0.33020  1.0000 -0.524327161
O   O13       1.0  0.01850  0.27320  0.93440  1.0000 -0.4013908228
O   O14       1.0  0.01850  0.72680  0.43440  1.0000 -0.4013908228
O   O15       1.0  0.11550  0.12990  0.02140  1.0000 -0.5296011588
O   O16       1.0  0.11550  0.87010  0.52140  1.0000 -0.5296011588
O   O17       1.0  0.78100  0.58050  0.77830  1.0000 -0.4862537256
O   O18       1.0  0.78100  0.41950  0.27830  1.0000 -0.4862537256
O   O19       1.0  0.78670  0.61690  0.60120  1.0000 -0.5933704695
O   O20       1.0  0.78670  0.38310  0.10120  1.0000 -0.5933704695
O   O21       1.0  0.76570  0.01120  0.95770  1.0000 -0.5026634654
O   O22       1.0  0.76570  0.98880  0.45770  1.0000 -0.5026634654
O   O23       1.0  0.79650  0.09890  0.81010  1.0000 -0.5486577472
O   O24       1.0  0.79650  0.90110  0.31010  1.0000 -0.5486577472
O   O25       1.0  0.61250  0.42690  0.46700  1.0000 -0.5771674535
O   O26       1.0  0.61250  0.57310  0.96700  1.0000 -0.5771674535
