# DDEC6 charges by PACMAN v1.1 (https://github.com/mtap-research/PACMAN-charge/)
data_2015[La][umc]3[ASR]1
_chemical_formula_sum              "La4 H100 C112 N8 O32"
_cell_length_a       17.0941
_cell_length_b       17.0941
_cell_length_c       34.432
_cell_angle_alpha    65.3709
_cell_angle_beta     114.629
_cell_angle_gamma    149.509

_symmetry_space_group_name_H-M    "P 1"
_symmetry_Int_Tables_number       1

loop_
  _symmetry_equiv_pos_as_xyz
  'x, y, z'

loop_
  _atom_site_type_symbol
  _atom_site_label
  _atom_site_symmetry_multiplicity
  _atom_site_fract_x
  _atom_site_fract_y
  _atom_site_fract_z
  _atom_site_occupancy
  _atom_site_charge
La  La1       1.0  0.36110  0.35390  0.88097  1.0000 1.8076668467
La  La2       1.0  0.35390  0.36110  0.61903  1.0000 1.8076668467
La  La3       1.0  0.63890  0.64610  0.11903  1.0000 1.8160061325
La  La4       1.0  0.64610  0.63890  0.38097  1.0000 1.8160061325
H   H1        1.0  0.87740  0.63380  0.44530  1.0000 0.3611945595
H   H2        1.0  0.63380  0.87740  0.05470  1.0000 0.3611945595
H   H3        1.0  0.12260  0.36620  0.55470  1.0000 0.3611945595
H   H4        1.0  0.36620  0.12260  0.94530  1.0000 0.3611945595
H   H5        1.0  0.69250  0.06290  0.67410  1.0000 0.2607438761
H   H6        1.0  0.06290  0.69250  0.82590  1.0000 0.2607438761
H   H7        1.0  0.30750  0.93710  0.32590  1.0000 0.2607438761
H   H8        1.0  0.93710  0.30750  0.17410  1.0000 0.2607438761
H   H9        1.0  0.08860  0.68620  0.61520  1.0000 0.2607438761
H   H10       1.0  0.68620  0.08860  0.88480  1.0000 0.2607438761
H   H11       1.0  0.91140  0.31380  0.38480  1.0000 0.2607438761
H   H12       1.0  0.31380  0.91140  0.11520  1.0000 0.2607438761
H   H13       1.0  0.06050  0.73330  0.66910  1.0000 0.1030900796
H   H14       1.0  0.73330  0.06050  0.83090  1.0000 0.1030900796
H   H15       1.0  0.93950  0.26670  0.33090  1.0000 0.1030900796
H   H16       1.0  0.26670  0.93950  0.16910  1.0000 0.1030900796
H   H17       1.0  0.98820  0.58020  0.68580  1.0000 0.1100746431
H   H18       1.0  0.58020  0.98820  0.81420  1.0000 0.1100746431
H   H19       1.0  0.01180  0.41980  0.31420  1.0000 0.1100746431
H   H20       1.0  0.41980  0.01180  0.18580  1.0000 0.1100746431
H   H21       1.0  0.67500  0.98540  0.75730  1.0000 0.1030900796
H   H22       1.0  0.98540  0.67500  0.74270  1.0000 0.1030900796
H   H23       1.0  0.32500  0.01460  0.24270  1.0000 0.1030900796
H   H24       1.0  0.01460  0.32500  0.25730  1.0000 0.1030900796
H   H25       1.0  0.74860  0.13920  0.74320  1.0000 0.1100746431
H   H26       1.0  0.13920  0.74860  0.75680  1.0000 0.1100746431
H   H27       1.0  0.25140  0.86080  0.25680  1.0000 0.1100746431
H   H28       1.0  0.86080  0.25140  0.24320  1.0000 0.1100746431
H   H29       1.0  0.32640  0.61200  0.73200  1.0000 0.1298321711
H   H30       1.0  0.61200  0.32640  0.76800  1.0000 0.1298321711
H   H31       1.0  0.67360  0.38800  0.26800  1.0000 0.1298321711
H   H32       1.0  0.38800  0.67360  0.23200  1.0000 0.1298321711
H   H33       1.0  0.50720  0.77480  0.73450  1.0000 0.1298321711
H   H34       1.0  0.77480  0.50720  0.76550  1.0000 0.1298321711
H   H35       1.0  0.49280  0.22520  0.26550  1.0000 0.1298321711
H   H36       1.0  0.22520  0.49280  0.23450  1.0000 0.1298321711
H   H37       1.0  0.42080  0.69680  0.77280  1.0000 0.1480632509
H   H38       1.0  0.69680  0.42080  0.72720  1.0000 0.1480632509
H   H39       1.0  0.57920  0.30320  0.22720  1.0000 0.1480632509
H   H40       1.0  0.30320  0.57920  0.27280  1.0000 0.1480632509
H   H41       1.0  0.01160  0.48000  0.70800  1.0000 0.1191706295
H   H42       1.0  0.48000  0.01160  0.79200  1.0000 0.1191706295
H   H43       1.0  0.98840  0.52000  0.29200  1.0000 0.1191706295
H   H44       1.0  0.52000  0.98840  0.20800  1.0000 0.1191706295
H   H45       1.0  0.09210  0.50030  0.68550  1.0000 0.1298321711
H   H46       1.0  0.50030  0.09210  0.81450  1.0000 0.1298321711
H   H47       1.0  0.90790  0.49970  0.31450  1.0000 0.1298321711
H   H48       1.0  0.49970  0.90790  0.18550  1.0000 0.1298321711
H   H49       1.0  0.11820  0.48860  0.73580  1.0000 0.1298321711
H   H50       1.0  0.48860  0.11820  0.76420  1.0000 0.1298321711
H   H51       1.0  0.88180  0.51140  0.26420  1.0000 0.1298321711
H   H52       1.0  0.51140  0.88180  0.23580  1.0000 0.1298321711
H   H53       1.0  0.30430  0.01550  0.67770  1.0000 0.1400024821
H   H54       1.0  0.01550  0.30430  0.82230  1.0000 0.1400024821
H   H55       1.0  0.69570  0.98450  0.32230  1.0000 0.1400024821
H   H56       1.0  0.98450  0.69570  0.17770  1.0000 0.1400024821
H   H57       1.0  0.43270  0.12690  0.64890  1.0000 0.1400024821
H   H58       1.0  0.12690  0.43270  0.85110  1.0000 0.1400024821
H   H59       1.0  0.56730  0.87310  0.35110  1.0000 0.1400024821
H   H60       1.0  0.87310  0.56730  0.14890  1.0000 0.1400024821
H   H61       1.0  0.25770  0.97010  0.63350  1.0000 0.1298321711
H   H62       1.0  0.97010  0.25770  0.86650  1.0000 0.1298321711
H   H63       1.0  0.74230  0.02990  0.36650  1.0000 0.1298321711
H   H64       1.0  0.02990  0.74230  0.13350  1.0000 0.1298321711
H   H65       1.0  0.73410  0.24370  0.70620  1.0000 0.1191706295
H   H66       1.0  0.24370  0.73410  0.79380  1.0000 0.1191706295
H   H67       1.0  0.26590  0.75630  0.29380  1.0000 0.1191706295
H   H68       1.0  0.75630  0.26590  0.20620  1.0000 0.1191706295
H   H69       1.0  0.65900  0.23940  0.65950  1.0000 0.1400024821
H   H70       1.0  0.23940  0.65900  0.84050  1.0000 0.1400024821
H   H71       1.0  0.34100  0.76060  0.34050  1.0000 0.1400024821
H   H72       1.0  0.76060  0.34100  0.15950  1.0000 0.1400024821
H   H73       1.0  0.62980  0.23500  0.69840  1.0000 0.1400024821
H   H74       1.0  0.23500  0.62980  0.80160  1.0000 0.1400024821
H   H75       1.0  0.37020  0.76500  0.30160  1.0000 0.1400024821
H   H76       1.0  0.76500  0.37020  0.19840  1.0000 0.1400024821
H   H77       1.0  0.93450  0.16530  0.76940  1.0000 0.1298321711
H   H78       1.0  0.16530  0.93450  0.73060  1.0000 0.1298321711
H   H79       1.0  0.06550  0.83470  0.23060  1.0000 0.1298321711
H   H80       1.0  0.83470  0.06550  0.26940  1.0000 0.1298321711
H   H81       1.0  0.26710  0.38010  0.71670  1.0000 0.1400024821
H   H82       1.0  0.38010  0.26710  0.78330  1.0000 0.1400024821
H   H83       1.0  0.73290  0.61990  0.28330  1.0000 0.1400024821
H   H84       1.0  0.61990  0.73290  0.21670  1.0000 0.1400024821
H   H85       1.0  0.89630  0.20890  0.64210  1.0000 0.1298321711
H   H86       1.0  0.20890  0.89630  0.85790  1.0000 0.1298321711
H   H87       1.0  0.10370  0.79110  0.35790  1.0000 0.1298321711
H   H88       1.0  0.79110  0.10370  0.14210  1.0000 0.1298321711
H   H89       1.0  0.57360  0.45220  0.51750  1.0000 0.1400024821
H   H90       1.0  0.45220  0.57360  0.98250  1.0000 0.1400024821
H   H91       1.0  0.42640  0.54780  0.48250  1.0000 0.1400024821
H   H92       1.0  0.54780  0.42640  0.01750  1.0000 0.1400024821
H   H93       1.0  0.96430  0.63970  0.54470  1.0000 0.1298321711
H   H94       1.0  0.63970  0.96430  0.95530  1.0000 0.1298321711
H   H95       1.0  0.03570  0.36030  0.45530  1.0000 0.1298321711
H   H96       1.0  0.36030  0.03570  0.04470  1.0000 0.1298321711
H   H97       1.0  0.78880  0.52640  0.63900  1.0000 0.1298321711
H   H98       1.0  0.52640  0.78880  0.86100  1.0000 0.1298321711
H   H99       1.0  0.21120  0.47360  0.36100  1.0000 0.1298321711
H   H100      1.0  0.47360  0.21120  0.13900  1.0000 0.1298321711
C   C1        1.0  0.06380  0.68020  0.66825  1.0000 -0.1228651394
C   C2        1.0  0.68020  0.06380  0.83175  1.0000 -0.1228651394
C   C3        1.0  0.93620  0.31980  0.33175  1.0000 -0.1228651394
C   C4        1.0  0.31980  0.93620  0.16825  1.0000 -0.1228651394
C   C5        1.0  0.22540  0.77620  0.68598  1.0000 -0.0669718598
C   C6        1.0  0.77620  0.22540  0.81402  1.0000 -0.0669718598
C   C7        1.0  0.77460  0.22380  0.31402  1.0000 -0.0669718598
C   C8        1.0  0.22380  0.77460  0.18598  1.0000 -0.0669718598
C   C9        1.0  0.24290  0.70150  0.70576  1.0000 0.0523190999
C   C10       1.0  0.70150  0.24290  0.79424  1.0000 0.0523190999
C   C11       1.0  0.75710  0.29850  0.29424  1.0000 0.0523190999
C   C12       1.0  0.29850  0.75710  0.20576  1.0000 0.0523190999
C   C13       1.0  0.39200  0.78960  0.72146  1.0000 0.0523190999
C   C14       1.0  0.78960  0.39200  0.77854  1.0000 0.0523190999
C   C15       1.0  0.60800  0.21040  0.27854  1.0000 0.0523190999
C   C16       1.0  0.21040  0.60800  0.22146  1.0000 0.0523190999
C   C17       1.0  0.52120  0.95240  0.71672  1.0000 -0.0601141144
C   C18       1.0  0.95240  0.52120  0.78328  1.0000 -0.0601141144
C   C19       1.0  0.47880  0.04760  0.28328  1.0000 -0.0601141144
C   C20       1.0  0.04760  0.47880  0.21672  1.0000 -0.0601141144
C   C21       1.0  0.50340  0.02780  0.69574  1.0000 0.0557330857
C   C22       1.0  0.02780  0.50340  0.80426  1.0000 0.0557330857
C   C23       1.0  0.49660  0.97220  0.30426  1.0000 0.0557330857
C   C24       1.0  0.97220  0.49660  0.19574  1.0000 0.0557330857
C   C25       1.0  0.35370  0.93830  0.68050  1.0000 0.0523190999
C   C26       1.0  0.93830  0.35370  0.81950  1.0000 0.0523190999
C   C27       1.0  0.64630  0.06170  0.31950  1.0000 0.0523190999
C   C28       1.0  0.06170  0.64630  0.18050  1.0000 0.0523190999
C   C29       1.0  0.68140  0.04620  0.73325  1.0000 -0.1264453296
C   C30       1.0  0.04620  0.68140  0.76675  1.0000 -0.1264453296
C   C31       1.0  0.31860  0.95380  0.26675  1.0000 -0.1264453296
C   C32       1.0  0.95380  0.31860  0.23325  1.0000 -0.1264453296
C   C33       1.0  0.41350  0.71110  0.74210  1.0000 -0.4582148742
C   C34       1.0  0.71110  0.41350  0.75790  1.0000 -0.4582148742
C   C35       1.0  0.58650  0.28890  0.25790  1.0000 -0.4582148742
C   C36       1.0  0.28890  0.58650  0.24210  1.0000 -0.4582148742
C   C37       1.0  0.10340  0.52660  0.70900  1.0000 -0.4737906913
C   C38       1.0  0.52660  0.10340  0.79100  1.0000 -0.4737906913
C   C39       1.0  0.89660  0.47340  0.29100  1.0000 -0.4737906913
C   C40       1.0  0.47340  0.89660  0.20900  1.0000 -0.4737906913
C   C41       1.0  0.33540  0.02020  0.65810  1.0000 -0.4582148742
C   C42       1.0  0.02020  0.33540  0.84190  1.0000 -0.4582148742
C   C43       1.0  0.66460  0.97980  0.34190  1.0000 -0.4582148742
C   C44       1.0  0.97980  0.66460  0.15810  1.0000 -0.4582148742
C   C45       1.0  0.64420  0.20220  0.68940  1.0000 -0.4737906913
C   C46       1.0  0.20220  0.64420  0.81060  1.0000 -0.4737906913
C   C47       1.0  0.35580  0.79780  0.31060  1.0000 -0.4737906913
C   C48       1.0  0.79780  0.35580  0.18940  1.0000 -0.4737906913
C   C49       1.0  0.88780  0.16960  0.70516  1.0000 0.2109016712
C   C50       1.0  0.16960  0.88780  0.79484  1.0000 0.2109016712
C   C51       1.0  0.11220  0.83040  0.29484  1.0000 0.2109016712
C   C52       1.0  0.83040  0.11220  0.20516  1.0000 0.2109016712
C   C53       1.0  0.97270  0.19910  0.74507  1.0000 -0.202364345
C   C54       1.0  0.19910  0.97270  0.75493  1.0000 -0.202364345
C   C55       1.0  0.02730  0.80090  0.25493  1.0000 -0.202364345
C   C56       1.0  0.80090  0.02730  0.24507  1.0000 -0.202364345
C   C57       1.0  0.11367  0.27793  0.74954  1.0000 -0.003259921
C   C58       1.0  0.27793  0.11367  0.75046  1.0000 -0.003259921
C   C59       1.0  0.88633  0.72207  0.25046  1.0000 -0.003259921
C   C60       1.0  0.72207  0.88633  0.24954  1.0000 -0.003259921
C   C61       1.0  0.17327  0.32873  0.71372  1.0000 -0.1228651394
C   C62       1.0  0.32873  0.17327  0.78628  1.0000 -0.1228651394
C   C63       1.0  0.82673  0.67127  0.28628  1.0000 -0.1228651394
C   C64       1.0  0.67127  0.82673  0.21372  1.0000 -0.1228651394
C   C65       1.0  0.08850  0.30050  0.67353  1.0000 -0.0175320815
C   C66       1.0  0.30050  0.08850  0.82647  1.0000 -0.0175320815
C   C67       1.0  0.91150  0.69950  0.32647  1.0000 -0.0175320815
C   C68       1.0  0.69950  0.91150  0.17353  1.0000 -0.0175320815
C   C69       1.0  0.94980  0.22420  0.66938  1.0000 -0.2111458172
C   C70       1.0  0.22420  0.94980  0.83062  1.0000 -0.2111458172
C   C71       1.0  0.05020  0.77580  0.33062  1.0000 -0.2111458172
C   C72       1.0  0.77580  0.05020  0.16938  1.0000 -0.2111458172
C   C73       1.0  0.20227  0.30773  0.79387  1.0000 0.5616737093
C   C74       1.0  0.30773  0.20227  0.70613  1.0000 0.5616737093
C   C75       1.0  0.79773  0.69227  0.20613  1.0000 0.5616737093
C   C76       1.0  0.69227  0.79773  0.29387  1.0000 0.5616737093
C   C77       1.0  0.54298  0.41482  0.59539  1.0000 0.5519204821
C   C78       1.0  0.41482  0.54298  0.90461  1.0000 0.5519204821
C   C79       1.0  0.45702  0.58518  0.40461  1.0000 0.5519204821
C   C80       1.0  0.58518  0.45702  0.09539  1.0000 0.5519204821
C   C81       1.0  0.66189  0.47651  0.58072  1.0000 -0.0117813735
C   C82       1.0  0.47651  0.66189  0.91928  1.0000 -0.0117813735
C   C83       1.0  0.33811  0.52349  0.41928  1.0000 -0.0117813735
C   C84       1.0  0.52349  0.33811  0.08072  1.0000 -0.0117813735
C   C85       1.0  0.65380  0.48600  0.53744  1.0000 -0.109639096
C   C86       1.0  0.48600  0.65380  0.96256  1.0000 -0.109639096
C   C87       1.0  0.34620  0.51400  0.46256  1.0000 -0.109639096
C   C88       1.0  0.51400  0.34620  0.03744  1.0000 -0.109639096
C   C89       1.0  0.76990  0.54790  0.52435  1.0000 -0.0117813735
C   C90       1.0  0.54790  0.76990  0.97565  1.0000 -0.0117813735
C   C91       1.0  0.23010  0.45210  0.47565  1.0000 -0.0117813735
C   C92       1.0  0.45210  0.23010  0.02435  1.0000 -0.0117813735
C   C93       1.0  0.88920  0.60020  0.55376  1.0000 -0.2111458172
C   C94       1.0  0.60020  0.88920  0.94624  1.0000 -0.2111458172
C   C95       1.0  0.11080  0.39980  0.44624  1.0000 -0.2111458172
C   C96       1.0  0.39980  0.11080  0.05376  1.0000 -0.2111458172
C   C97       1.0  0.90060  0.59560  0.59707  1.0000 0.2213875438
C   C98       1.0  0.59560  0.90060  0.90293  1.0000 0.2213875438
C   C99       1.0  0.09940  0.40440  0.40293  1.0000 0.2213875438
C   C100      1.0  0.40440  0.09940  0.09707  1.0000 0.2213875438
C   C101      1.0  0.78420  0.53180  0.61026  1.0000 -0.202364345
C   C102      1.0  0.53180  0.78420  0.88974  1.0000 -0.202364345
C   C103      1.0  0.21580  0.46820  0.38974  1.0000 -0.202364345
C   C104      1.0  0.46820  0.21580  0.11026  1.0000 -0.202364345
C   C105      1.0  0.76160  0.55580  0.47801  1.0000 0.5931456969
C   C106      1.0  0.55580  0.76160  0.02199  1.0000 0.5931456969
C   C107      1.0  0.23840  0.44420  0.52199  1.0000 0.6013453211
C   C108      1.0  0.44420  0.23840  0.97801  1.0000 0.5931456969
C   C109      1.0  0.14500  0.34500  0.63488  1.0000 0.6013453211
C   C110      1.0  0.34500  0.14500  0.86512  1.0000 0.6013453211
C   C111      1.0  0.85500  0.65500  0.36512  1.0000 0.6013453211
C   C112      1.0  0.65500  0.85500  0.13488  1.0000 0.6013453211
N   N1        1.0  0.74550  0.08890  0.69920  1.0000 -0.2881607328
N   N2        1.0  0.08890  0.74550  0.80080  1.0000 -0.2798565144
N   N3        1.0  0.25450  0.91110  0.30080  1.0000 -0.2881607328
N   N4        1.0  0.91110  0.25450  0.19920  1.0000 -0.2798565144
N   N5        1.0  0.02650  0.65790  0.62460  1.0000 -0.2798565144
N   N6        1.0  0.65790  0.02650  0.87540  1.0000 -0.2798565144
N   N7        1.0  0.97350  0.34210  0.37540  1.0000 -0.2798565144
N   N8        1.0  0.34210  0.97350  0.12460  1.0000 -0.2798565144
O   O1        1.0  0.13172  0.23028  0.82606  1.0000 -0.6003349815
O   O2        1.0  0.23028  0.13172  0.67394  1.0000 -0.6003349815
O   O3        1.0  0.86828  0.76972  0.17394  1.0000 -0.6003349815
O   O4        1.0  0.76972  0.86828  0.32606  1.0000 -0.6003349815
O   O5        1.0  0.34586  0.41054  0.79787  1.0000 -0.5842036032
O   O6        1.0  0.41054  0.34586  0.70213  1.0000 -0.5842036032
O   O7        1.0  0.65414  0.58946  0.20213  1.0000 -0.5842036032
O   O8        1.0  0.58946  0.65414  0.29787  1.0000 -0.5842036032
O   O9        1.0  0.55337  0.41083  0.63414  1.0000 -0.5935038318
O   O10       1.0  0.41083  0.55337  0.86586  1.0000 -0.5935038318
O   O11       1.0  0.44663  0.58917  0.36586  1.0000 -0.5935038318
O   O12       1.0  0.58917  0.44663  0.13414  1.0000 -0.5935038318
O   O13       1.0  0.43494  0.37026  0.56851  1.0000 -0.5935038318
O   O14       1.0  0.37026  0.43494  0.93149  1.0000 -0.5935038318
O   O15       1.0  0.56506  0.62974  0.43149  1.0000 -0.5935038318
O   O16       1.0  0.62974  0.56506  0.06851  1.0000 -0.6003349815
O   O17       1.0  0.66386  0.52234  0.45072  1.0000 -0.5935038318
O   O18       1.0  0.52234  0.66386  0.04928  1.0000 -0.5842036032
O   O19       1.0  0.33614  0.47766  0.54928  1.0000 -0.5842036032
O   O20       1.0  0.47766  0.33614  0.95072  1.0000 -0.5842036032
O   O21       1.0  0.86357  0.59863  0.47068  1.0000 -0.481316558
O   O22       1.0  0.59863  0.86357  0.02932  1.0000 -0.4737906913
O   O23       1.0  0.13643  0.40137  0.52932  1.0000 -0.4737906913
O   O24       1.0  0.40137  0.13643  0.97068  1.0000 -0.4737906913
O   O25       1.0  0.23385  0.36415  0.63846  1.0000 -0.5842036032
O   O26       1.0  0.36415  0.23385  0.86154  1.0000 -0.5842036032
O   O27       1.0  0.76615  0.63585  0.36154  1.0000 -0.5842036032
O   O28       1.0  0.63585  0.76615  0.13846  1.0000 -0.5842036032
O   O29       1.0  0.09150  0.35810  0.59856  1.0000 -0.5430614267
O   O30       1.0  0.35810  0.09150  0.90144  1.0000 -0.5430614267
O   O31       1.0  0.90850  0.64190  0.40144  1.0000 -0.5430614267
O   O32       1.0  0.64190  0.90850  0.09856  1.0000 -0.5430614267
