# DDEC6 charges by PACMAN v1.1 (https://github.com/mtap-research/PACMAN-charge/)
data_2015[Zn][eta]3[ASR]1
_chemical_formula_sum              "Zn6 H36 C30 N48"
_cell_length_a       9.6767
_cell_length_b       9.6767
_cell_length_c       20.172
_cell_angle_alpha    90
_cell_angle_beta     90
_cell_angle_gamma    120

_symmetry_space_group_name_H-M    "P 1"
_symmetry_Int_Tables_number       1

loop_
  _symmetry_equiv_pos_as_xyz
  'x, y, z'

loop_
  _atom_site_type_symbol
  _atom_site_label
  _atom_site_symmetry_multiplicity
  _atom_site_fract_x
  _atom_site_fract_y
  _atom_site_fract_z
  _atom_site_occupancy
  _atom_site_charge
Zn  Zn1       1.0  0.93515  0.50554  0.41626  1.0000 0.6771603629
Zn  Zn2       1.0  0.49446  0.42961  0.74959  1.0000 0.6771603629
Zn  Zn3       1.0  0.57039  0.06485  0.08293  1.0000 0.6771603629
Zn  Zn4       1.0  0.50554  0.93515  0.58374  1.0000 0.6771603629
Zn  Zn5       1.0  0.06485  0.57039  0.91707  1.0000 0.6771603629
Zn  Zn6       1.0  0.42961  0.49446  0.25041  1.0000 0.6771603629
H   H1        1.0  0.98920  0.65080  0.56290  1.0000 0.3017985974
H   H2        1.0  0.34920  0.33840  0.89623  1.0000 0.3017985974
H   H3        1.0  0.66160  0.01080  0.22957  1.0000 0.3017985974
H   H4        1.0  0.65080  0.98920  0.43710  1.0000 0.3017985974
H   H5        1.0  0.01080  0.66160  0.77043  1.0000 0.3017985974
H   H6        1.0  0.33840  0.34920  0.10377  1.0000 0.3017985974
H   H7        1.0  0.11960  0.79100  0.59710  1.0000 0.3017985974
H   H8        1.0  0.20900  0.32860  0.93043  1.0000 0.3017985974
H   H9        1.0  0.67140  0.88040  0.26377  1.0000 0.3017985974
H   H10       1.0  0.79100  0.11960  0.40290  1.0000 0.3017985974
H   H11       1.0  0.88040  0.67140  0.73623  1.0000 0.3017985974
H   H12       1.0  0.32860  0.20900  0.06957  1.0000 0.3017985974
H   H13       1.0  0.95620  0.06650  0.24640  1.0000 0.2732347454
H   H14       1.0  0.93350  0.88970  0.57973  1.0000 0.2732347454
H   H15       1.0  0.11030  0.04380  0.91307  1.0000 0.2732347454
H   H16       1.0  0.06650  0.95620  0.75360  1.0000 0.2732347454
H   H17       1.0  0.04380  0.11030  0.08693  1.0000 0.2732347454
H   H18       1.0  0.88970  0.93350  0.42027  1.0000 0.2732347454
H   H19       1.0  0.09090  0.16370  0.20660  1.0000 0.2585191582
H   H20       1.0  0.83630  0.92720  0.53993  1.0000 0.2585191582
H   H21       1.0  0.07280  0.90910  0.87327  1.0000 0.2585191582
H   H22       1.0  0.16370  0.09090  0.79340  1.0000 0.2585191582
H   H23       1.0  0.90910  0.07280  0.12673  1.0000 0.2585191582
H   H24       1.0  0.92720  0.83630  0.46007  1.0000 0.2585191582
H   H25       1.0  0.27280  0.74830  0.31560  1.0000 0.1623481815
H   H26       1.0  0.25170  0.52450  0.64893  1.0000 0.1623481815
H   H27       1.0  0.47550  0.72720  0.98227  1.0000 0.1623481815
H   H28       1.0  0.74830  0.27280  0.68440  1.0000 0.1623481815
H   H29       1.0  0.72720  0.47550  0.01773  1.0000 0.1623481815
H   H30       1.0  0.52450  0.25170  0.35107  1.0000 0.1623481815
H   H31       1.0  0.40280  0.70170  0.33770  1.0000 0.1549379086
H   H32       1.0  0.29830  0.70110  0.67103  1.0000 0.1549379086
H   H33       1.0  0.29890  0.59720  0.00437  1.0000 0.1549379086
H   H34       1.0  0.70170  0.40280  0.66230  1.0000 0.1549379086
H   H35       1.0  0.59720  0.29890  0.99563  1.0000 0.1549379086
H   H36       1.0  0.70110  0.29830  0.32897  1.0000 0.1549379086
C   C1        1.0  0.18870  0.75120  0.50880  1.0000 0.5229457224
C   C2        1.0  0.24880  0.43750  0.84213  1.0000 0.5229457224
C   C3        1.0  0.56250  0.81130  0.17547  1.0000 0.5229457224
C   C4        1.0  0.75120  0.18870  0.49120  1.0000 0.5229457224
C   C5        1.0  0.81130  0.56250  0.82453  1.0000 0.5229457224
C   C6        1.0  0.43750  0.24880  0.15787  1.0000 0.5229457224
C   C7        1.0  0.28120  0.72540  0.41720  1.0000 0.3657807712
C   C8        1.0  0.27460  0.55580  0.75053  1.0000 0.3657807712
C   C9        1.0  0.44420  0.71880  0.08387  1.0000 0.3657807712
C   C10       1.0  0.72540  0.28120  0.58280  1.0000 0.3657807712
C   C11       1.0  0.71880  0.44420  0.91613  1.0000 0.3657807712
C   C12       1.0  0.55580  0.27460  0.24947  1.0000 0.3657807712
C   C13       1.0  0.29260  0.67950  0.34580  1.0000 -0.3932838733
C   C14       1.0  0.32050  0.61310  0.67913  1.0000 -0.3932838733
C   C15       1.0  0.38690  0.70740  0.01247  1.0000 -0.3932838733
C   C16       1.0  0.67950  0.29260  0.65420  1.0000 -0.3932838733
C   C17       1.0  0.70740  0.38690  0.98753  1.0000 -0.3932838733
C   C18       1.0  0.61310  0.32050  0.32087  1.0000 -0.3932838733
C   C19       1.0  0.17930  0.50920  0.32891  1.0000 0.3618377005
C   C20       1.0  0.49080  0.67010  0.66224  1.0000 0.3618377005
C   C21       1.0  0.32990  0.82070  0.99558  1.0000 0.3618377005
C   C22       1.0  0.50920  0.17930  0.67109  1.0000 0.3618377005
C   C23       1.0  0.82070  0.32990  0.00442  1.0000 0.3618377005
C   C24       1.0  0.67010  0.49080  0.33776  1.0000 0.3618377005
C   C25       1.0  0.07720  0.28000  0.28560  1.0000 0.5119843985
C   C26       1.0  0.72000  0.79720  0.61893  1.0000 0.5119843985
C   C27       1.0  0.20280  0.92280  0.95227  1.0000 0.5119843985
C   C28       1.0  0.28000  0.07720  0.71440  1.0000 0.5119843985
C   C29       1.0  0.92280  0.20280  0.04773  1.0000 0.5119843985
C   C30       1.0  0.79720  0.72000  0.38107  1.0000 0.5119843985
N   N1        1.0  0.34770  0.83110  0.51312  1.0000 -0.3308565413
N   N2        1.0  0.16890  0.51660  0.84645  1.0000 -0.3308565413
N   N3        1.0  0.48340  0.65230  0.17979  1.0000 -0.3308565413
N   N4        1.0  0.83110  0.34770  0.48688  1.0000 -0.3308565413
N   N5        1.0  0.65230  0.48340  0.82021  1.0000 -0.3308565413
N   N6        1.0  0.51660  0.16890  0.15355  1.0000 -0.3308565413
N   N7        1.0  0.40750  0.81440  0.45271  1.0000 -0.2958162124
N   N8        1.0  0.18560  0.59310  0.78604  1.0000 -0.2958162124
N   N9        1.0  0.40690  0.59250  0.11938  1.0000 -0.2958162124
N   N10       1.0  0.81440  0.40750  0.54729  1.0000 -0.2958162124
N   N11       1.0  0.59250  0.40690  0.88062  1.0000 -0.2958162124
N   N12       1.0  0.59310  0.18560  0.21396  1.0000 -0.2958162124
N   N13       1.0  0.14130  0.68250  0.44879  1.0000 -0.4774423137
N   N14       1.0  0.31750  0.45880  0.78212  1.0000 -0.4774423137
N   N15       1.0  0.54120  0.85870  0.11546  1.0000 -0.4774423137
N   N16       1.0  0.68250  0.14130  0.55121  1.0000 -0.4774423137
N   N17       1.0  0.85870  0.54120  0.88454  1.0000 -0.4774423137
N   N18       1.0  0.45880  0.31750  0.21788  1.0000 -0.4774423137
N   N19       1.0  0.08650  0.74560  0.55654  1.0000 -0.6583575303
N   N20       1.0  0.25440  0.34090  0.88987  1.0000 -0.6583575303
N   N21       1.0  0.65910  0.91350  0.22321  1.0000 -0.6583575303
N   N22       1.0  0.74560  0.08650  0.44346  1.0000 -0.6583575303
N   N23       1.0  0.91350  0.65910  0.77679  1.0000 -0.6583575303
N   N24       1.0  0.34090  0.25440  0.11013  1.0000 -0.6583575303
N   N25       1.0  0.21610  0.42110  0.28851  1.0000 -0.4664243952
N   N26       1.0  0.57890  0.79500  0.62184  1.0000 -0.4664243952
N   N27       1.0  0.20500  0.78390  0.95518  1.0000 -0.4664243952
N   N28       1.0  0.42110  0.21610  0.71149  1.0000 -0.4664243952
N   N29       1.0  0.78390  0.20500  0.04482  1.0000 -0.4664243952
N   N30       1.0  0.79500  0.57890  0.37816  1.0000 -0.4664243952
N   N31       1.0  0.03100  0.42810  0.34960  1.0000 -0.2545563871
N   N32       1.0  0.57190  0.60290  0.68293  1.0000 -0.2545563871
N   N33       1.0  0.39710  0.96900  0.01627  1.0000 -0.2545563871
N   N34       1.0  0.42810  0.03100  0.65040  1.0000 -0.2545563871
N   N35       1.0  0.96900  0.39710  0.98373  1.0000 -0.2545563871
N   N36       1.0  0.60290  0.57190  0.31707  1.0000 -0.2545563871
N   N37       1.0  0.96120  0.27480  0.32264  1.0000 -0.3745672698
N   N38       1.0  0.72520  0.68640  0.65597  1.0000 -0.3745672698
N   N39       1.0  0.31360  0.03880  0.98931  1.0000 -0.3745672698
N   N40       1.0  0.27480  0.96120  0.67736  1.0000 -0.3745672698
N   N41       1.0  0.03880  0.31360  0.01069  1.0000 -0.3745672698
N   N42       1.0  0.68640  0.72520  0.34403  1.0000 -0.3756007249
N   N43       1.0  0.06100  0.15150  0.24920  1.0000 -0.6408693786
N   N44       1.0  0.84850  0.90950  0.58253  1.0000 -0.6408693786
N   N45       1.0  0.09050  0.93900  0.91587  1.0000 -0.6408693786
N   N46       1.0  0.15150  0.06100  0.75080  1.0000 -0.6408693786
N   N47       1.0  0.93900  0.09050  0.08413  1.0000 -0.6408693786
N   N48       1.0  0.90950  0.84850  0.41747  1.0000 -0.6408693786
