# DDEC6 charges by PACMAN v1.1 (https://github.com/mtap-research/PACMAN-charge/)
data_2015[Eu][sra]3[ASR]3
_chemical_formula_sum              "Eu4 H64 C96 N4 O32"
_cell_length_a       11.048
_cell_length_b       16.702
_cell_length_c       18.739
_cell_angle_alpha    90
_cell_angle_beta     90
_cell_angle_gamma    90

_symmetry_space_group_name_H-M    "P 1"
_symmetry_Int_Tables_number       1

loop_
  _symmetry_equiv_pos_as_xyz
  'x, y, z'

loop_
  _atom_site_type_symbol
  _atom_site_label
  _atom_site_symmetry_multiplicity
  _atom_site_fract_x
  _atom_site_fract_y
  _atom_site_fract_z
  _atom_site_occupancy
  _atom_site_charge
Eu  Eu1       1.0  0.29712  0.25000  0.70476  1.0000 2.0502737162
Eu  Eu2       1.0  0.20288  0.75000  0.20476  1.0000 2.0502737162
Eu  Eu3       1.0  0.70288  0.75000  0.29524  1.0000 2.0502737162
Eu  Eu4       1.0  0.79712  0.25000  0.79524  1.0000 2.0502737162
H   H1        1.0  0.37290  0.25000  0.20720  1.0000 0.3637205658
H   H2        1.0  0.12710  0.75000  0.70720  1.0000 0.3637205658
H   H3        1.0  0.62710  0.75000  0.79280  1.0000 0.3637205658
H   H4        1.0  0.87290  0.25000  0.29280  1.0000 0.3637205658
H   H5        1.0  0.97060  0.25000  0.97430  1.0000 0.1397100834
H   H6        1.0  0.52940  0.75000  0.47430  1.0000 0.1397100834
H   H7        1.0  0.02940  0.75000  0.02570  1.0000 0.1397100834
H   H8        1.0  0.47060  0.25000  0.52570  1.0000 0.1397100834
H   H9        1.0  0.02940  0.25000  0.08810  1.0000 0.1214484216
H   H10       1.0  0.47060  0.75000  0.58810  1.0000 0.1214484216
H   H11       1.0  0.97060  0.75000  0.91190  1.0000 0.1214484216
H   H12       1.0  0.52940  0.25000  0.41190  1.0000 0.1214484216
H   H13       1.0  0.31740  0.25000  0.90930  1.0000 0.1214484216
H   H14       1.0  0.18260  0.75000  0.40930  1.0000 0.1214484216
H   H15       1.0  0.68260  0.75000  0.09070  1.0000 0.1214484216
H   H16       1.0  0.81740  0.25000  0.59070  1.0000 0.1214484216
H   H17       1.0  0.47940  0.17240  0.95610  1.0000 0.106623845
H   H18       1.0  0.02060  0.82760  0.45610  1.0000 0.106623845
H   H19       1.0  0.52060  0.67240  0.04390  1.0000 0.106623845
H   H20       1.0  0.97940  0.32760  0.54390  1.0000 0.106623845
H   H21       1.0  0.52060  0.82760  0.04390  1.0000 0.106623845
H   H22       1.0  0.97940  0.17240  0.54390  1.0000 0.106623845
H   H23       1.0  0.47940  0.32760  0.95610  1.0000 0.106623845
H   H24       1.0  0.02060  0.67240  0.45610  1.0000 0.106623845
H   H25       1.0  0.57400  0.17900  0.01830  1.0000 0.1214484216
H   H26       1.0  0.92600  0.82100  0.51830  1.0000 0.1214484216
H   H27       1.0  0.42600  0.67900  0.98170  1.0000 0.1214484216
H   H28       1.0  0.07400  0.32100  0.48170  1.0000 0.1214484216
H   H29       1.0  0.42600  0.82100  0.98170  1.0000 0.1214484216
H   H30       1.0  0.07400  0.17900  0.48170  1.0000 0.1214484216
H   H31       1.0  0.57400  0.32100  0.01830  1.0000 0.1214484216
H   H32       1.0  0.92600  0.67900  0.51830  1.0000 0.1214484216
H   H33       1.0  0.52510  0.10690  0.13560  1.0000 0.1214484216
H   H34       1.0  0.97490  0.89310  0.63560  1.0000 0.1214484216
H   H35       1.0  0.47490  0.60690  0.86440  1.0000 0.1214484216
H   H36       1.0  0.02510  0.39310  0.36440  1.0000 0.1214484216
H   H37       1.0  0.47490  0.89310  0.86440  1.0000 0.1214484216
H   H38       1.0  0.02510  0.10690  0.36440  1.0000 0.1214484216
H   H39       1.0  0.52510  0.39310  0.13560  1.0000 0.1214484216
H   H40       1.0  0.97490  0.60690  0.63560  1.0000 0.1214484216
H   H41       1.0  0.45530  0.98990  0.18100  1.0000 0.1214484216
H   H42       1.0  0.04470  0.01010  0.68100  1.0000 0.1214484216
H   H43       1.0  0.54470  0.48990  0.81900  1.0000 0.1214484216
H   H44       1.0  0.95530  0.51010  0.31900  1.0000 0.1214484216
H   H45       1.0  0.54470  0.01010  0.81900  1.0000 0.1214484216
H   H46       1.0  0.95530  0.98990  0.31900  1.0000 0.1214484216
H   H47       1.0  0.45530  0.51010  0.18100  1.0000 0.1214484216
H   H48       1.0  0.04470  0.48990  0.68100  1.0000 0.1214484216
H   H49       1.0  0.24800  0.95420  0.01200  1.0000 0.1214484216
H   H50       1.0  0.25200  0.04580  0.51200  1.0000 0.1214484216
H   H51       1.0  0.75200  0.45420  0.98800  1.0000 0.1214484216
H   H52       1.0  0.74800  0.54580  0.48800  1.0000 0.1214484216
H   H53       1.0  0.75200  0.04580  0.98800  1.0000 0.1214484216
H   H54       1.0  0.74800  0.95420  0.48800  1.0000 0.1214484216
H   H55       1.0  0.24800  0.54580  0.01200  1.0000 0.1214484216
H   H56       1.0  0.25200  0.45420  0.51200  1.0000 0.1214484216
H   H57       1.0  0.32570  0.07030  0.95860  1.0000 0.1214484216
H   H58       1.0  0.17430  0.92970  0.45860  1.0000 0.1214484216
H   H59       1.0  0.67430  0.57030  0.04140  1.0000 0.1214484216
H   H60       1.0  0.82570  0.42970  0.54140  1.0000 0.1214484216
H   H61       1.0  0.67430  0.92970  0.04140  1.0000 0.1214484216
H   H62       1.0  0.82570  0.07030  0.54140  1.0000 0.1214484216
H   H63       1.0  0.32570  0.42970  0.95860  1.0000 0.1214484216
H   H64       1.0  0.17430  0.57030  0.45860  1.0000 0.1214484216
C   C1        1.0  0.10070  0.25000  0.85270  1.0000 0.6809877751
C   C2        1.0  0.39930  0.75000  0.35270  1.0000 0.6809877751
C   C3        1.0  0.89930  0.75000  0.14730  1.0000 0.6809877751
C   C4        1.0  0.60070  0.25000  0.64730  1.0000 0.6809877751
C   C5        1.0  0.13910  0.25000  0.92910  1.0000 -0.0218667903
C   C6        1.0  0.36090  0.75000  0.42910  1.0000 -0.0218667903
C   C7        1.0  0.86090  0.75000  0.07090  1.0000 -0.0218667903
C   C8        1.0  0.63910  0.25000  0.57090  1.0000 -0.0218667903
C   C9        1.0  0.05270  0.25000  0.98510  1.0000 -0.1009869007
C   C10       1.0  0.44730  0.75000  0.48510  1.0000 -0.1009869007
C   C11       1.0  0.94730  0.75000  0.01490  1.0000 -0.1009869007
C   C12       1.0  0.55270  0.25000  0.51490  1.0000 -0.1009869007
C   C13       1.0  0.08790  0.25000  0.05250  1.0000 -0.1009869007
C   C14       1.0  0.41210  0.75000  0.55250  1.0000 -0.1009869007
C   C15       1.0  0.91210  0.75000  0.94750  1.0000 -0.1009869007
C   C16       1.0  0.58790  0.25000  0.44750  1.0000 -0.1009869007
C   C17       1.0  0.21140  0.25000  0.07220  1.0000 -0.1009869007
C   C18       1.0  0.28860  0.75000  0.57220  1.0000 -0.1009869007
C   C19       1.0  0.78860  0.75000  0.92780  1.0000 -0.1009869007
C   C20       1.0  0.71140  0.25000  0.42780  1.0000 -0.1009869007
C   C21       1.0  0.29520  0.25000  0.01850  1.0000 0.1397100834
C   C22       1.0  0.20480  0.75000  0.51850  1.0000 0.1397100834
C   C23       1.0  0.70480  0.75000  0.98150  1.0000 0.1397100834
C   C24       1.0  0.79520  0.25000  0.48150  1.0000 0.1397100834
C   C25       1.0  0.25950  0.25000  0.94540  1.0000 -0.2001328918
C   C26       1.0  0.24050  0.75000  0.44540  1.0000 -0.2001328918
C   C27       1.0  0.74050  0.75000  0.05460  1.0000 -0.2001328918
C   C28       1.0  0.75950  0.25000  0.55460  1.0000 -0.2001328918
C   C29       1.0  0.24680  0.25000  0.15190  1.0000 0.542806789
C   C30       1.0  0.25320  0.75000  0.65190  1.0000 0.542806789
C   C31       1.0  0.75320  0.75000  0.84810  1.0000 0.542806789
C   C32       1.0  0.74680  0.25000  0.34810  1.0000 0.542806789
C   C33       1.0  0.48830  0.17540  0.00750  1.0000 -0.174321851
C   C34       1.0  0.01170  0.82460  0.50750  1.0000 -0.174321851
C   C35       1.0  0.51170  0.67540  0.99250  1.0000 -0.174321851
C   C36       1.0  0.98830  0.32460  0.49250  1.0000 -0.174321851
C   C37       1.0  0.51170  0.82460  0.99250  1.0000 -0.174321851
C   C38       1.0  0.98830  0.17540  0.49250  1.0000 -0.174321851
C   C39       1.0  0.48830  0.32460  0.00750  1.0000 -0.174321851
C   C40       1.0  0.01170  0.67540  0.50750  1.0000 -0.174321851
C   C41       1.0  0.43670  0.10070  0.04110  1.0000 0.106623845
C   C42       1.0  0.06330  0.89930  0.54110  1.0000 0.106623845
C   C43       1.0  0.56330  0.60070  0.95890  1.0000 0.106623845
C   C44       1.0  0.93670  0.39930  0.45890  1.0000 0.106623845
C   C45       1.0  0.56330  0.89930  0.95890  1.0000 0.106623845
C   C46       1.0  0.93670  0.10070  0.45890  1.0000 0.106623845
C   C47       1.0  0.43670  0.39930  0.04110  1.0000 0.106623845
C   C48       1.0  0.06330  0.60070  0.54110  1.0000 0.106623845
C   C49       1.0  0.47180  0.07580  0.10900  1.0000 -0.1543567798
C   C50       1.0  0.02820  0.92420  0.60900  1.0000 -0.1543567798
C   C51       1.0  0.52820  0.57580  0.89100  1.0000 -0.1543567798
C   C52       1.0  0.97180  0.42420  0.39100  1.0000 -0.1543567798
C   C53       1.0  0.52820  0.92420  0.89100  1.0000 -0.1543567798
C   C54       1.0  0.97180  0.07580  0.39100  1.0000 -0.1543567798
C   C55       1.0  0.47180  0.42420  0.10900  1.0000 -0.1543567798
C   C56       1.0  0.02820  0.57580  0.60900  1.0000 -0.1543567798
C   C57       1.0  0.42840  0.00640  0.13640  1.0000 -0.0824601383
C   C58       1.0  0.07160  0.99360  0.63640  1.0000 -0.0824601383
C   C59       1.0  0.57160  0.50640  0.86360  1.0000 -0.0824601383
C   C60       1.0  0.92840  0.49360  0.36360  1.0000 -0.0824601383
C   C61       1.0  0.57160  0.99360  0.86360  1.0000 -0.0824601383
C   C62       1.0  0.92840  0.00640  0.36360  1.0000 -0.0824601383
C   C63       1.0  0.42840  0.49360  0.13640  1.0000 -0.0824601383
C   C64       1.0  0.07160  0.50640  0.63640  1.0000 -0.0824601383
C   C65       1.0  0.34640  0.95960  0.10080  1.0000 -0.045082141
C   C66       1.0  0.15360  0.04040  0.60080  1.0000 -0.045082141
C   C67       1.0  0.65360  0.45960  0.89920  1.0000 -0.0444586205
C   C68       1.0  0.84640  0.54040  0.39920  1.0000 -0.045082141
C   C69       1.0  0.65360  0.04040  0.89920  1.0000 -0.045082141
C   C70       1.0  0.84640  0.95960  0.39920  1.0000 -0.0444586205
C   C71       1.0  0.34640  0.54040  0.10080  1.0000 -0.045082141
C   C72       1.0  0.15360  0.45960  0.60080  1.0000 -0.045082141
C   C73       1.0  0.30630  0.98420  0.03580  1.0000 -0.0909036866
C   C74       1.0  0.19370  0.01580  0.53580  1.0000 -0.0909036866
C   C75       1.0  0.69370  0.48420  0.96420  1.0000 -0.0909036866
C   C76       1.0  0.80630  0.51580  0.46420  1.0000 -0.0909036866
C   C77       1.0  0.69370  0.01580  0.96420  1.0000 -0.0909036866
C   C78       1.0  0.80630  0.98420  0.46420  1.0000 -0.0909036866
C   C79       1.0  0.30630  0.51580  0.03580  1.0000 -0.0909036866
C   C80       1.0  0.19370  0.48420  0.53580  1.0000 -0.0909036866
C   C81       1.0  0.35180  0.05480  0.00370  1.0000 -0.1602812561
C   C82       1.0  0.14820  0.94520  0.50370  1.0000 -0.1602812561
C   C83       1.0  0.64820  0.55480  0.99630  1.0000 -0.1602812561
C   C84       1.0  0.85180  0.44520  0.49630  1.0000 -0.1602812561
C   C85       1.0  0.64820  0.94520  0.99630  1.0000 -0.1602812561
C   C86       1.0  0.85180  0.05480  0.49630  1.0000 -0.1602812561
C   C87       1.0  0.35180  0.44520  0.00370  1.0000 -0.1602812561
C   C88       1.0  0.14820  0.55480  0.50370  1.0000 -0.1602812561
C   C89       1.0  0.30420  0.88240  0.13100  1.0000 0.5626332609
C   C90       1.0  0.19580  0.11760  0.63100  1.0000 0.5626332609
C   C91       1.0  0.69580  0.38240  0.86900  1.0000 0.5626332609
C   C92       1.0  0.80420  0.61760  0.36900  1.0000 0.5626332609
C   C93       1.0  0.69580  0.11760  0.86900  1.0000 0.5626332609
C   C94       1.0  0.80420  0.88240  0.36900  1.0000 0.5626332609
C   C95       1.0  0.30420  0.61760  0.13100  1.0000 0.5626332609
C   C96       1.0  0.19580  0.38240  0.63100  1.0000 0.5626332609
N   N1        1.0  0.42420  0.25000  0.03500  1.0000 -0.1154574232
N   N2        1.0  0.07580  0.75000  0.53500  1.0000 -0.1154574232
N   N3        1.0  0.57580  0.75000  0.96500  1.0000 -0.1154574232
N   N4        1.0  0.92420  0.25000  0.46500  1.0000 -0.1154574232
O   O1        1.0  0.18390  0.25000  0.80730  1.0000 -0.7082398685
O   O2        1.0  0.31610  0.75000  0.30730  1.0000 -0.7082398685
O   O3        1.0  0.81610  0.75000  0.19270  1.0000 -0.7082398685
O   O4        1.0  0.68390  0.25000  0.69270  1.0000 -0.7082398685
O   O5        1.0  0.99090  0.25000  0.83840  1.0000 -0.674520016
O   O6        1.0  0.50910  0.75000  0.33840  1.0000 -0.6756607495
O   O7        1.0  0.00910  0.75000  0.16160  1.0000 -0.6756607495
O   O8        1.0  0.49090  0.25000  0.66160  1.0000 -0.6756607495
O   O9        1.0  0.36100  0.25000  0.16410  1.0000 -0.448198803
O   O10       1.0  0.13900  0.75000  0.66410  1.0000 -0.448198803
O   O11       1.0  0.63900  0.75000  0.83590  1.0000 -0.448198803
O   O12       1.0  0.86100  0.25000  0.33590  1.0000 -0.448198803
O   O13       1.0  0.16900  0.25000  0.19590  1.0000 -0.5133041891
O   O14       1.0  0.33100  0.75000  0.69590  1.0000 -0.5133041891
O   O15       1.0  0.83100  0.75000  0.80410  1.0000 -0.5133041891
O   O16       1.0  0.66900  0.25000  0.30410  1.0000 -0.5133041891
O   O17       1.0  0.36040  0.85050  0.18180  1.0000 -0.6315789486
O   O18       1.0  0.13960  0.14950  0.68180  1.0000 -0.6315789486
O   O19       1.0  0.63960  0.35050  0.81820  1.0000 -0.6315789486
O   O20       1.0  0.86040  0.64950  0.31820  1.0000 -0.6315789486
O   O21       1.0  0.63960  0.14950  0.81820  1.0000 -0.6315789486
O   O22       1.0  0.86040  0.85050  0.31820  1.0000 -0.6315789486
O   O23       1.0  0.36040  0.64950  0.18180  1.0000 -0.6315789486
O   O24       1.0  0.13960  0.35050  0.68180  1.0000 -0.6315789486
O   O25       1.0  0.21180  0.84790  0.10660  1.0000 -0.6315789486
O   O26       1.0  0.28820  0.15210  0.60660  1.0000 -0.6315789486
O   O27       1.0  0.78820  0.34790  0.89340  1.0000 -0.6315789486
O   O28       1.0  0.71180  0.65210  0.39340  1.0000 -0.6315789486
O   O29       1.0  0.78820  0.15210  0.89340  1.0000 -0.6315789486
O   O30       1.0  0.71180  0.84790  0.39340  1.0000 -0.6315789486
O   O31       1.0  0.21180  0.65210  0.10660  1.0000 -0.6315789486
O   O32       1.0  0.28820  0.34790  0.60660  1.0000 -0.6315789486
