# DDEC6 charges by PACMAN v1.1 (https://github.com/mtap-research/PACMAN-charge/)
data_2015[Mn][nan]3[ASR]7
_chemical_formula_sum              "Mn6 H18 C42 O18"
_cell_length_a       21.6819
_cell_length_b       21.6819
_cell_length_c       7.0794
_cell_angle_alpha    90
_cell_angle_beta     90
_cell_angle_gamma    120

_symmetry_space_group_name_H-M    "P 1"
_symmetry_Int_Tables_number       1

loop_
  _symmetry_equiv_pos_as_xyz
  'x, y, z'

loop_
  _atom_site_type_symbol
  _atom_site_label
  _atom_site_symmetry_multiplicity
  _atom_site_fract_x
  _atom_site_fract_y
  _atom_site_fract_z
  _atom_site_occupancy
  _atom_site_charge
Mn  Mn1       1.0  0.60964  0.27167  0.14546  1.0000 0.9955917913
Mn  Mn2       1.0  0.39036  0.66203  0.52121  1.0000 0.9942953308
Mn  Mn3       1.0  0.66203  0.39036  0.47879  1.0000 0.9942953308
Mn  Mn4       1.0  0.72833  0.33797  0.81213  1.0000 0.9942953308
Mn  Mn5       1.0  0.27167  0.60964  0.85454  1.0000 0.9942953308
Mn  Mn6       1.0  0.33797  0.72833  0.18787  1.0000 0.9955917913
H   H1        1.0  0.58266  0.00968  0.96495  1.0000 0.1114085348
H   H2        1.0  0.41734  0.42702  0.70172  1.0000 0.1114085348
H   H3        1.0  0.42702  0.41734  0.29828  1.0000 0.1114085348
H   H4        1.0  0.99032  0.57298  0.63162  1.0000 0.1114085348
H   H5        1.0  0.00968  0.58266  0.03505  1.0000 0.1114085348
H   H6        1.0  0.57298  0.99032  0.36838  1.0000 0.1114085348
H   H7        1.0  0.62577  0.11883  0.11707  1.0000 0.1342467287
H   H8        1.0  0.37423  0.49306  0.54960  1.0000 0.1342467287
H   H9        1.0  0.49306  0.37423  0.45040  1.0000 0.1342467287
H   H10       1.0  0.88117  0.50694  0.78374  1.0000 0.1342467287
H   H11       1.0  0.11883  0.62577  0.88293  1.0000 0.1342467287
H   H12       1.0  0.50694  0.88117  0.21626  1.0000 0.1342467287
H   H13       1.0  0.56208  0.08548  0.48814  1.0000 0.1114085348
H   H14       1.0  0.43792  0.52340  0.17853  1.0000 0.1114085348
H   H15       1.0  0.52340  0.43792  0.82147  1.0000 0.1114085348
H   H16       1.0  0.91452  0.47660  0.15481  1.0000 0.1114085348
H   H17       1.0  0.08548  0.56208  0.51186  1.0000 0.1114085348
H   H18       1.0  0.47660  0.91452  0.84519  1.0000 0.1114085348
C   C1        1.0  0.63190  0.17980  0.87070  1.0000 0.3625445037
C   C2        1.0  0.36810  0.54790  0.79597  1.0000 0.3625445037
C   C3        1.0  0.54790  0.36810  0.20403  1.0000 0.3625445037
C   C4        1.0  0.82020  0.45210  0.53737  1.0000 0.3625445037
C   C5        1.0  0.17980  0.63190  0.12930  1.0000 0.3625445037
C   C6        1.0  0.45210  0.82020  0.46263  1.0000 0.3625445037
C   C7        1.0  0.61120  0.16490  0.68120  1.0000 -0.2008038315
C   C8        1.0  0.38880  0.55370  0.98547  1.0000 -0.2008038315
C   C9        1.0  0.55370  0.38880  0.01453  1.0000 -0.2008038315
C   C10       1.0  0.83510  0.44630  0.34787  1.0000 -0.2008038315
C   C11       1.0  0.16490  0.61120  0.31880  1.0000 -0.2008038315
C   C12       1.0  0.44630  0.83510  0.65213  1.0000 -0.2008038315
C   C13       1.0  0.57610  0.09580  0.61670  1.0000 -0.1285149561
C   C14       1.0  0.42390  0.51970  0.04997  1.0000 -0.1285149561
C   C15       1.0  0.51970  0.42390  0.95003  1.0000 -0.1285149561
C   C16       1.0  0.90420  0.48030  0.28337  1.0000 -0.1285149561
C   C17       1.0  0.09580  0.57610  0.38330  1.0000 -0.1285149561
C   C18       1.0  0.48030  0.90420  0.71663  1.0000 -0.1285149561
C   C19       1.0  0.56340  0.03860  0.71400  1.0000 0.0383114126
C   C20       1.0  0.43660  0.47520  0.95267  1.0000 0.0383114126
C   C21       1.0  0.47520  0.43660  0.04733  1.0000 0.0383114126
C   C22       1.0  0.96140  0.52480  0.38067  1.0000 0.0383114126
C   C23       1.0  0.03860  0.56340  0.28600  1.0000 0.0383114126
C   C24       1.0  0.52480  0.96140  0.61933  1.0000 0.0383114126
C   C25       1.0  0.58780  0.04980  0.89710  1.0000 -0.1456820797
C   C26       1.0  0.41220  0.46200  0.76957  1.0000 -0.1456820797
C   C27       1.0  0.46200  0.41220  0.23043  1.0000 -0.1456820797
C   C28       1.0  0.95020  0.53800  0.56377  1.0000 -0.1456820797
C   C29       1.0  0.04980  0.58780  0.10290  1.0000 -0.1443553995
C   C30       1.0  0.53800  0.95020  0.43623  1.0000 -0.1443553995
C   C31       1.0  0.61330  0.11440  0.98720  1.0000 -0.2052266281
C   C32       1.0  0.38670  0.50110  0.67947  1.0000 -0.2052266281
C   C33       1.0  0.50110  0.38670  0.32053  1.0000 -0.2052266281
C   C34       1.0  0.88560  0.49890  0.65387  1.0000 -0.2052266281
C   C35       1.0  0.11440  0.61330  0.01280  1.0000 -0.2008038315
C   C36       1.0  0.49890  0.88560  0.34613  1.0000 -0.2052266281
C   C37       1.0  0.61770  0.21910  0.54210  1.0000 0.5999085823
C   C38       1.0  0.38230  0.60140  0.12457  1.0000 0.5999085823
C   C39       1.0  0.60140  0.38230  0.87543  1.0000 0.5999085823
C   C40       1.0  0.78090  0.39860  0.20877  1.0000 0.5999085823
C   C41       1.0  0.21910  0.61770  0.45790  1.0000 0.5999085823
C   C42       1.0  0.39860  0.78090  0.79123  1.0000 0.5999085823
O   O1        1.0  0.65949  0.23870  0.95910  1.0000 -0.5634347877
O   O2        1.0  0.34051  0.57921  0.70757  1.0000 -0.5634347877
O   O3        1.0  0.57921  0.34051  0.29243  1.0000 -0.5634347877
O   O4        1.0  0.76130  0.42079  0.62577  1.0000 -0.5634347877
O   O5        1.0  0.23870  0.65949  0.04090  1.0000 -0.5634347877
O   O6        1.0  0.42079  0.76130  0.37423  1.0000 -0.5634347877
O   O7        1.0  0.64384  0.28230  0.59490  1.0000 -0.5687163255
O   O8        1.0  0.35616  0.63846  0.07177  1.0000 -0.5687163255
O   O9        1.0  0.63846  0.35616  0.92823  1.0000 -0.5687163255
O   O10       1.0  0.71770  0.36154  0.26157  1.0000 -0.5687163255
O   O11       1.0  0.28230  0.64384  0.40510  1.0000 -0.5687163255
O   O12       1.0  0.36154  0.71770  0.73843  1.0000 -0.5687163255
O   O13       1.0  0.59350  0.20226  0.37860  1.0000 -0.5413565319
O   O14       1.0  0.40650  0.60876  0.28807  1.0000 -0.5413565319
O   O15       1.0  0.60876  0.40650  0.71193  1.0000 -0.5413565319
O   O16       1.0  0.79774  0.39124  0.04527  1.0000 -0.5413565319
O   O17       1.0  0.20226  0.59350  0.62140  1.0000 -0.5413565319
O   O18       1.0  0.39124  0.79774  0.95473  1.0000 -0.5413565319
