# DDEC6 charges by PACMAN v1.1 (https://github.com/mtap-research/PACMAN-charge/)
data_2016[Mg][acs]3[ASR]1
_chemical_formula_sum              "Mg6 H24 C48 O50"
_cell_length_a       15.9423
_cell_length_b       15.9423
_cell_length_c       16.0411
_cell_angle_alpha    90
_cell_angle_beta     90
_cell_angle_gamma    120

_symmetry_space_group_name_H-M    "P 1"
_symmetry_Int_Tables_number       1

loop_
  _symmetry_equiv_pos_as_xyz
  'x, y, z'

loop_
  _atom_site_type_symbol
  _atom_site_label
  _atom_site_symmetry_multiplicity
  _atom_site_fract_x
  _atom_site_fract_y
  _atom_site_fract_z
  _atom_site_occupancy
  _atom_site_charge
Mg  Mg1       1.0  0.26182  0.52365  0.25000  1.0000 1.3932952308
Mg  Mg2       1.0  0.73818  0.26182  0.75000  1.0000 1.3932952308
Mg  Mg3       1.0  0.47635  0.73818  0.25000  1.0000 1.3932952308
Mg  Mg4       1.0  0.73818  0.47635  0.75000  1.0000 1.3932952308
Mg  Mg5       1.0  0.26182  0.73818  0.25000  1.0000 1.3932952308
Mg  Mg6       1.0  0.52365  0.26182  0.75000  1.0000 1.3932952308
H   H1        1.0  0.09480  0.40070  0.39930  1.0000 0.3604867382
H   H2        1.0  0.69410  0.09480  0.89930  1.0000 0.3604867382
H   H3        1.0  0.59930  0.69410  0.39930  1.0000 0.3604867382
H   H4        1.0  0.90520  0.59930  0.89930  1.0000 0.3604867382
H   H5        1.0  0.30590  0.90520  0.39930  1.0000 0.3604867382
H   H6        1.0  0.40070  0.30590  0.89930  1.0000 0.3604867382
H   H7        1.0  0.59930  0.90520  0.10070  1.0000 0.3604867382
H   H8        1.0  0.69410  0.59930  0.60070  1.0000 0.3604867382
H   H9        1.0  0.09480  0.69410  0.10070  1.0000 0.3604867382
H   H10       1.0  0.40070  0.09480  0.60070  1.0000 0.3604867382
H   H11       1.0  0.30590  0.40070  0.10070  1.0000 0.3604867382
H   H12       1.0  0.90520  0.30590  0.60070  1.0000 0.3604867382
H   H13       1.0  0.90520  0.59930  0.60070  1.0000 0.3604867382
H   H14       1.0  0.30590  0.90520  0.10070  1.0000 0.3604867382
H   H15       1.0  0.40070  0.30590  0.60070  1.0000 0.3604867382
H   H16       1.0  0.09480  0.40070  0.10070  1.0000 0.3604867382
H   H17       1.0  0.69410  0.09480  0.60070  1.0000 0.3604867382
H   H18       1.0  0.59930  0.69410  0.10070  1.0000 0.3604867382
H   H19       1.0  0.40070  0.09480  0.89930  1.0000 0.3604867382
H   H20       1.0  0.30590  0.40070  0.39930  1.0000 0.3604867382
H   H21       1.0  0.90520  0.30590  0.89930  1.0000 0.3604867382
H   H22       1.0  0.59930  0.90520  0.39930  1.0000 0.3604867382
H   H23       1.0  0.69410  0.59930  0.89930  1.0000 0.3604867382
H   H24       1.0  0.09480  0.69410  0.39930  1.0000 0.3604867382
C   C1        1.0  0.03350  0.44130  0.46813  1.0000 0.1791905715
C   C2        1.0  0.59220  0.03350  0.96813  1.0000 0.1791905715
C   C3        1.0  0.55870  0.59220  0.46813  1.0000 0.1791905715
C   C4        1.0  0.96650  0.55870  0.96813  1.0000 0.1791905715
C   C5        1.0  0.40780  0.96650  0.46813  1.0000 0.1791905715
C   C6        1.0  0.44130  0.40780  0.96813  1.0000 0.1791905715
C   C7        1.0  0.55870  0.96650  0.03187  1.0000 0.1791905715
C   C8        1.0  0.59220  0.55870  0.53187  1.0000 0.1791905715
C   C9        1.0  0.03350  0.59220  0.03187  1.0000 0.1791905715
C   C10       1.0  0.44130  0.03350  0.53187  1.0000 0.1791905715
C   C11       1.0  0.40780  0.44130  0.03187  1.0000 0.1791905715
C   C12       1.0  0.96650  0.40780  0.53187  1.0000 0.1791905715
C   C13       1.0  0.96650  0.55870  0.53187  1.0000 0.1791905715
C   C14       1.0  0.40780  0.96650  0.03187  1.0000 0.1791905715
C   C15       1.0  0.44130  0.40780  0.53187  1.0000 0.1791905715
C   C16       1.0  0.03350  0.44130  0.03187  1.0000 0.1791905715
C   C17       1.0  0.59220  0.03350  0.53187  1.0000 0.1791905715
C   C18       1.0  0.55870  0.59220  0.03187  1.0000 0.1791905715
C   C19       1.0  0.44130  0.03350  0.96813  1.0000 0.1791905715
C   C20       1.0  0.40780  0.44130  0.46813  1.0000 0.1791905715
C   C21       1.0  0.96650  0.40780  0.96813  1.0000 0.1791905715
C   C22       1.0  0.55870  0.96650  0.46813  1.0000 0.1791905715
C   C23       1.0  0.59220  0.55870  0.96813  1.0000 0.1791905715
C   C24       1.0  0.03350  0.59220  0.46813  1.0000 0.1791905715
C   C25       1.0  0.06920  0.53460  0.43550  1.0000 -0.2913104596
C   C26       1.0  0.53460  0.06920  0.93550  1.0000 -0.2913104596
C   C27       1.0  0.46540  0.53460  0.43550  1.0000 -0.2913104596
C   C28       1.0  0.93080  0.46540  0.93550  1.0000 -0.2913104596
C   C29       1.0  0.46540  0.93080  0.43550  1.0000 -0.2913104596
C   C30       1.0  0.53460  0.46540  0.93550  1.0000 -0.2913104596
C   C31       1.0  0.46540  0.93080  0.06450  1.0000 -0.2913104596
C   C32       1.0  0.53460  0.46540  0.56450  1.0000 -0.2913104596
C   C33       1.0  0.06920  0.53460  0.06450  1.0000 -0.2913104596
C   C34       1.0  0.53460  0.06920  0.56450  1.0000 -0.2913104596
C   C35       1.0  0.46540  0.53460  0.06450  1.0000 -0.2913104596
C   C36       1.0  0.93080  0.46540  0.56450  1.0000 -0.2913104596
C   C37       1.0  0.14110  0.57055  0.36750  1.0000 0.6661446713
C   C38       1.0  0.57055  0.14110  0.86750  1.0000 0.6661446713
C   C39       1.0  0.42945  0.57055  0.36750  1.0000 0.6661446713
C   C40       1.0  0.85890  0.42945  0.86750  1.0000 0.6661446713
C   C41       1.0  0.42945  0.85890  0.36750  1.0000 0.6661446713
C   C42       1.0  0.57055  0.42945  0.86750  1.0000 0.6661446713
C   C43       1.0  0.42945  0.85890  0.13250  1.0000 0.6661446713
C   C44       1.0  0.57055  0.42945  0.63250  1.0000 0.6661446713
C   C45       1.0  0.14110  0.57055  0.13250  1.0000 0.6661446713
C   C46       1.0  0.57055  0.14110  0.63250  1.0000 0.6661446713
C   C47       1.0  0.42945  0.57055  0.13250  1.0000 0.6661446713
C   C48       1.0  0.85890  0.42945  0.63250  1.0000 0.6661446713
O   O1        1.0  0.33333  0.66667  0.25000  1.0000 -1.055105525
O   O2        1.0  0.66667  0.33333  0.75000  1.0000 -1.0542566356
O   O3        1.0  0.16989  0.51547  0.34002  1.0000 -0.6131735918
O   O4        1.0  0.65442  0.16989  0.84002  1.0000 -0.6131735918
O   O5        1.0  0.48453  0.65442  0.34002  1.0000 -0.6131735918
O   O6        1.0  0.83011  0.48453  0.84002  1.0000 -0.6131735918
O   O7        1.0  0.34558  0.83011  0.34002  1.0000 -0.6131735918
O   O8        1.0  0.51547  0.34558  0.84002  1.0000 -0.6131735918
O   O9        1.0  0.48453  0.83011  0.15998  1.0000 -0.6131735918
O   O10       1.0  0.65442  0.48453  0.65998  1.0000 -0.6131735918
O   O11       1.0  0.16989  0.65442  0.15998  1.0000 -0.6131735918
O   O12       1.0  0.51547  0.16989  0.65998  1.0000 -0.6131735918
O   O13       1.0  0.34558  0.51547  0.15998  1.0000 -0.6131735918
O   O14       1.0  0.83011  0.34558  0.65998  1.0000 -0.6131735918
O   O15       1.0  0.83011  0.48453  0.65998  1.0000 -0.6131735918
O   O16       1.0  0.34558  0.83011  0.15998  1.0000 -0.6131735918
O   O17       1.0  0.51547  0.34558  0.65998  1.0000 -0.6131735918
O   O18       1.0  0.16989  0.51547  0.15998  1.0000 -0.6131735918
O   O19       1.0  0.65442  0.16989  0.65998  1.0000 -0.6131735918
O   O20       1.0  0.48453  0.65442  0.15998  1.0000 -0.6131735918
O   O21       1.0  0.51547  0.16989  0.84002  1.0000 -0.6131735918
O   O22       1.0  0.34558  0.51547  0.34002  1.0000 -0.6131735918
O   O23       1.0  0.83011  0.34558  0.84002  1.0000 -0.6131735918
O   O24       1.0  0.48453  0.83011  0.34002  1.0000 -0.6131735918
O   O25       1.0  0.65442  0.48453  0.84002  1.0000 -0.6131735918
O   O26       1.0  0.16989  0.65442  0.34002  1.0000 -0.6131735918
O   O27       1.0  0.05460  0.37560  0.43650  1.0000 -0.3741517392
O   O28       1.0  0.67900  0.05460  0.93650  1.0000 -0.3753685531
O   O29       1.0  0.62440  0.67900  0.43650  1.0000 -0.3741517392
O   O30       1.0  0.94540  0.62440  0.93650  1.0000 -0.3741517392
O   O31       1.0  0.32100  0.94540  0.43650  1.0000 -0.3753685531
O   O32       1.0  0.37560  0.32100  0.93650  1.0000 -0.3741517392
O   O33       1.0  0.62440  0.94540  0.06350  1.0000 -0.3741517392
O   O34       1.0  0.67900  0.62440  0.56350  1.0000 -0.3741517392
O   O35       1.0  0.05460  0.67900  0.06350  1.0000 -0.3741517392
O   O36       1.0  0.37560  0.05460  0.56350  1.0000 -0.3741517392
O   O37       1.0  0.32100  0.37560  0.06350  1.0000 -0.3741517392
O   O38       1.0  0.94540  0.32100  0.56350  1.0000 -0.3741517392
O   O39       1.0  0.94540  0.62440  0.56350  1.0000 -0.3741517392
O   O40       1.0  0.32100  0.94540  0.06350  1.0000 -0.3753685531
O   O41       1.0  0.37560  0.32100  0.56350  1.0000 -0.3741517392
O   O42       1.0  0.05460  0.37560  0.06350  1.0000 -0.3741517392
O   O43       1.0  0.67900  0.05460  0.56350  1.0000 -0.3741517392
O   O44       1.0  0.62440  0.67900  0.06350  1.0000 -0.3741517392
O   O45       1.0  0.37560  0.05460  0.93650  1.0000 -0.3741517392
O   O46       1.0  0.32100  0.37560  0.43650  1.0000 -0.3741517392
O   O47       1.0  0.94540  0.32100  0.93650  1.0000 -0.3741517392
O   O48       1.0  0.62440  0.94540  0.43650  1.0000 -0.3741517392
O   O49       1.0  0.67900  0.62440  0.93650  1.0000 -0.3741517392
O   O50       1.0  0.05460  0.67900  0.43650  1.0000 -0.3753685531
