# DDEC6 charges by PACMAN v1.1 (https://github.com/mtap-research/PACMAN-charge/)
data_2016[Cu][nbo]3[ASR]56
_chemical_formula_sum              "Cu6 H90 C132 O30"
_cell_length_a       21.4788
_cell_length_b       21.4788
_cell_length_c       21.4788
_cell_angle_alpha    110.745
_cell_angle_beta     110.745
_cell_angle_gamma    110.745

_symmetry_space_group_name_H-M    "P 1"
_symmetry_Int_Tables_number       1

loop_
  _symmetry_equiv_pos_as_xyz
  'x, y, z'

loop_
  _atom_site_type_symbol
  _atom_site_label
  _atom_site_symmetry_multiplicity
  _atom_site_fract_x
  _atom_site_fract_y
  _atom_site_fract_z
  _atom_site_occupancy
  _atom_site_charge
Cu  Cu1       1.0  0.55451  0.55451  0.07591  1.0000 0.8598558193
Cu  Cu2       1.0  0.55451  0.07591  0.55451  1.0000 0.8598558193
Cu  Cu3       1.0  0.07591  0.55451  0.55451  1.0000 0.8598558193
Cu  Cu4       1.0  0.44549  0.44549  0.92409  1.0000 0.8598558193
Cu  Cu5       1.0  0.92409  0.44549  0.44549  1.0000 0.8598558193
Cu  Cu6       1.0  0.44549  0.92409  0.44549  1.0000 0.8598558193
H   H1        1.0  0.57510  0.40260  0.15980  1.0000 0.1260940914
H   H2        1.0  0.40260  0.15980  0.57510  1.0000 0.1260940914
H   H3        1.0  0.15980  0.57510  0.40260  1.0000 0.1260940914
H   H4        1.0  0.59740  0.42490  0.84020  1.0000 0.1260940914
H   H5        1.0  0.84020  0.59740  0.42490  1.0000 0.1260940914
H   H6        1.0  0.42490  0.84020  0.59740  1.0000 0.1260940914
H   H7        1.0  0.42490  0.59740  0.84020  1.0000 0.1260940914
H   H8        1.0  0.59740  0.84020  0.42490  1.0000 0.1260940914
H   H9        1.0  0.84020  0.42490  0.59740  1.0000 0.1260940914
H   H10       1.0  0.40260  0.57510  0.15980  1.0000 0.1260940914
H   H11       1.0  0.15980  0.40260  0.57510  1.0000 0.1260940914
H   H12       1.0  0.57510  0.15980  0.40260  1.0000 0.1260940914
H   H13       1.0  0.57200  0.30280  0.18140  1.0000 0.1238442843
H   H14       1.0  0.30280  0.18140  0.57200  1.0000 0.1238442843
H   H15       1.0  0.18140  0.57200  0.30280  1.0000 0.1238442843
H   H16       1.0  0.69720  0.42800  0.81860  1.0000 0.1238442843
H   H17       1.0  0.81860  0.69720  0.42800  1.0000 0.1238442843
H   H18       1.0  0.42800  0.81860  0.69720  1.0000 0.1238442843
H   H19       1.0  0.42800  0.69720  0.81860  1.0000 0.1238442843
H   H20       1.0  0.69720  0.81860  0.42800  1.0000 0.1238442843
H   H21       1.0  0.81860  0.42800  0.69720  1.0000 0.1238442843
H   H22       1.0  0.30280  0.57200  0.18140  1.0000 0.1238442843
H   H23       1.0  0.18140  0.30280  0.57200  1.0000 0.1238442843
H   H24       1.0  0.57200  0.18140  0.30280  1.0000 0.1238442843
H   H25       1.0  0.39970  0.13510  0.94810  1.0000 0.1120955477
H   H26       1.0  0.13510  0.94810  0.39970  1.0000 0.1120955477
H   H27       1.0  0.94810  0.39970  0.13510  1.0000 0.1120955477
H   H28       1.0  0.86490  0.60030  0.05190  1.0000 0.1120955477
H   H29       1.0  0.05190  0.86490  0.60030  1.0000 0.1120955477
H   H30       1.0  0.60030  0.05190  0.86490  1.0000 0.1120955477
H   H31       1.0  0.60030  0.86490  0.05190  1.0000 0.1120955477
H   H32       1.0  0.86490  0.05190  0.60030  1.0000 0.1120955477
H   H33       1.0  0.05190  0.60030  0.86490  1.0000 0.1120955477
H   H34       1.0  0.13510  0.39970  0.94810  1.0000 0.1120955477
H   H35       1.0  0.94810  0.13510  0.39970  1.0000 0.1120955477
H   H36       1.0  0.39970  0.94810  0.13510  1.0000 0.1120955477
H   H37       1.0  0.40730  0.23800  0.92700  1.0000 0.1260940914
H   H38       1.0  0.23800  0.92700  0.40730  1.0000 0.1260940914
H   H39       1.0  0.92700  0.40730  0.23800  1.0000 0.1260940914
H   H40       1.0  0.76200  0.59270  0.07300  1.0000 0.1260940914
H   H41       1.0  0.07300  0.76200  0.59270  1.0000 0.1260940914
H   H42       1.0  0.59270  0.07300  0.76200  1.0000 0.1260940914
H   H43       1.0  0.59270  0.76200  0.07300  1.0000 0.1260940914
H   H44       1.0  0.76200  0.07300  0.59270  1.0000 0.1260940914
H   H45       1.0  0.07300  0.59270  0.76200  1.0000 0.1260940914
H   H46       1.0  0.23800  0.40730  0.92700  1.0000 0.1260940914
H   H47       1.0  0.92700  0.23800  0.40730  1.0000 0.1260940914
H   H48       1.0  0.40730  0.92700  0.23800  1.0000 0.1260940914
H   H49       1.0  0.49040  0.09240  0.97870  1.0000 0.1120955477
H   H50       1.0  0.09240  0.97870  0.49040  1.0000 0.1120955477
H   H51       1.0  0.97870  0.49040  0.09240  1.0000 0.1120955477
H   H52       1.0  0.90760  0.50960  0.02130  1.0000 0.1120955477
H   H53       1.0  0.02130  0.90760  0.50960  1.0000 0.1120955477
H   H54       1.0  0.50960  0.02130  0.90760  1.0000 0.1120955477
H   H55       1.0  0.50960  0.90760  0.02130  1.0000 0.1120955477
H   H56       1.0  0.90760  0.02130  0.50960  1.0000 0.1120955477
H   H57       1.0  0.02130  0.50960  0.90760  1.0000 0.1120955477
H   H58       1.0  0.09240  0.49040  0.97870  1.0000 0.1120955477
H   H59       1.0  0.97870  0.09240  0.49040  1.0000 0.1120955477
H   H60       1.0  0.49040  0.97870  0.09240  1.0000 0.1120955477
H   H61       1.0  0.38090  0.17040  0.12480  1.0000 0.0699122111
H   H62       1.0  0.17040  0.12480  0.38090  1.0000 0.0699122111
H   H63       1.0  0.12480  0.38090  0.17040  1.0000 0.0699122111
H   H64       1.0  0.82960  0.61910  0.87520  1.0000 0.0699122111
H   H65       1.0  0.87520  0.82960  0.61910  1.0000 0.0699122111
H   H66       1.0  0.61910  0.87520  0.82960  1.0000 0.0699122111
H   H67       1.0  0.61910  0.82960  0.87520  1.0000 0.0699122111
H   H68       1.0  0.82960  0.87520  0.61910  1.0000 0.0699122111
H   H69       1.0  0.87520  0.61910  0.82960  1.0000 0.0699122111
H   H70       1.0  0.17040  0.38090  0.12480  1.0000 0.0699122111
H   H71       1.0  0.12480  0.17040  0.38090  1.0000 0.0699122111
H   H72       1.0  0.38090  0.12480  0.17040  1.0000 0.0699122111
H   H73       1.0  0.37060  0.23480  0.23480  1.0000 0.1120955477
H   H74       1.0  0.23480  0.23480  0.37060  1.0000 0.1120955477
H   H75       1.0  0.23480  0.37060  0.23480  1.0000 0.1120955477
H   H76       1.0  0.76520  0.62940  0.76520  1.0000 0.1120955477
H   H77       1.0  0.76520  0.76520  0.62940  1.0000 0.1120955477
H   H78       1.0  0.62940  0.76520  0.76520  1.0000 0.1120955477
H   H79       1.0  0.45230  0.29490  0.24960  1.0000 0.1120955477
H   H80       1.0  0.29490  0.24960  0.45230  1.0000 0.1120955477
H   H81       1.0  0.24960  0.45230  0.29490  1.0000 0.1120955477
H   H82       1.0  0.70510  0.54770  0.75040  1.0000 0.1120955477
H   H83       1.0  0.75040  0.70510  0.54770  1.0000 0.1120955477
H   H84       1.0  0.54770  0.75040  0.70510  1.0000 0.1120955477
H   H85       1.0  0.54770  0.70510  0.75040  1.0000 0.1120955477
H   H86       1.0  0.70510  0.75040  0.54770  1.0000 0.1120955477
H   H87       1.0  0.75040  0.54770  0.70510  1.0000 0.1120955477
H   H88       1.0  0.29490  0.45230  0.24960  1.0000 0.1120955477
H   H89       1.0  0.24960  0.29490  0.45230  1.0000 0.1120955477
H   H90       1.0  0.45230  0.24960  0.29490  1.0000 0.1120955477
C   C1        1.0  0.49343  0.39270  0.02475  1.0000 0.583530057
C   C2        1.0  0.39270  0.02475  0.49343  1.0000 0.583530057
C   C3        1.0  0.02475  0.49343  0.39270  1.0000 0.583530057
C   C4        1.0  0.60730  0.50657  0.97525  1.0000 0.583530057
C   C5        1.0  0.97525  0.60730  0.50657  1.0000 0.583530057
C   C6        1.0  0.50657  0.97525  0.60730  1.0000 0.583530057
C   C7        1.0  0.50657  0.60730  0.97525  1.0000 0.583530057
C   C8        1.0  0.60730  0.97525  0.50657  1.0000 0.583530057
C   C9        1.0  0.97525  0.50657  0.60730  1.0000 0.583530057
C   C10       1.0  0.39270  0.49343  0.02475  1.0000 0.583530057
C   C11       1.0  0.02475  0.39270  0.49343  1.0000 0.583530057
C   C12       1.0  0.49343  0.02475  0.39270  1.0000 0.583530057
C   C13       1.0  0.49137  0.32925  0.04064  1.0000 -0.0279498817
C   C14       1.0  0.32925  0.04064  0.49137  1.0000 -0.0279498817
C   C15       1.0  0.04064  0.49137  0.32925  1.0000 -0.0279498817
C   C16       1.0  0.67075  0.50863  0.95936  1.0000 -0.0279498817
C   C17       1.0  0.95936  0.67075  0.50863  1.0000 -0.0279498817
C   C18       1.0  0.50863  0.95936  0.67075  1.0000 -0.0279498817
C   C19       1.0  0.50863  0.67075  0.95936  1.0000 -0.0279498817
C   C20       1.0  0.67075  0.95936  0.50863  1.0000 -0.0279498817
C   C21       1.0  0.95936  0.50863  0.67075  1.0000 -0.0279498817
C   C22       1.0  0.32925  0.49137  0.04064  1.0000 -0.0279498817
C   C23       1.0  0.04064  0.32925  0.49137  1.0000 -0.0279498817
C   C24       1.0  0.49137  0.04064  0.32925  1.0000 -0.0279498817
C   C25       1.0  0.54041  0.34853  0.11638  1.0000 -0.0877335248
C   C26       1.0  0.34853  0.11638  0.54041  1.0000 -0.0877335248
C   C27       1.0  0.11638  0.54041  0.34853  1.0000 -0.0877335248
C   C28       1.0  0.65147  0.45959  0.88362  1.0000 -0.0877335248
C   C29       1.0  0.88362  0.65147  0.45959  1.0000 -0.0877335248
C   C30       1.0  0.45959  0.88362  0.65147  1.0000 -0.0877335248
C   C31       1.0  0.45959  0.65147  0.88362  1.0000 -0.0877335248
C   C32       1.0  0.65147  0.88362  0.45959  1.0000 -0.0877335248
C   C33       1.0  0.88362  0.45959  0.65147  1.0000 -0.0877335248
C   C34       1.0  0.34853  0.54041  0.11638  1.0000 -0.0877335248
C   C35       1.0  0.11638  0.34853  0.54041  1.0000 -0.0877335248
C   C36       1.0  0.54041  0.11638  0.34853  1.0000 -0.0877335248
C   C37       1.0  0.53906  0.28890  0.12906  1.0000 -0.1386985794
C   C38       1.0  0.28890  0.12906  0.53906  1.0000 -0.1386985794
C   C39       1.0  0.12906  0.53906  0.28890  1.0000 -0.1386985794
C   C40       1.0  0.71110  0.46094  0.87094  1.0000 -0.1386985794
C   C41       1.0  0.87094  0.71110  0.46094  1.0000 -0.1386985794
C   C42       1.0  0.46094  0.87094  0.71110  1.0000 -0.1386985794
C   C43       1.0  0.46094  0.71110  0.87094  1.0000 -0.1386985794
C   C44       1.0  0.71110  0.87094  0.46094  1.0000 -0.1386985794
C   C45       1.0  0.87094  0.46094  0.71110  1.0000 -0.1386985794
C   C46       1.0  0.28890  0.53906  0.12906  1.0000 -0.1386985794
C   C47       1.0  0.12906  0.28890  0.53906  1.0000 -0.1386985794
C   C48       1.0  0.53906  0.12906  0.28890  1.0000 -0.1386985794
C   C49       1.0  0.49207  0.21252  0.06880  1.0000 0.0851835494
C   C50       1.0  0.21252  0.06880  0.49207  1.0000 0.0851835494
C   C51       1.0  0.06880  0.49207  0.21252  1.0000 0.0851835494
C   C52       1.0  0.78748  0.50793  0.93120  1.0000 0.0851835494
C   C53       1.0  0.93120  0.78748  0.50793  1.0000 0.0851835494
C   C54       1.0  0.50793  0.93120  0.78748  1.0000 0.0851835494
C   C55       1.0  0.50793  0.78748  0.93120  1.0000 0.0851835494
C   C56       1.0  0.78748  0.93120  0.50793  1.0000 0.0849886199
C   C57       1.0  0.93120  0.50793  0.78748  1.0000 0.0851835494
C   C58       1.0  0.21252  0.49207  0.06880  1.0000 0.0851835494
C   C59       1.0  0.06880  0.21252  0.49207  1.0000 0.0849886199
C   C60       1.0  0.49207  0.06880  0.21252  1.0000 0.0851835494
C   C61       1.0  0.43704  0.18953  0.99043  1.0000 -0.1684091975
C   C62       1.0  0.18953  0.99043  0.43704  1.0000 -0.1684091975
C   C63       1.0  0.99043  0.43704  0.18953  1.0000 -0.1684091975
C   C64       1.0  0.81047  0.56296  0.00957  1.0000 -0.1684091975
C   C65       1.0  0.00957  0.81047  0.56296  1.0000 -0.1684091975
C   C66       1.0  0.56296  0.00957  0.81047  1.0000 -0.1684091975
C   C67       1.0  0.56296  0.81047  0.00957  1.0000 -0.1684091975
C   C68       1.0  0.81047  0.00957  0.56296  1.0000 -0.1684091975
C   C69       1.0  0.00957  0.56296  0.81047  1.0000 -0.1684091975
C   C70       1.0  0.18953  0.43704  0.99043  1.0000 -0.1684091975
C   C71       1.0  0.99043  0.18953  0.43704  1.0000 -0.1684091975
C   C72       1.0  0.43704  0.99043  0.18953  1.0000 -0.1684091975
C   C73       1.0  0.44067  0.25100  0.97873  1.0000 -0.0877335248
C   C74       1.0  0.25100  0.97873  0.44067  1.0000 -0.0877335248
C   C75       1.0  0.97873  0.44067  0.25100  1.0000 -0.0877335248
C   C76       1.0  0.74900  0.55933  0.02127  1.0000 -0.0877335248
C   C77       1.0  0.02127  0.74900  0.55933  1.0000 -0.0877335248
C   C78       1.0  0.55933  0.02127  0.74900  1.0000 -0.0877335248
C   C79       1.0  0.55933  0.74900  0.02127  1.0000 -0.0877335248
C   C80       1.0  0.74900  0.02127  0.55933  1.0000 -0.0877335248
C   C81       1.0  0.02127  0.55933  0.74900  1.0000 -0.0877335248
C   C82       1.0  0.25100  0.44067  0.97873  1.0000 -0.0877335248
C   C83       1.0  0.97873  0.25100  0.44067  1.0000 -0.0877335248
C   C84       1.0  0.44067  0.97873  0.25100  1.0000 -0.0877335248
C   C85       1.0  0.49395  0.14734  0.07861  1.0000 -0.014171466
C   C86       1.0  0.14734  0.07861  0.49395  1.0000 -0.014171466
C   C87       1.0  0.07861  0.49395  0.14734  1.0000 -0.014171466
C   C88       1.0  0.85266  0.50605  0.92139  1.0000 -0.014171466
C   C89       1.0  0.92139  0.85266  0.50605  1.0000 -0.014171466
C   C90       1.0  0.50605  0.92139  0.85266  1.0000 -0.014171466
C   C91       1.0  0.50605  0.85266  0.92139  1.0000 -0.014171466
C   C92       1.0  0.85266  0.92139  0.50605  1.0000 -0.014171466
C   C93       1.0  0.92139  0.50605  0.85266  1.0000 -0.014171466
C   C94       1.0  0.14734  0.49395  0.07861  1.0000 -0.014171466
C   C95       1.0  0.07861  0.14734  0.49395  1.0000 -0.014171466
C   C96       1.0  0.49395  0.07861  0.14734  1.0000 -0.014171466
C   C97       1.0  0.49294  0.08952  0.02254  1.0000 -0.1929394568
C   C98       1.0  0.08952  0.02254  0.49294  1.0000 -0.1929394568
C   C99       1.0  0.02254  0.49294  0.08952  1.0000 -0.1929394568
C   C100      1.0  0.91048  0.50706  0.97746  1.0000 -0.1929394568
C   C101      1.0  0.97746  0.91048  0.50706  1.0000 -0.1929394568
C   C102      1.0  0.50706  0.97746  0.91048  1.0000 -0.1929394568
C   C103      1.0  0.50706  0.91048  0.97746  1.0000 -0.1929394568
C   C104      1.0  0.91048  0.97746  0.50706  1.0000 -0.1929394568
C   C105      1.0  0.97746  0.50706  0.91048  1.0000 -0.1929394568
C   C106      1.0  0.08952  0.49294  0.02254  1.0000 -0.1929394568
C   C107      1.0  0.02254  0.08952  0.49294  1.0000 -0.1929394568
C   C108      1.0  0.49294  0.02254  0.08952  1.0000 -0.1929394568
C   C109      1.0  0.49548  0.02656  0.02656  1.0000 0.0699122111
C   C110      1.0  0.02656  0.02656  0.49548  1.0000 0.0699122111
C   C111      1.0  0.02656  0.49548  0.02656  1.0000 0.0699122111
C   C112      1.0  0.97344  0.50452  0.97344  1.0000 0.0699122111
C   C113      1.0  0.97344  0.97344  0.50452  1.0000 0.0699122111
C   C114      1.0  0.50452  0.97344  0.97344  1.0000 0.0699122111
C   C115      1.0  0.49340  0.14205  0.14205  1.0000 0.1698061262
C   C116      1.0  0.14205  0.14205  0.49340  1.0000 0.1698061262
C   C117      1.0  0.14205  0.49340  0.14205  1.0000 0.1698061262
C   C118      1.0  0.85795  0.50660  0.85795  1.0000 0.1698061262
C   C119      1.0  0.85795  0.85795  0.50660  1.0000 0.1698061262
C   C120      1.0  0.50660  0.85795  0.85795  1.0000 0.1698061262
C   C121      1.0  0.41050  0.17570  0.17570  1.0000 0.0145253276
C   C122      1.0  0.17570  0.17570  0.41050  1.0000 0.0145253276
C   C123      1.0  0.17570  0.41050  0.17570  1.0000 0.0145253276
C   C124      1.0  0.82430  0.58950  0.82430  1.0000 0.0152163559
C   C125      1.0  0.82430  0.82430  0.58950  1.0000 0.0152163559
C   C126      1.0  0.58950  0.82430  0.82430  1.0000 0.0145253276
C   C127      1.0  0.42254  0.24513  0.24513  1.0000 -0.3915472642
C   C128      1.0  0.24513  0.24513  0.42254  1.0000 -0.3915472642
C   C129      1.0  0.24513  0.42254  0.24513  1.0000 -0.3915472642
C   C130      1.0  0.75487  0.57746  0.75487  1.0000 -0.3915472642
C   C131      1.0  0.75487  0.75487  0.57746  1.0000 -0.3915472642
C   C132      1.0  0.57746  0.75487  0.75487  1.0000 -0.3915472642
O   O1        1.0  0.44895  0.37095  0.95490  1.0000 -0.5093582933
O   O2        1.0  0.37095  0.95490  0.44895  1.0000 -0.5093582933
O   O3        1.0  0.95490  0.44895  0.37095  1.0000 -0.5093582933
O   O4        1.0  0.62905  0.55105  0.04510  1.0000 -0.5093582933
O   O5        1.0  0.04510  0.62905  0.55105  1.0000 -0.5093582933
O   O6        1.0  0.55105  0.04510  0.62905  1.0000 -0.5093582933
O   O7        1.0  0.55105  0.62905  0.04510  1.0000 -0.5093582933
O   O8        1.0  0.62905  0.04510  0.55105  1.0000 -0.5093582933
O   O9        1.0  0.04510  0.55105  0.62905  1.0000 -0.5093582933
O   O10       1.0  0.37095  0.44895  0.95490  1.0000 -0.5093582933
O   O11       1.0  0.95490  0.37095  0.44895  1.0000 -0.5093582933
O   O12       1.0  0.44895  0.95490  0.37095  1.0000 -0.5093582933
O   O13       1.0  0.54186  0.46377  0.08489  1.0000 -0.52655173
O   O14       1.0  0.46377  0.08489  0.54186  1.0000 -0.52655173
O   O15       1.0  0.08489  0.54186  0.46377  1.0000 -0.52655173
O   O16       1.0  0.53623  0.45814  0.91511  1.0000 -0.52655173
O   O17       1.0  0.91511  0.53623  0.45814  1.0000 -0.52655173
O   O18       1.0  0.45814  0.91511  0.53623  1.0000 -0.52655173
O   O19       1.0  0.45814  0.53623  0.91511  1.0000 -0.52655173
O   O20       1.0  0.53623  0.91511  0.45814  1.0000 -0.52655173
O   O21       1.0  0.91511  0.45814  0.53623  1.0000 -0.52655173
O   O22       1.0  0.46377  0.54186  0.08489  1.0000 -0.52655173
O   O23       1.0  0.08489  0.46377  0.54186  1.0000 -0.52655173
O   O24       1.0  0.54186  0.08489  0.46377  1.0000 -0.52655173
O   O25       1.0  0.48984  0.19678  0.19678  1.0000 -0.2296116814
O   O26       1.0  0.19678  0.19678  0.48984  1.0000 -0.2296116814
O   O27       1.0  0.19678  0.48984  0.19678  1.0000 -0.2296116814
O   O28       1.0  0.80322  0.51016  0.80322  1.0000 -0.2296116814
O   O29       1.0  0.80322  0.80322  0.51016  1.0000 -0.2296116814
O   O30       1.0  0.51016  0.80322  0.80322  1.0000 -0.2296116814
