# DDEC6 charges by PACMAN v1.1 (https://github.com/mtap-research/PACMAN-charge/)
data_2016[Co][the]3[ASR]2
_chemical_formula_sum              "Co24 H96 C192 N144 Cl6"
_cell_length_a       26.2144
_cell_length_b       26.2144
_cell_length_c       26.2144
_cell_angle_alpha    60
_cell_angle_beta     60
_cell_angle_gamma    60

_symmetry_space_group_name_H-M    "P 1"
_symmetry_Int_Tables_number       1

loop_
  _symmetry_equiv_pos_as_xyz
  'x, y, z'

loop_
  _atom_site_type_symbol
  _atom_site_label
  _atom_site_symmetry_multiplicity
  _atom_site_fract_x
  _atom_site_fract_y
  _atom_site_fract_z
  _atom_site_occupancy
  _atom_site_charge
Co  Co1       1.0  0.56864  0.43136  0.93732  1.0000 0.5518786974
Co  Co2       1.0  0.43136  0.56864  0.06268  1.0000 0.5518786974
Co  Co3       1.0  0.93732  0.06268  0.56864  1.0000 0.5518786974
Co  Co4       1.0  0.06268  0.93732  0.43136  1.0000 0.5518786974
Co  Co5       1.0  0.93732  0.56864  0.43136  1.0000 0.5518786974
Co  Co6       1.0  0.06268  0.43136  0.56864  1.0000 0.5518786974
Co  Co7       1.0  0.56864  0.93732  0.06268  1.0000 0.5518786974
Co  Co8       1.0  0.43136  0.06268  0.93732  1.0000 0.5518786974
Co  Co9       1.0  0.43136  0.93732  0.56864  1.0000 0.5518786974
Co  Co10      1.0  0.56864  0.06268  0.43136  1.0000 0.5518786974
Co  Co11      1.0  0.06268  0.56864  0.93732  1.0000 0.5518786974
Co  Co12      1.0  0.93732  0.43136  0.06268  1.0000 0.5518786974
Co  Co13      1.0  0.93136  0.06864  0.43732  1.0000 0.5518786974
Co  Co14      1.0  0.06864  0.93136  0.56268  1.0000 0.5518786974
Co  Co15      1.0  0.56268  0.43732  0.06864  1.0000 0.5518786974
Co  Co16      1.0  0.43732  0.56268  0.93136  1.0000 0.5518786974
Co  Co17      1.0  0.56268  0.93136  0.43732  1.0000 0.5518786974
Co  Co18      1.0  0.43732  0.06864  0.56268  1.0000 0.5518786974
Co  Co19      1.0  0.93136  0.56268  0.06864  1.0000 0.5518786974
Co  Co20      1.0  0.06864  0.43732  0.93136  1.0000 0.5518786974
Co  Co21      1.0  0.06864  0.56268  0.43732  1.0000 0.5518786974
Co  Co22      1.0  0.93136  0.43732  0.56268  1.0000 0.5518786974
Co  Co23      1.0  0.43732  0.93136  0.06864  1.0000 0.5518786974
Co  Co24      1.0  0.56268  0.06864  0.93136  1.0000 0.5518786974
H   H1        1.0  0.50840  0.34740  0.93900  1.0000 0.1321427373
H   H2        1.0  0.34740  0.50840  0.20520  1.0000 0.1321427373
H   H3        1.0  0.93900  0.20520  0.50840  1.0000 0.1321427373
H   H4        1.0  0.20520  0.93900  0.34740  1.0000 0.1321427373
H   H5        1.0  0.93900  0.50840  0.34740  1.0000 0.1321427373
H   H6        1.0  0.20520  0.34740  0.50840  1.0000 0.1321427373
H   H7        1.0  0.50840  0.93900  0.20520  1.0000 0.1321427373
H   H8        1.0  0.34740  0.20520  0.93900  1.0000 0.1321427373
H   H9        1.0  0.34740  0.93900  0.50840  1.0000 0.1321427373
H   H10       1.0  0.50840  0.20520  0.34740  1.0000 0.1321427373
H   H11       1.0  0.20520  0.50840  0.93900  1.0000 0.1321427373
H   H12       1.0  0.93900  0.34740  0.20520  1.0000 0.1321427373
H   H13       1.0  0.99160  0.15260  0.29480  1.0000 0.1321427373
H   H14       1.0  0.15260  0.99160  0.56100  1.0000 0.1321427373
H   H15       1.0  0.56100  0.29480  0.15260  1.0000 0.1321427373
H   H16       1.0  0.29480  0.56100  0.99160  1.0000 0.1321427373
H   H17       1.0  0.56100  0.99160  0.29480  1.0000 0.1321427373
H   H18       1.0  0.29480  0.15260  0.56100  1.0000 0.1321427373
H   H19       1.0  0.99160  0.56100  0.15260  1.0000 0.1321427373
H   H20       1.0  0.15260  0.29480  0.99160  1.0000 0.1321427373
H   H21       1.0  0.15260  0.56100  0.29480  1.0000 0.1321427373
H   H22       1.0  0.99160  0.29480  0.56100  1.0000 0.1321427373
H   H23       1.0  0.29480  0.99160  0.15260  1.0000 0.1321427373
H   H24       1.0  0.56100  0.15260  0.99160  1.0000 0.1321427373
H   H25       1.0  0.49160  0.65260  0.06100  1.0000 0.1321427373
H   H26       1.0  0.65260  0.49160  0.79480  1.0000 0.1321427373
H   H27       1.0  0.06100  0.79480  0.49160  1.0000 0.1321427373
H   H28       1.0  0.79480  0.06100  0.65260  1.0000 0.1321427373
H   H29       1.0  0.06100  0.49160  0.65260  1.0000 0.1321427373
H   H30       1.0  0.79480  0.65260  0.49160  1.0000 0.1321427373
H   H31       1.0  0.49160  0.06100  0.79480  1.0000 0.1321427373
H   H32       1.0  0.65260  0.79480  0.06100  1.0000 0.1321427373
H   H33       1.0  0.65260  0.06100  0.49160  1.0000 0.1321427373
H   H34       1.0  0.49160  0.79480  0.65260  1.0000 0.1321427373
H   H35       1.0  0.79480  0.49160  0.06100  1.0000 0.1321427373
H   H36       1.0  0.06100  0.65260  0.79480  1.0000 0.1321427373
H   H37       1.0  0.00840  0.84740  0.70520  1.0000 0.1321427373
H   H38       1.0  0.84740  0.00840  0.43900  1.0000 0.1321427373
H   H39       1.0  0.43900  0.70520  0.84740  1.0000 0.1321427373
H   H40       1.0  0.70520  0.43900  0.00840  1.0000 0.1321427373
H   H41       1.0  0.43900  0.00840  0.70520  1.0000 0.1321427373
H   H42       1.0  0.70520  0.84740  0.43900  1.0000 0.1321427373
H   H43       1.0  0.00840  0.43900  0.84740  1.0000 0.1321427373
H   H44       1.0  0.84740  0.70520  0.00840  1.0000 0.1321427373
H   H45       1.0  0.84740  0.43900  0.70520  1.0000 0.1321427373
H   H46       1.0  0.00840  0.70520  0.43900  1.0000 0.1321427373
H   H47       1.0  0.70520  0.00840  0.84740  1.0000 0.1321427373
H   H48       1.0  0.43900  0.84740  0.00840  1.0000 0.1321427373
H   H49       1.0  0.30600  0.45640  0.93920  1.0000 0.1166569328
H   H50       1.0  0.45640  0.30600  0.29840  1.0000 0.1166569328
H   H51       1.0  0.93920  0.29840  0.30600  1.0000 0.1166569328
H   H52       1.0  0.29840  0.93920  0.45640  1.0000 0.1166569328
H   H53       1.0  0.93920  0.30600  0.45640  1.0000 0.1166569328
H   H54       1.0  0.29840  0.45640  0.30600  1.0000 0.1166569328
H   H55       1.0  0.30600  0.93920  0.29840  1.0000 0.1166569328
H   H56       1.0  0.45640  0.29840  0.93920  1.0000 0.1166569328
H   H57       1.0  0.45640  0.93920  0.30600  1.0000 0.1166569328
H   H58       1.0  0.30600  0.29840  0.45640  1.0000 0.1166569328
H   H59       1.0  0.29840  0.30600  0.93920  1.0000 0.1166569328
H   H60       1.0  0.93920  0.45640  0.29840  1.0000 0.1166569328
H   H61       1.0  0.19400  0.04360  0.20160  1.0000 0.1166569328
H   H62       1.0  0.04360  0.19400  0.56080  1.0000 0.1166569328
H   H63       1.0  0.56080  0.20160  0.04360  1.0000 0.1166569328
H   H64       1.0  0.20160  0.56080  0.19400  1.0000 0.1166569328
H   H65       1.0  0.56080  0.19400  0.20160  1.0000 0.1166569328
H   H66       1.0  0.20160  0.04360  0.56080  1.0000 0.1166569328
H   H67       1.0  0.19400  0.56080  0.04360  1.0000 0.1166569328
H   H68       1.0  0.04360  0.20160  0.19400  1.0000 0.1166569328
H   H69       1.0  0.04360  0.56080  0.20160  1.0000 0.1166569328
H   H70       1.0  0.19400  0.20160  0.56080  1.0000 0.1166569328
H   H71       1.0  0.20160  0.19400  0.04360  1.0000 0.1166569328
H   H72       1.0  0.56080  0.04360  0.19400  1.0000 0.1166569328
H   H73       1.0  0.69400  0.54360  0.06080  1.0000 0.1166569328
H   H74       1.0  0.54360  0.69400  0.70160  1.0000 0.1166569328
H   H75       1.0  0.06080  0.70160  0.69400  1.0000 0.1166569328
H   H76       1.0  0.70160  0.06080  0.54360  1.0000 0.1166569328
H   H77       1.0  0.06080  0.69400  0.54360  1.0000 0.1166569328
H   H78       1.0  0.70160  0.54360  0.69400  1.0000 0.1166569328
H   H79       1.0  0.69400  0.06080  0.70160  1.0000 0.1166569328
H   H80       1.0  0.54360  0.70160  0.06080  1.0000 0.1166569328
H   H81       1.0  0.54360  0.06080  0.69400  1.0000 0.1166569328
H   H82       1.0  0.69400  0.70160  0.54360  1.0000 0.1166569328
H   H83       1.0  0.70160  0.69400  0.06080  1.0000 0.1166569328
H   H84       1.0  0.06080  0.54360  0.70160  1.0000 0.1166569328
H   H85       1.0  0.80600  0.95640  0.79840  1.0000 0.1166569328
H   H86       1.0  0.95640  0.80600  0.43920  1.0000 0.1166569328
H   H87       1.0  0.43920  0.79840  0.95640  1.0000 0.1166569328
H   H88       1.0  0.79840  0.43920  0.80600  1.0000 0.1166569328
H   H89       1.0  0.43920  0.80600  0.79840  1.0000 0.1166569328
H   H90       1.0  0.79840  0.95640  0.43920  1.0000 0.1166569328
H   H91       1.0  0.80600  0.43920  0.95640  1.0000 0.1166569328
H   H92       1.0  0.95640  0.79840  0.80600  1.0000 0.1166569328
H   H93       1.0  0.95640  0.43920  0.79840  1.0000 0.1166569328
H   H94       1.0  0.80600  0.79840  0.43920  1.0000 0.1166569328
H   H95       1.0  0.79840  0.80600  0.95640  1.0000 0.1166569328
H   H96       1.0  0.43920  0.95640  0.80600  1.0000 0.1166569328
C   C1        1.0  0.48075  0.38871  0.93809  1.0000 -0.0799610688
C   C2        1.0  0.38871  0.48075  0.19245  1.0000 -0.0799610688
C   C3        1.0  0.93809  0.19245  0.48075  1.0000 -0.0799610688
C   C4        1.0  0.19245  0.93809  0.38871  1.0000 -0.0799610688
C   C5        1.0  0.93809  0.48075  0.38871  1.0000 -0.0799610688
C   C6        1.0  0.19245  0.38871  0.48075  1.0000 -0.0799610688
C   C7        1.0  0.48075  0.93809  0.19245  1.0000 -0.0799610688
C   C8        1.0  0.38871  0.19245  0.93809  1.0000 -0.0799610688
C   C9        1.0  0.38871  0.93809  0.48075  1.0000 -0.0799610688
C   C10       1.0  0.48075  0.19245  0.38871  1.0000 -0.0799610688
C   C11       1.0  0.19245  0.48075  0.93809  1.0000 -0.0799610688
C   C12       1.0  0.93809  0.38871  0.19245  1.0000 -0.0799610688
C   C13       1.0  0.01925  0.11129  0.30755  1.0000 -0.0799610688
C   C14       1.0  0.11129  0.01925  0.56191  1.0000 -0.0799610688
C   C15       1.0  0.56191  0.30755  0.11129  1.0000 -0.0799610688
C   C16       1.0  0.30755  0.56191  0.01925  1.0000 -0.0799610688
C   C17       1.0  0.56191  0.01925  0.30755  1.0000 -0.0799610688
C   C18       1.0  0.30755  0.11129  0.56191  1.0000 -0.0799610688
C   C19       1.0  0.01925  0.56191  0.11129  1.0000 -0.0799610688
C   C20       1.0  0.11129  0.30755  0.01925  1.0000 -0.0799610688
C   C21       1.0  0.11129  0.56191  0.30755  1.0000 -0.0799610688
C   C22       1.0  0.01925  0.30755  0.56191  1.0000 -0.0799610688
C   C23       1.0  0.30755  0.01925  0.11129  1.0000 -0.0799610688
C   C24       1.0  0.56191  0.11129  0.01925  1.0000 -0.0799610688
C   C25       1.0  0.51925  0.61129  0.06191  1.0000 -0.0799610688
C   C26       1.0  0.61129  0.51925  0.80755  1.0000 -0.0799610688
C   C27       1.0  0.06191  0.80755  0.51925  1.0000 -0.0799610688
C   C28       1.0  0.80755  0.06191  0.61129  1.0000 -0.0799610688
C   C29       1.0  0.06191  0.51925  0.61129  1.0000 -0.0799610688
C   C30       1.0  0.80755  0.61129  0.51925  1.0000 -0.0799610688
C   C31       1.0  0.51925  0.06191  0.80755  1.0000 -0.0799610688
C   C32       1.0  0.61129  0.80755  0.06191  1.0000 -0.0799610688
C   C33       1.0  0.61129  0.06191  0.51925  1.0000 -0.0799610688
C   C34       1.0  0.51925  0.80755  0.61129  1.0000 -0.0799610688
C   C35       1.0  0.80755  0.51925  0.06191  1.0000 -0.0799610688
C   C36       1.0  0.06191  0.61129  0.80755  1.0000 -0.0799610688
C   C37       1.0  0.98075  0.88871  0.69245  1.0000 -0.0799610688
C   C38       1.0  0.88871  0.98075  0.43809  1.0000 -0.0799610688
C   C39       1.0  0.43809  0.69245  0.88871  1.0000 -0.0799610688
C   C40       1.0  0.69245  0.43809  0.98075  1.0000 -0.0799610688
C   C41       1.0  0.43809  0.98075  0.69245  1.0000 -0.0799610688
C   C42       1.0  0.69245  0.88871  0.43809  1.0000 -0.0799610688
C   C43       1.0  0.98075  0.43809  0.88871  1.0000 -0.0799610688
C   C44       1.0  0.88871  0.69245  0.98075  1.0000 -0.0799610688
C   C45       1.0  0.88871  0.43809  0.69245  1.0000 -0.0799610688
C   C46       1.0  0.98075  0.69245  0.43809  1.0000 -0.0799610688
C   C47       1.0  0.69245  0.98075  0.88871  1.0000 -0.0799610688
C   C48       1.0  0.43809  0.88871  0.98075  1.0000 -0.0799610688
C   C49       1.0  0.42194  0.41248  0.93786  1.0000 0.1033190878
C   C50       1.0  0.41248  0.42194  0.22772  1.0000 0.1033190878
C   C51       1.0  0.93786  0.22772  0.42194  1.0000 0.1033190878
C   C52       1.0  0.22772  0.93786  0.41248  1.0000 0.1033190878
C   C53       1.0  0.93786  0.42194  0.41248  1.0000 0.1033190878
C   C54       1.0  0.22772  0.41248  0.42194  1.0000 0.1033190878
C   C55       1.0  0.42194  0.93786  0.22772  1.0000 0.1033190878
C   C56       1.0  0.41248  0.22772  0.93786  1.0000 0.1033190878
C   C57       1.0  0.41248  0.93786  0.42194  1.0000 0.1033190878
C   C58       1.0  0.42194  0.22772  0.41248  1.0000 0.1033190878
C   C59       1.0  0.22772  0.42194  0.93786  1.0000 0.1033190878
C   C60       1.0  0.93786  0.41248  0.22772  1.0000 0.1033190878
C   C61       1.0  0.07806  0.08752  0.27228  1.0000 0.1033190878
C   C62       1.0  0.08752  0.07806  0.56214  1.0000 0.1033190878
C   C63       1.0  0.56214  0.27228  0.08752  1.0000 0.1033190878
C   C64       1.0  0.27228  0.56214  0.07806  1.0000 0.1033190878
C   C65       1.0  0.56214  0.07806  0.27228  1.0000 0.1033190878
C   C66       1.0  0.27228  0.08752  0.56214  1.0000 0.1033190878
C   C67       1.0  0.07806  0.56214  0.08752  1.0000 0.1033190878
C   C68       1.0  0.08752  0.27228  0.07806  1.0000 0.1033190878
C   C69       1.0  0.08752  0.56214  0.27228  1.0000 0.1033190878
C   C70       1.0  0.07806  0.27228  0.56214  1.0000 0.1033190878
C   C71       1.0  0.27228  0.07806  0.08752  1.0000 0.1033190878
C   C72       1.0  0.56214  0.08752  0.07806  1.0000 0.1033190878
C   C73       1.0  0.57806  0.58752  0.06214  1.0000 0.1033190878
C   C74       1.0  0.58752  0.57806  0.77228  1.0000 0.1033190878
C   C75       1.0  0.06214  0.77228  0.57806  1.0000 0.1033190878
C   C76       1.0  0.77228  0.06214  0.58752  1.0000 0.1033190878
C   C77       1.0  0.06214  0.57806  0.58752  1.0000 0.1033190878
C   C78       1.0  0.77228  0.58752  0.57806  1.0000 0.1033190878
C   C79       1.0  0.57806  0.06214  0.77228  1.0000 0.1033190878
C   C80       1.0  0.58752  0.77228  0.06214  1.0000 0.1033190878
C   C81       1.0  0.58752  0.06214  0.57806  1.0000 0.1033190878
C   C82       1.0  0.57806  0.77228  0.58752  1.0000 0.1033190878
C   C83       1.0  0.77228  0.57806  0.06214  1.0000 0.1033190878
C   C84       1.0  0.06214  0.58752  0.77228  1.0000 0.1033190878
C   C85       1.0  0.92194  0.91248  0.72772  1.0000 0.1033190878
C   C86       1.0  0.91248  0.92194  0.43786  1.0000 0.1033190878
C   C87       1.0  0.43786  0.72772  0.91248  1.0000 0.1033190878
C   C88       1.0  0.72772  0.43786  0.92194  1.0000 0.1033190878
C   C89       1.0  0.43786  0.92194  0.72772  1.0000 0.1033190878
C   C90       1.0  0.72772  0.91248  0.43786  1.0000 0.1033190878
C   C91       1.0  0.92194  0.43786  0.91248  1.0000 0.1033190878
C   C92       1.0  0.91248  0.72772  0.92194  1.0000 0.1033190878
C   C93       1.0  0.91248  0.43786  0.72772  1.0000 0.1033190878
C   C94       1.0  0.92194  0.72772  0.43786  1.0000 0.1033190878
C   C95       1.0  0.72772  0.92194  0.91248  1.0000 0.1033190878
C   C96       1.0  0.43786  0.91248  0.92194  1.0000 0.1033190878
C   C97       1.0  0.38680  0.38218  0.93882  1.0000 0.0806132274
C   C98       1.0  0.38218  0.38680  0.29220  1.0000 0.0806132274
C   C99       1.0  0.93882  0.29220  0.38680  1.0000 0.0806132274
C   C100      1.0  0.29220  0.93882  0.38218  1.0000 0.0806132274
C   C101      1.0  0.93882  0.38680  0.38218  1.0000 0.0806132274
C   C102      1.0  0.29220  0.38218  0.38680  1.0000 0.0806132274
C   C103      1.0  0.38680  0.93882  0.29220  1.0000 0.0806132274
C   C104      1.0  0.38218  0.29220  0.93882  1.0000 0.0806132274
C   C105      1.0  0.38218  0.93882  0.38680  1.0000 0.0806132274
C   C106      1.0  0.38680  0.29220  0.38218  1.0000 0.0806132274
C   C107      1.0  0.29220  0.38680  0.93882  1.0000 0.0806132274
C   C108      1.0  0.93882  0.38218  0.29220  1.0000 0.0806132274
C   C109      1.0  0.11320  0.11782  0.20780  1.0000 0.0806132274
C   C110      1.0  0.11782  0.11320  0.56118  1.0000 0.0806132274
C   C111      1.0  0.56118  0.20780  0.11782  1.0000 0.0806132274
C   C112      1.0  0.20780  0.56118  0.11320  1.0000 0.0806132274
C   C113      1.0  0.56118  0.11320  0.20780  1.0000 0.0806132274
C   C114      1.0  0.20780  0.11782  0.56118  1.0000 0.0806132274
C   C115      1.0  0.11320  0.56118  0.11782  1.0000 0.0806132274
C   C116      1.0  0.11782  0.20780  0.11320  1.0000 0.0806132274
C   C117      1.0  0.11782  0.56118  0.20780  1.0000 0.0806132274
C   C118      1.0  0.11320  0.20780  0.56118  1.0000 0.0806132274
C   C119      1.0  0.20780  0.11320  0.11782  1.0000 0.0806132274
C   C120      1.0  0.56118  0.11782  0.11320  1.0000 0.0806132274
C   C121      1.0  0.61320  0.61782  0.06118  1.0000 0.0806132274
C   C122      1.0  0.61782  0.61320  0.70780  1.0000 0.0806132274
C   C123      1.0  0.06118  0.70780  0.61320  1.0000 0.0806132274
C   C124      1.0  0.70780  0.06118  0.61782  1.0000 0.0806132274
C   C125      1.0  0.06118  0.61320  0.61782  1.0000 0.0806132274
C   C126      1.0  0.70780  0.61782  0.61320  1.0000 0.0806132274
C   C127      1.0  0.61320  0.06118  0.70780  1.0000 0.0806132274
C   C128      1.0  0.61782  0.70780  0.06118  1.0000 0.0806132274
C   C129      1.0  0.61782  0.06118  0.61320  1.0000 0.0806132274
C   C130      1.0  0.61320  0.70780  0.61782  1.0000 0.0806132274
C   C131      1.0  0.70780  0.61320  0.06118  1.0000 0.0806132274
C   C132      1.0  0.06118  0.61782  0.70780  1.0000 0.0806132274
C   C133      1.0  0.88680  0.88218  0.79220  1.0000 0.0806132274
C   C134      1.0  0.88218  0.88680  0.43882  1.0000 0.0806132274
C   C135      1.0  0.43882  0.79220  0.88218  1.0000 0.0806132274
C   C136      1.0  0.79220  0.43882  0.88680  1.0000 0.0806132274
C   C137      1.0  0.43882  0.88680  0.79220  1.0000 0.0806132274
C   C138      1.0  0.79220  0.88218  0.43882  1.0000 0.0806132274
C   C139      1.0  0.88680  0.43882  0.88218  1.0000 0.0806132274
C   C140      1.0  0.88218  0.79220  0.88680  1.0000 0.0806132274
C   C141      1.0  0.88218  0.43882  0.79220  1.0000 0.0806132274
C   C142      1.0  0.88680  0.79220  0.43882  1.0000 0.0806132274
C   C143      1.0  0.79220  0.88680  0.88218  1.0000 0.0806132274
C   C144      1.0  0.43882  0.88218  0.88680  1.0000 0.0806132274
C   C145      1.0  0.32549  0.41461  0.93897  1.0000 -0.1886803727
C   C146      1.0  0.41461  0.32549  0.32093  1.0000 -0.1886803727
C   C147      1.0  0.93897  0.32093  0.32549  1.0000 -0.1886803727
C   C148      1.0  0.32093  0.93897  0.41461  1.0000 -0.1886803727
C   C149      1.0  0.93897  0.32549  0.41461  1.0000 -0.1886803727
C   C150      1.0  0.32093  0.41461  0.32549  1.0000 -0.1886803727
C   C151      1.0  0.32549  0.93897  0.32093  1.0000 -0.1886803727
C   C152      1.0  0.41461  0.32093  0.93897  1.0000 -0.1886803727
C   C153      1.0  0.41461  0.93897  0.32549  1.0000 -0.1886803727
C   C154      1.0  0.32549  0.32093  0.41461  1.0000 -0.1886803727
C   C155      1.0  0.32093  0.32549  0.93897  1.0000 -0.1886803727
C   C156      1.0  0.93897  0.41461  0.32093  1.0000 -0.1886803727
C   C157      1.0  0.17451  0.08539  0.17907  1.0000 -0.1886803727
C   C158      1.0  0.08539  0.17451  0.56103  1.0000 -0.1886803727
C   C159      1.0  0.56103  0.17907  0.08539  1.0000 -0.1886803727
C   C160      1.0  0.17907  0.56103  0.17451  1.0000 -0.1886803727
C   C161      1.0  0.56103  0.17451  0.17907  1.0000 -0.1886803727
C   C162      1.0  0.17907  0.08539  0.56103  1.0000 -0.1886803727
C   C163      1.0  0.17451  0.56103  0.08539  1.0000 -0.1886803727
C   C164      1.0  0.08539  0.17907  0.17451  1.0000 -0.1886803727
C   C165      1.0  0.08539  0.56103  0.17907  1.0000 -0.1886803727
C   C166      1.0  0.17451  0.17907  0.56103  1.0000 -0.1886803727
C   C167      1.0  0.17907  0.17451  0.08539  1.0000 -0.1886803727
C   C168      1.0  0.56103  0.08539  0.17451  1.0000 -0.1886803727
C   C169      1.0  0.67451  0.58539  0.06103  1.0000 -0.1886803727
C   C170      1.0  0.58539  0.67451  0.67907  1.0000 -0.1886803727
C   C171      1.0  0.06103  0.67907  0.67451  1.0000 -0.1886803727
C   C172      1.0  0.67907  0.06103  0.58539  1.0000 -0.1886803727
C   C173      1.0  0.06103  0.67451  0.58539  1.0000 -0.1886803727
C   C174      1.0  0.67907  0.58539  0.67451  1.0000 -0.1886803727
C   C175      1.0  0.67451  0.06103  0.67907  1.0000 -0.1886803727
C   C176      1.0  0.58539  0.67907  0.06103  1.0000 -0.1886803727
C   C177      1.0  0.58539  0.06103  0.67451  1.0000 -0.1886803727
C   C178      1.0  0.67451  0.67907  0.58539  1.0000 -0.1886803727
C   C179      1.0  0.67907  0.67451  0.06103  1.0000 -0.1886803727
C   C180      1.0  0.06103  0.58539  0.67907  1.0000 -0.1886803727
C   C181      1.0  0.82549  0.91461  0.82093  1.0000 -0.1886803727
C   C182      1.0  0.91461  0.82549  0.43897  1.0000 -0.1886803727
C   C183      1.0  0.43897  0.82093  0.91461  1.0000 -0.1886803727
C   C184      1.0  0.82093  0.43897  0.82549  1.0000 -0.1886803727
C   C185      1.0  0.43897  0.82549  0.82093  1.0000 -0.1886803727
C   C186      1.0  0.82093  0.91461  0.43897  1.0000 -0.1886803727
C   C187      1.0  0.82549  0.43897  0.91461  1.0000 -0.1886803727
C   C188      1.0  0.91461  0.82093  0.82549  1.0000 -0.1886803727
C   C189      1.0  0.91461  0.43897  0.82093  1.0000 -0.1886803727
C   C190      1.0  0.82549  0.82093  0.43897  1.0000 -0.1886803727
C   C191      1.0  0.82093  0.82549  0.91461  1.0000 -0.1886803727
C   C192      1.0  0.43897  0.91461  0.82549  1.0000 -0.1886803727
N   N1        1.0  0.49396  0.43230  0.93688  1.0000 -0.1503901483
N   N2        1.0  0.43230  0.49396  0.13686  1.0000 -0.1503901483
N   N3        1.0  0.93688  0.13686  0.49396  1.0000 -0.1503901483
N   N4        1.0  0.13686  0.93688  0.43230  1.0000 -0.1503901483
N   N5        1.0  0.93688  0.49396  0.43230  1.0000 -0.1503901483
N   N6        1.0  0.13686  0.43230  0.49396  1.0000 -0.1503901483
N   N7        1.0  0.49396  0.93688  0.13686  1.0000 -0.1503901483
N   N8        1.0  0.43230  0.13686  0.93688  1.0000 -0.1503901483
N   N9        1.0  0.43230  0.93688  0.49396  1.0000 -0.1503901483
N   N10       1.0  0.49396  0.13686  0.43230  1.0000 -0.1503901483
N   N11       1.0  0.13686  0.49396  0.93688  1.0000 -0.1503901483
N   N12       1.0  0.93688  0.43230  0.13686  1.0000 -0.1503901483
N   N13       1.0  0.00604  0.06770  0.36314  1.0000 -0.1503901483
N   N14       1.0  0.06770  0.00604  0.56312  1.0000 -0.1503901483
N   N15       1.0  0.56312  0.36314  0.06770  1.0000 -0.1503901483
N   N16       1.0  0.36314  0.56312  0.00604  1.0000 -0.1503901483
N   N17       1.0  0.56312  0.00604  0.36314  1.0000 -0.1503901483
N   N18       1.0  0.36314  0.06770  0.56312  1.0000 -0.1503901483
N   N19       1.0  0.00604  0.56312  0.06770  1.0000 -0.1503901483
N   N20       1.0  0.06770  0.36314  0.00604  1.0000 -0.1503901483
N   N21       1.0  0.06770  0.56312  0.36314  1.0000 -0.1503901483
N   N22       1.0  0.00604  0.36314  0.56312  1.0000 -0.1503901483
N   N23       1.0  0.36314  0.00604  0.06770  1.0000 -0.1503901483
N   N24       1.0  0.56312  0.06770  0.00604  1.0000 -0.1503901483
N   N25       1.0  0.50604  0.56770  0.06312  1.0000 -0.1503901483
N   N26       1.0  0.56770  0.50604  0.86314  1.0000 -0.1503901483
N   N27       1.0  0.06312  0.86314  0.50604  1.0000 -0.1503901483
N   N28       1.0  0.86314  0.06312  0.56770  1.0000 -0.1503901483
N   N29       1.0  0.06312  0.50604  0.56770  1.0000 -0.1503901483
N   N30       1.0  0.86314  0.56770  0.50604  1.0000 -0.1503901483
N   N31       1.0  0.50604  0.06312  0.86314  1.0000 -0.1503901483
N   N32       1.0  0.56770  0.86314  0.06312  1.0000 -0.1503901483
N   N33       1.0  0.56770  0.06312  0.50604  1.0000 -0.1503901483
N   N34       1.0  0.50604  0.86314  0.56770  1.0000 -0.1503901483
N   N35       1.0  0.86314  0.50604  0.06312  1.0000 -0.1503901483
N   N36       1.0  0.06312  0.56770  0.86314  1.0000 -0.1503901483
N   N37       1.0  0.99396  0.93230  0.63686  1.0000 -0.1503901483
N   N38       1.0  0.93230  0.99396  0.43688  1.0000 -0.1503901483
N   N39       1.0  0.43688  0.63686  0.93230  1.0000 -0.1503901483
N   N40       1.0  0.63686  0.43688  0.99396  1.0000 -0.1503901483
N   N41       1.0  0.43688  0.99396  0.63686  1.0000 -0.1503901483
N   N42       1.0  0.63686  0.93230  0.43688  1.0000 -0.1503901483
N   N43       1.0  0.99396  0.43688  0.93230  1.0000 -0.1503901483
N   N44       1.0  0.93230  0.63686  0.99396  1.0000 -0.1503901483
N   N45       1.0  0.93230  0.43688  0.63686  1.0000 -0.1503901483
N   N46       1.0  0.99396  0.63686  0.43688  1.0000 -0.1503901483
N   N47       1.0  0.63686  0.99396  0.93230  1.0000 -0.1503901483
N   N48       1.0  0.43688  0.93230  0.99396  1.0000 -0.1503901483
N   N49       1.0  0.56538  0.36092  0.01640  1.0000 -0.0065962383
N   N50       1.0  0.36092  0.56538  0.05730  1.0000 -0.0065962383
N   N51       1.0  0.01640  0.05730  0.56538  1.0000 -0.0065962383
N   N52       1.0  0.05730  0.01640  0.36092  1.0000 -0.0065962383
N   N53       1.0  0.01640  0.56538  0.36092  1.0000 -0.0065962383
N   N54       1.0  0.05730  0.36092  0.56538  1.0000 -0.0065962383
N   N55       1.0  0.56538  0.01640  0.05730  1.0000 -0.0065962383
N   N56       1.0  0.36092  0.05730  0.01640  1.0000 -0.0065962383
N   N57       1.0  0.36092  0.01640  0.56538  1.0000 -0.0065962383
N   N58       1.0  0.56538  0.05730  0.36092  1.0000 -0.0065962383
N   N59       1.0  0.05730  0.56538  0.01640  1.0000 -0.0065962383
N   N60       1.0  0.01640  0.36092  0.05730  1.0000 -0.0065962383
N   N61       1.0  0.93462  0.13908  0.44270  1.0000 -0.0065962383
N   N62       1.0  0.13908  0.93462  0.48360  1.0000 -0.0065962383
N   N63       1.0  0.48360  0.44270  0.13908  1.0000 -0.0065962383
N   N64       1.0  0.44270  0.48360  0.93462  1.0000 -0.0065962383
N   N65       1.0  0.48360  0.93462  0.44270  1.0000 -0.0065962383
N   N66       1.0  0.44270  0.13908  0.48360  1.0000 -0.0065962383
N   N67       1.0  0.93462  0.48360  0.13908  1.0000 -0.0065962383
N   N68       1.0  0.13908  0.44270  0.93462  1.0000 -0.0065962383
N   N69       1.0  0.13908  0.48360  0.44270  1.0000 -0.0065962383
N   N70       1.0  0.93462  0.44270  0.48360  1.0000 -0.0065962383
N   N71       1.0  0.44270  0.93462  0.13908  1.0000 -0.0065962383
N   N72       1.0  0.48360  0.13908  0.93462  1.0000 -0.0065962383
N   N73       1.0  0.43462  0.63908  0.98360  1.0000 -0.0065962383
N   N74       1.0  0.63908  0.43462  0.94270  1.0000 -0.0065962383
N   N75       1.0  0.98360  0.94270  0.43462  1.0000 -0.0065962383
N   N76       1.0  0.94270  0.98360  0.63908  1.0000 -0.0065962383
N   N77       1.0  0.98360  0.43462  0.63908  1.0000 -0.0065962383
N   N78       1.0  0.94270  0.63908  0.43462  1.0000 -0.0065962383
N   N79       1.0  0.43462  0.98360  0.94270  1.0000 -0.0065962383
N   N80       1.0  0.63908  0.94270  0.98360  1.0000 -0.0065962383
N   N81       1.0  0.63908  0.98360  0.43462  1.0000 -0.0065962383
N   N82       1.0  0.43462  0.94270  0.63908  1.0000 -0.0065962383
N   N83       1.0  0.94270  0.43462  0.98360  1.0000 -0.0065962383
N   N84       1.0  0.98360  0.63908  0.94270  1.0000 -0.0065962383
N   N85       1.0  0.06538  0.86092  0.55730  1.0000 -0.0065962383
N   N86       1.0  0.86092  0.06538  0.51640  1.0000 -0.0065962383
N   N87       1.0  0.51640  0.55730  0.86092  1.0000 -0.0065962383
N   N88       1.0  0.55730  0.51640  0.06538  1.0000 -0.0065962383
N   N89       1.0  0.51640  0.06538  0.55730  1.0000 -0.0065962383
N   N90       1.0  0.55730  0.86092  0.51640  1.0000 -0.0065962383
N   N91       1.0  0.06538  0.51640  0.86092  1.0000 -0.0065962383
N   N92       1.0  0.86092  0.55730  0.06538  1.0000 -0.0065962383
N   N93       1.0  0.86092  0.51640  0.55730  1.0000 -0.0065962383
N   N94       1.0  0.06538  0.55730  0.51640  1.0000 -0.0065962383
N   N95       1.0  0.55730  0.06538  0.86092  1.0000 -0.0065962383
N   N96       1.0  0.51640  0.86092  0.06538  1.0000 -0.0065962383
N   N97       1.0  0.56510  0.30588  0.02752  1.0000 -0.2322475316
N   N98       1.0  0.30588  0.56510  0.10150  1.0000 -0.2322475316
N   N99       1.0  0.02752  0.10150  0.56510  1.0000 -0.2322475316
N   N100      1.0  0.10150  0.02752  0.30588  1.0000 -0.2322475316
N   N101      1.0  0.02752  0.56510  0.30588  1.0000 -0.2322475316
N   N102      1.0  0.10150  0.30588  0.56510  1.0000 -0.2322475316
N   N103      1.0  0.56510  0.02752  0.10150  1.0000 -0.2322475316
N   N104      1.0  0.30588  0.10150  0.02752  1.0000 -0.2322475316
N   N105      1.0  0.30588  0.02752  0.56510  1.0000 -0.2322475316
N   N106      1.0  0.56510  0.10150  0.30588  1.0000 -0.2322475316
N   N107      1.0  0.10150  0.56510  0.02752  1.0000 -0.2322475316
N   N108      1.0  0.02752  0.30588  0.10150  1.0000 -0.2322475316
N   N109      1.0  0.93490  0.19412  0.39850  1.0000 -0.2322475316
N   N110      1.0  0.19412  0.93490  0.47248  1.0000 -0.2322475316
N   N111      1.0  0.47248  0.39850  0.19412  1.0000 -0.2322475316
N   N112      1.0  0.39850  0.47248  0.93490  1.0000 -0.2322475316
N   N113      1.0  0.47248  0.93490  0.39850  1.0000 -0.2322475316
N   N114      1.0  0.39850  0.19412  0.47248  1.0000 -0.2322475316
N   N115      1.0  0.93490  0.47248  0.19412  1.0000 -0.2322475316
N   N116      1.0  0.19412  0.39850  0.93490  1.0000 -0.2322475316
N   N117      1.0  0.19412  0.47248  0.39850  1.0000 -0.2322475316
N   N118      1.0  0.93490  0.39850  0.47248  1.0000 -0.2322475316
N   N119      1.0  0.39850  0.93490  0.19412  1.0000 -0.2322475316
N   N120      1.0  0.47248  0.19412  0.93490  1.0000 -0.2322475316
N   N121      1.0  0.43490  0.69412  0.97248  1.0000 -0.2322475316
N   N122      1.0  0.69412  0.43490  0.89850  1.0000 -0.2322475316
N   N123      1.0  0.97248  0.89850  0.43490  1.0000 -0.2322475316
N   N124      1.0  0.89850  0.97248  0.69412  1.0000 -0.2322475316
N   N125      1.0  0.97248  0.43490  0.69412  1.0000 -0.2322475316
N   N126      1.0  0.89850  0.69412  0.43490  1.0000 -0.2322475316
N   N127      1.0  0.43490  0.97248  0.89850  1.0000 -0.2322475316
N   N128      1.0  0.69412  0.89850  0.97248  1.0000 -0.2322475316
N   N129      1.0  0.69412  0.97248  0.43490  1.0000 -0.2322475316
N   N130      1.0  0.43490  0.89850  0.69412  1.0000 -0.2322475316
N   N131      1.0  0.89850  0.43490  0.97248  1.0000 -0.2322475316
N   N132      1.0  0.97248  0.69412  0.89850  1.0000 -0.2322475316
N   N133      1.0  0.06510  0.80588  0.60150  1.0000 -0.2322475316
N   N134      1.0  0.80588  0.06510  0.52752  1.0000 -0.2322475316
N   N135      1.0  0.52752  0.60150  0.80588  1.0000 -0.2322475316
N   N136      1.0  0.60150  0.52752  0.06510  1.0000 -0.2322475316
N   N137      1.0  0.52752  0.06510  0.60150  1.0000 -0.2322475316
N   N138      1.0  0.60150  0.80588  0.52752  1.0000 -0.2322475316
N   N139      1.0  0.06510  0.52752  0.80588  1.0000 -0.2322475316
N   N140      1.0  0.80588  0.60150  0.06510  1.0000 -0.2322475316
N   N141      1.0  0.80588  0.52752  0.60150  1.0000 -0.2322475316
N   N142      1.0  0.06510  0.60150  0.52752  1.0000 -0.2322475316
N   N143      1.0  0.60150  0.06510  0.80588  1.0000 -0.2322475316
N   N144      1.0  0.52752  0.80588  0.06510  1.0000 -0.2322475316
Cl  Cl1       1.0  0.50000  0.50000  0.00000  1.0000 -0.4063677945
Cl  Cl2       1.0  0.00000  0.00000  0.50000  1.0000 -0.4063677945
Cl  Cl3       1.0  0.00000  0.50000  0.50000  1.0000 -0.4063677945
Cl  Cl4       1.0  0.50000  0.00000  0.00000  1.0000 -0.4063677945
Cl  Cl5       1.0  0.50000  0.00000  0.50000  1.0000 -0.4063677945
Cl  Cl6       1.0  0.00000  0.50000  0.00000  1.0000 -0.4063677945
