# DDEC6 charges by PACMAN v1.1 (https://github.com/mtap-research/PACMAN-charge/)
data_2016[Cu][mmm]3[ASR]2
_chemical_formula_sum              "Cu16 H24 C56 I8 N8 O32"
_cell_length_a       19.3577
_cell_length_b       19.3577
_cell_length_c       11.0242
_cell_angle_alpha    90
_cell_angle_beta     90
_cell_angle_gamma    90

_symmetry_space_group_name_H-M    "P 1"
_symmetry_Int_Tables_number       1

loop_
  _symmetry_equiv_pos_as_xyz
  'x, y, z'

loop_
  _atom_site_type_symbol
  _atom_site_label
  _atom_site_symmetry_multiplicity
  _atom_site_fract_x
  _atom_site_fract_y
  _atom_site_fract_z
  _atom_site_occupancy
  _atom_site_charge
Cu  Cu1       1.0  0.43089  0.50000  0.08787  1.0000 0.1602130866
Cu  Cu2       1.0  0.56911  0.50000  0.08787  1.0000 0.1602130866
Cu  Cu3       1.0  0.00000  0.06911  0.08787  1.0000 0.1602130866
Cu  Cu4       1.0  0.00000  0.93089  0.08787  1.0000 0.1602130866
Cu  Cu5       1.0  0.93089  0.00000  0.91213  1.0000 0.1602130866
Cu  Cu6       1.0  0.06911  0.00000  0.91213  1.0000 0.1602130866
Cu  Cu7       1.0  0.50000  0.43089  0.91213  1.0000 0.1602130866
Cu  Cu8       1.0  0.50000  0.56911  0.91213  1.0000 0.1602130866
Cu  Cu9       1.0  0.21747  0.71747  0.60140  1.0000 0.8753138984
Cu  Cu10      1.0  0.78253  0.28253  0.60140  1.0000 0.8753138984
Cu  Cu11      1.0  0.21747  0.28253  0.60140  1.0000 0.8753138984
Cu  Cu12      1.0  0.78253  0.71747  0.60140  1.0000 0.8753138984
Cu  Cu13      1.0  0.71747  0.78253  0.39860  1.0000 0.8753138984
Cu  Cu14      1.0  0.28253  0.21747  0.39860  1.0000 0.8753138984
Cu  Cu15      1.0  0.71747  0.21747  0.39860  1.0000 0.8753138984
Cu  Cu16      1.0  0.28253  0.78253  0.39860  1.0000 0.8753138984
H   H1        1.0  0.34530  0.59970  0.22800  1.0000 0.1211519296
H   H2        1.0  0.65470  0.40030  0.22800  1.0000 0.1211519296
H   H3        1.0  0.09970  0.15470  0.22800  1.0000 0.1211519296
H   H4        1.0  0.90030  0.84530  0.22800  1.0000 0.1211519296
H   H5        1.0  0.84530  0.90030  0.77200  1.0000 0.1211519296
H   H6        1.0  0.15470  0.09970  0.77200  1.0000 0.1211519296
H   H7        1.0  0.59970  0.34530  0.77200  1.0000 0.1211519296
H   H8        1.0  0.40030  0.65470  0.77200  1.0000 0.1211519296
H   H9        1.0  0.15470  0.90030  0.77200  1.0000 0.1211519296
H   H10       1.0  0.84530  0.09970  0.77200  1.0000 0.1211519296
H   H11       1.0  0.40030  0.34530  0.77200  1.0000 0.1211519296
H   H12       1.0  0.59970  0.65470  0.77200  1.0000 0.1211519296
H   H13       1.0  0.65470  0.59970  0.22800  1.0000 0.1211519296
H   H14       1.0  0.34530  0.40030  0.22800  1.0000 0.1211519296
H   H15       1.0  0.90030  0.15470  0.22800  1.0000 0.1211519296
H   H16       1.0  0.09970  0.84530  0.22800  1.0000 0.1211519296
H   H17       1.0  0.23260  0.50000  0.47290  1.0000 0.1450087929
H   H18       1.0  0.76740  0.50000  0.47290  1.0000 0.1450087929
H   H19       1.0  0.00000  0.26740  0.47290  1.0000 0.1450087929
H   H20       1.0  0.00000  0.73260  0.47290  1.0000 0.1450087929
H   H21       1.0  0.73260  0.00000  0.52710  1.0000 0.1450087929
H   H22       1.0  0.26740  0.00000  0.52710  1.0000 0.1450087929
H   H23       1.0  0.50000  0.23260  0.52710  1.0000 0.1450087929
H   H24       1.0  0.50000  0.76740  0.52710  1.0000 0.1450087929
C   C1        1.0  0.32930  0.55830  0.25990  1.0000 0.0673341139
C   C2        1.0  0.67070  0.44170  0.25990  1.0000 0.0673341139
C   C3        1.0  0.05830  0.17070  0.25990  1.0000 0.0673341139
C   C4        1.0  0.94170  0.82930  0.25990  1.0000 0.0673341139
C   C5        1.0  0.82930  0.94170  0.74010  1.0000 0.0673341139
C   C6        1.0  0.17070  0.05830  0.74010  1.0000 0.0673341139
C   C7        1.0  0.55830  0.32930  0.74010  1.0000 0.0673341139
C   C8        1.0  0.44170  0.67070  0.74010  1.0000 0.0673341139
C   C9        1.0  0.17070  0.94170  0.74010  1.0000 0.0673341139
C   C10       1.0  0.82930  0.05830  0.74010  1.0000 0.0673341139
C   C11       1.0  0.44170  0.32930  0.74010  1.0000 0.0673341139
C   C12       1.0  0.55830  0.67070  0.74010  1.0000 0.0673341139
C   C13       1.0  0.67070  0.55830  0.25990  1.0000 0.0673341139
C   C14       1.0  0.32930  0.44170  0.25990  1.0000 0.0673341139
C   C15       1.0  0.94170  0.17070  0.25990  1.0000 0.0673341139
C   C16       1.0  0.05830  0.82930  0.25990  1.0000 0.0673341139
C   C17       1.0  0.28370  0.56150  0.35590  1.0000 -0.0635549018
C   C18       1.0  0.71630  0.43850  0.35590  1.0000 -0.0635549018
C   C19       1.0  0.06150  0.21630  0.35590  1.0000 -0.0635549018
C   C20       1.0  0.93850  0.78370  0.35590  1.0000 -0.0635549018
C   C21       1.0  0.78370  0.93850  0.64410  1.0000 -0.0635549018
C   C22       1.0  0.21630  0.06150  0.64410  1.0000 -0.0635549018
C   C23       1.0  0.56150  0.28370  0.64410  1.0000 -0.0635549018
C   C24       1.0  0.43850  0.71630  0.64410  1.0000 -0.0635549018
C   C25       1.0  0.21630  0.93850  0.64410  1.0000 -0.0635549018
C   C26       1.0  0.78370  0.06150  0.64410  1.0000 -0.0635549018
C   C27       1.0  0.43850  0.28370  0.64410  1.0000 -0.0635549018
C   C28       1.0  0.56150  0.71630  0.64410  1.0000 -0.0635549018
C   C29       1.0  0.71630  0.56150  0.35590  1.0000 -0.0635549018
C   C30       1.0  0.28370  0.43850  0.35590  1.0000 -0.0635549018
C   C31       1.0  0.93850  0.21630  0.35590  1.0000 -0.0635549018
C   C32       1.0  0.06150  0.78370  0.35590  1.0000 -0.0635549018
C   C33       1.0  0.26190  0.50000  0.40600  1.0000 -0.0461622012
C   C34       1.0  0.73810  0.50000  0.40600  1.0000 -0.0461622012
C   C35       1.0  0.00000  0.23810  0.40600  1.0000 -0.0461622012
C   C36       1.0  0.00000  0.76190  0.40600  1.0000 -0.0461622012
C   C37       1.0  0.76190  0.00000  0.59400  1.0000 -0.0461622012
C   C38       1.0  0.23810  0.00000  0.59400  1.0000 -0.0461622012
C   C39       1.0  0.50000  0.26190  0.59400  1.0000 -0.0461622012
C   C40       1.0  0.50000  0.73810  0.59400  1.0000 -0.0461622012
C   C41       1.0  0.26570  0.63110  0.41110  1.0000 0.5883218625
C   C42       1.0  0.73430  0.36890  0.41110  1.0000 0.5883218625
C   C43       1.0  0.13110  0.23430  0.41110  1.0000 0.5883218625
C   C44       1.0  0.86890  0.76570  0.41110  1.0000 0.5883218625
C   C45       1.0  0.76570  0.86890  0.58890  1.0000 0.5883218625
C   C46       1.0  0.23430  0.13110  0.58890  1.0000 0.5883218625
C   C47       1.0  0.63110  0.26570  0.58890  1.0000 0.5883218625
C   C48       1.0  0.36890  0.73430  0.58890  1.0000 0.5883218625
C   C49       1.0  0.23430  0.86890  0.58890  1.0000 0.5883218625
C   C50       1.0  0.76570  0.13110  0.58890  1.0000 0.5883218625
C   C51       1.0  0.36890  0.26570  0.58890  1.0000 0.5883218625
C   C52       1.0  0.63110  0.73430  0.58890  1.0000 0.5883218625
C   C53       1.0  0.73430  0.63110  0.41110  1.0000 0.5883218625
C   C54       1.0  0.26570  0.36890  0.41110  1.0000 0.5883218625
C   C55       1.0  0.86890  0.23430  0.41110  1.0000 0.5883218625
C   C56       1.0  0.13110  0.76570  0.41110  1.0000 0.5883218625
I   I1        1.0  0.38108  0.50000  0.86473  1.0000 -0.2830164974
I   I2        1.0  0.61892  0.50000  0.86473  1.0000 -0.2830164974
I   I3        1.0  0.00000  0.11892  0.86473  1.0000 -0.2830164974
I   I4        1.0  0.00000  0.88108  0.86473  1.0000 -0.2830164974
I   I5        1.0  0.88108  0.00000  0.13527  1.0000 -0.2830164974
I   I6        1.0  0.11892  0.00000  0.13527  1.0000 -0.2830164974
I   I7        1.0  0.50000  0.38108  0.13527  1.0000 -0.2830164974
I   I8        1.0  0.50000  0.61892  0.13527  1.0000 -0.2830164974
N   N1        1.0  0.35170  0.50000  0.21000  1.0000 -0.1582295691
N   N2        1.0  0.64830  0.50000  0.21000  1.0000 -0.1582295691
N   N3        1.0  0.00000  0.14830  0.21000  1.0000 -0.1582295691
N   N4        1.0  0.00000  0.85170  0.21000  1.0000 -0.1582295691
N   N5        1.0  0.85170  0.00000  0.79000  1.0000 -0.1582295691
N   N6        1.0  0.14830  0.00000  0.79000  1.0000 -0.1582295691
N   N7        1.0  0.50000  0.35170  0.79000  1.0000 -0.1582295691
N   N8        1.0  0.50000  0.64830  0.79000  1.0000 -0.1582295691
O   O1        1.0  0.23340  0.63040  0.50840  1.0000 -0.5236266872
O   O2        1.0  0.76660  0.36960  0.50840  1.0000 -0.5236266872
O   O3        1.0  0.13040  0.26660  0.50840  1.0000 -0.5236266872
O   O4        1.0  0.86960  0.73340  0.50840  1.0000 -0.5236266872
O   O5        1.0  0.73340  0.86960  0.49160  1.0000 -0.5236266872
O   O6        1.0  0.26660  0.13040  0.49160  1.0000 -0.5236266872
O   O7        1.0  0.63040  0.23340  0.49160  1.0000 -0.5236266872
O   O8        1.0  0.36960  0.76660  0.49160  1.0000 -0.5236266872
O   O9        1.0  0.26660  0.86960  0.49160  1.0000 -0.5236266872
O   O10       1.0  0.73340  0.13040  0.49160  1.0000 -0.5236266872
O   O11       1.0  0.36960  0.23340  0.49160  1.0000 -0.5236266872
O   O12       1.0  0.63040  0.76660  0.49160  1.0000 -0.5236266872
O   O13       1.0  0.76660  0.63040  0.50840  1.0000 -0.5236266872
O   O14       1.0  0.23340  0.36960  0.50840  1.0000 -0.5236266872
O   O15       1.0  0.86960  0.26660  0.50840  1.0000 -0.5236266872
O   O16       1.0  0.13040  0.73340  0.50840  1.0000 -0.5236266872
O   O17       1.0  0.28540  0.68190  0.35360  1.0000 -0.5361900722
O   O18       1.0  0.71460  0.31810  0.35360  1.0000 -0.5361900722
O   O19       1.0  0.18190  0.21460  0.35360  1.0000 -0.5361900722
O   O20       1.0  0.81810  0.78540  0.35360  1.0000 -0.5361900722
O   O21       1.0  0.78540  0.81810  0.64640  1.0000 -0.5361900722
O   O22       1.0  0.21460  0.18190  0.64640  1.0000 -0.5361900722
O   O23       1.0  0.68190  0.28540  0.64640  1.0000 -0.5361900722
O   O24       1.0  0.31810  0.71460  0.64640  1.0000 -0.5361900722
O   O25       1.0  0.21460  0.81810  0.64640  1.0000 -0.5361900722
O   O26       1.0  0.78540  0.18190  0.64640  1.0000 -0.5361900722
O   O27       1.0  0.31810  0.28540  0.64640  1.0000 -0.5361900722
O   O28       1.0  0.68190  0.71460  0.64640  1.0000 -0.5361900722
O   O29       1.0  0.71460  0.68190  0.35360  1.0000 -0.5361900722
O   O30       1.0  0.28540  0.31810  0.35360  1.0000 -0.5361900722
O   O31       1.0  0.81810  0.21460  0.35360  1.0000 -0.5361900722
O   O32       1.0  0.18190  0.78540  0.35360  1.0000 -0.5361900722
