# DDEC6 charges by PACMAN v1.1 (https://github.com/mtap-research/PACMAN-charge/)
data_2016[Eu][nan]3[ASR]4
_chemical_formula_sum              "Eu8 H48 C96 Cl4 O48"
_cell_length_a       11.0501
_cell_length_b       11.0501
_cell_length_c       33.4105
_cell_angle_alpha    78.5092
_cell_angle_beta     101.491
_cell_angle_gamma    120.379

_symmetry_space_group_name_H-M    "P 1"
_symmetry_Int_Tables_number       1

loop_
  _symmetry_equiv_pos_as_xyz
  'x, y, z'

loop_
  _atom_site_type_symbol
  _atom_site_label
  _atom_site_symmetry_multiplicity
  _atom_site_fract_x
  _atom_site_fract_y
  _atom_site_fract_z
  _atom_site_occupancy
  _atom_site_charge
Eu  Eu1       1.0  0.80220  0.82822  0.81332  1.0000 2.1526398173
Eu  Eu2       1.0  0.82822  0.80220  0.68668  1.0000 2.1526398173
Eu  Eu3       1.0  0.19780  0.17178  0.18668  1.0000 2.1526398173
Eu  Eu4       1.0  0.17178  0.19780  0.31332  1.0000 2.1526398173
Eu  Eu5       1.0  0.93740  0.94438  0.94424  1.0000 2.0940801612
Eu  Eu6       1.0  0.94438  0.93740  0.55576  1.0000 2.0972897521
Eu  Eu7       1.0  0.06260  0.05562  0.05576  1.0000 2.0940801612
Eu  Eu8       1.0  0.05562  0.06260  0.44424  1.0000 2.0940801612
H   H1        1.0  0.41690  0.45610  0.87810  1.0000 0.1312364206
H   H2        1.0  0.45610  0.41690  0.62190  1.0000 0.1312364206
H   H3        1.0  0.58310  0.54390  0.12190  1.0000 0.1312364206
H   H4        1.0  0.54390  0.58310  0.37810  1.0000 0.1312364206
H   H5        1.0  0.24480  0.27660  0.91710  1.0000 0.1391777328
H   H6        1.0  0.27660  0.24480  0.58290  1.0000 0.1391777328
H   H7        1.0  0.75520  0.72340  0.08290  1.0000 0.1391777328
H   H8        1.0  0.72340  0.75520  0.41710  1.0000 0.1391777328
H   H9        1.0  0.34600  0.54280  0.99830  1.0000 0.1312364206
H   H10       1.0  0.54280  0.34600  0.50170  1.0000 0.1312364206
H   H11       1.0  0.65400  0.45720  0.00170  1.0000 0.1312364206
H   H12       1.0  0.45720  0.65400  0.49830  1.0000 0.1312364206
H   H13       1.0  0.52880  0.71500  0.96240  1.0000 0.1312364206
H   H14       1.0  0.71500  0.52880  0.53760  1.0000 0.1312364206
H   H15       1.0  0.47120  0.28500  0.03760  1.0000 0.1312364206
H   H16       1.0  0.28500  0.47120  0.46240  1.0000 0.1312364206
H   H17       1.0  0.03970  0.38830  0.88000  1.0000 0.1312364206
H   H18       1.0  0.38830  0.03970  0.62000  1.0000 0.1312364206
H   H19       1.0  0.96030  0.61170  0.12000  1.0000 0.1312364206
H   H20       1.0  0.61170  0.96030  0.38000  1.0000 0.1312364206
H   H21       1.0  0.03070  0.58950  0.84860  1.0000 0.1391777328
H   H22       1.0  0.58950  0.03070  0.65140  1.0000 0.1391777328
H   H23       1.0  0.96930  0.41050  0.15140  1.0000 0.1391777328
H   H24       1.0  0.41050  0.96930  0.34860  1.0000 0.1391777328
H   H25       1.0  0.82730  0.40090  0.74680  1.0000 0.1312364206
H   H26       1.0  0.40090  0.82730  0.75320  1.0000 0.1312364206
H   H27       1.0  0.17270  0.59910  0.25320  1.0000 0.1312364206
H   H28       1.0  0.59910  0.17270  0.24680  1.0000 0.1312364206
H   H29       1.0  0.82390  0.19530  0.77960  1.0000 0.1391777328
H   H30       1.0  0.19530  0.82390  0.72040  1.0000 0.1391777328
H   H31       1.0  0.17610  0.80470  0.22040  1.0000 0.1391777328
H   H32       1.0  0.80470  0.17610  0.27960  1.0000 0.1391777328
H   H33       1.0  0.37200  0.46600  0.79760  1.0000 0.1391777328
H   H34       1.0  0.46600  0.37200  0.70240  1.0000 0.1391777328
H   H35       1.0  0.62800  0.53400  0.20240  1.0000 0.1391777328
H   H36       1.0  0.53400  0.62800  0.29760  1.0000 0.1391777328
H   H37       1.0  0.15880  0.25660  0.79690  1.0000 0.1312364206
H   H38       1.0  0.25660  0.15880  0.70310  1.0000 0.1312364206
H   H39       1.0  0.84120  0.74340  0.20310  1.0000 0.1312364206
H   H40       1.0  0.74340  0.84120  0.29690  1.0000 0.1312364206
H   H41       1.0  0.32240  0.90700  0.94660  1.0000 0.1391777328
H   H42       1.0  0.90700  0.32240  0.55340  1.0000 0.1391777328
H   H43       1.0  0.67760  0.09300  0.05340  1.0000 0.1391777328
H   H44       1.0  0.09300  0.67760  0.44660  1.0000 0.1391777328
H   H45       1.0  0.45240  0.05160  0.05660  1.0000 0.1312364206
H   H46       1.0  0.05160  0.45240  0.44340  1.0000 0.1312364206
H   H47       1.0  0.54760  0.94840  0.94340  1.0000 0.1312364206
H   H48       1.0  0.94840  0.54760  0.55660  1.0000 0.1312364206
C   C1        1.0  0.49310  0.60130  0.91716  1.0000 -0.0119024634
C   C2        1.0  0.60130  0.49310  0.58284  1.0000 -0.0119024634
C   C3        1.0  0.50690  0.39870  0.08284  1.0000 -0.0119024634
C   C4        1.0  0.39870  0.50690  0.41716  1.0000 -0.0119024634
C   C5        1.0  0.40580  0.47240  0.90300  1.0000 -0.0909297918
C   C6        1.0  0.47240  0.40580  0.59700  1.0000 -0.0909297918
C   C7        1.0  0.59420  0.52760  0.09700  1.0000 -0.0909297918
C   C8        1.0  0.52760  0.59420  0.40300  1.0000 -0.0909297918
C   C9        1.0  0.29990  0.36570  0.92600  1.0000 -0.0909297918
C   C10       1.0  0.36570  0.29990  0.57400  1.0000 -0.0909297918
C   C11       1.0  0.70010  0.63430  0.07400  1.0000 -0.0909297918
C   C12       1.0  0.63430  0.70010  0.42600  1.0000 -0.0909297918
C   C13       1.0  0.27690  0.39090  0.96130  1.0000 -0.0028904961
C   C14       1.0  0.39090  0.27690  0.53870  1.0000 -0.0028904961
C   C15       1.0  0.72310  0.60910  0.03870  1.0000 -0.0028904961
C   C16       1.0  0.60910  0.72310  0.46130  1.0000 -0.0028904961
C   C17       1.0  0.36220  0.52380  0.97460  1.0000 -0.0909297918
C   C18       1.0  0.52380  0.36220  0.52540  1.0000 -0.0909297918
C   C19       1.0  0.63780  0.47620  0.02540  1.0000 -0.0909297918
C   C20       1.0  0.47620  0.63780  0.47460  1.0000 -0.0909297918
C   C21       1.0  0.47060  0.62720  0.95290  1.0000 -0.0970639756
C   C22       1.0  0.62720  0.47060  0.54710  1.0000 -0.0970639756
C   C23       1.0  0.52940  0.37280  0.04710  1.0000 -0.0970639756
C   C24       1.0  0.37280  0.52940  0.45290  1.0000 -0.0970639756
C   C25       1.0  0.61900  0.71360  0.89560  1.0000 0.6583300216
C   C26       1.0  0.71360  0.61900  0.60440  1.0000 0.6583300216
C   C27       1.0  0.38100  0.28640  0.10440  1.0000 0.6583300216
C   C28       1.0  0.28640  0.38100  0.39560  1.0000 0.6583300216
C   C29       1.0  0.17380  0.27600  0.98890  1.0000 0.6154754273
C   C30       1.0  0.27600  0.17380  0.51110  1.0000 0.6154754273
C   C31       1.0  0.82620  0.72400  0.01110  1.0000 0.6154754273
C   C32       1.0  0.72400  0.82620  0.48890  1.0000 0.6154754273
C   C33       1.0  0.92580  0.26880  0.83353  1.0000 -0.0203055999
C   C34       1.0  0.26880  0.92580  0.66647  1.0000 -0.0203055999
C   C35       1.0  0.07420  0.73120  0.16647  1.0000 -0.0203055999
C   C36       1.0  0.73120  0.07420  0.33353  1.0000 -0.0203055999
C   C37       1.0  0.99290  0.38950  0.85370  1.0000 -0.0909297918
C   C38       1.0  0.38950  0.99290  0.64630  1.0000 -0.0909297918
C   C39       1.0  0.00710  0.61050  0.14630  1.0000 -0.0909297918
C   C40       1.0  0.61050  0.00710  0.35370  1.0000 -0.0909297918
C   C41       1.0  0.99000  0.51060  0.83460  1.0000 -0.0909297918
C   C42       1.0  0.51060  0.99000  0.66540  1.0000 -0.0909297918
C   C43       1.0  0.01000  0.48940  0.16540  1.0000 -0.0909297918
C   C44       1.0  0.48940  0.01000  0.33460  1.0000 -0.0909297918
C   C45       1.0  0.92750  0.51550  0.79490  1.0000 -0.0203055999
C   C46       1.0  0.51550  0.92750  0.70510  1.0000 -0.0203055999
C   C47       1.0  0.07250  0.48450  0.20510  1.0000 -0.0203055999
C   C48       1.0  0.48450  0.07250  0.29490  1.0000 -0.0203055999
C   C49       1.0  0.86690  0.39710  0.77400  1.0000 -0.0970639756
C   C50       1.0  0.39710  0.86690  0.72600  1.0000 -0.0970639756
C   C51       1.0  0.13310  0.60290  0.22600  1.0000 -0.0970639756
C   C52       1.0  0.60290  0.13310  0.27400  1.0000 -0.0970639756
C   C53       1.0  0.86560  0.27460  0.79350  1.0000 -0.0909297918
C   C54       1.0  0.27460  0.86560  0.70650  1.0000 -0.0909297918
C   C55       1.0  0.13440  0.72540  0.20650  1.0000 -0.0909297918
C   C56       1.0  0.72540  0.13440  0.29350  1.0000 -0.0909297918
C   C57       1.0  0.91010  0.12990  0.85606  1.0000 0.6583300216
C   C58       1.0  0.12990  0.91010  0.64394  1.0000 0.6583300216
C   C59       1.0  0.08990  0.87010  0.14394  1.0000 0.6583300216
C   C60       1.0  0.87010  0.08990  0.35606  1.0000 0.6583300216
C   C61       1.0  0.91580  0.64360  0.77430  1.0000 0.6583300216
C   C62       1.0  0.64360  0.91580  0.72570  1.0000 0.6583300216
C   C63       1.0  0.08420  0.35640  0.22570  1.0000 0.6583300216
C   C64       1.0  0.35640  0.08420  0.27430  1.0000 0.6583300216
C   C65       1.0  0.43890  0.43890  0.75000  1.0000 -0.0119024634
C   C66       1.0  0.56110  0.56110  0.25000  1.0000 -0.0119024634
C   C67       1.0  0.34820  0.40480  0.77830  1.0000 -0.0970639756
C   C68       1.0  0.40480  0.34820  0.72170  1.0000 -0.0970639756
C   C69       1.0  0.65180  0.59520  0.22170  1.0000 -0.0970639756
C   C70       1.0  0.59520  0.65180  0.27830  1.0000 -0.0970639756
C   C71       1.0  0.22090  0.27890  0.77820  1.0000 -0.0844598153
C   C72       1.0  0.27890  0.22090  0.72180  1.0000 -0.0844598153
C   C73       1.0  0.77910  0.72110  0.22180  1.0000 -0.0909297918
C   C74       1.0  0.72110  0.77910  0.27820  1.0000 -0.0909297918
C   C75       1.0  0.18730  0.18730  0.75000  1.0000 -0.0203055999
C   C76       1.0  0.81270  0.81270  0.25000  1.0000 -0.0203055999
C   C77       1.0  0.57540  0.57540  0.75000  1.0000 0.6583300216
C   C78       1.0  0.42460  0.42460  0.25000  1.0000 0.6583300216
C   C79       1.0  0.05090  0.05090  0.75000  1.0000 0.6696395985
C   C80       1.0  0.94910  0.94910  0.25000  1.0000 0.6696395985
C   C81       1.0  0.36630  0.97610  0.00230  1.0000 -0.0203055999
C   C82       1.0  0.97610  0.36630  0.49770  1.0000 -0.0203055999
C   C83       1.0  0.63370  0.02390  0.99770  1.0000 -0.0203055999
C   C84       1.0  0.02390  0.63370  0.50230  1.0000 -0.0203055999
C   C85       1.0  0.39360  0.94420  0.96800  1.0000 -0.0909297918
C   C86       1.0  0.94420  0.39360  0.53200  1.0000 -0.0909297918
C   C87       1.0  0.60640  0.05580  0.03200  1.0000 -0.0909297918
C   C88       1.0  0.05580  0.60640  0.46800  1.0000 -0.0909297918
C   C89       1.0  0.47180  0.03100  0.03380  1.0000 -0.0909297918
C   C90       1.0  0.03100  0.47180  0.46620  1.0000 -0.0909297918
C   C91       1.0  0.52820  0.96900  0.96620  1.0000 -0.0970639756
C   C92       1.0  0.96900  0.52820  0.53380  1.0000 -0.0909297918
C   C93       1.0  0.22140  0.95260  0.00400  1.0000 0.6489291302
C   C94       1.0  0.95260  0.22140  0.49600  1.0000 0.6489291302
C   C95       1.0  0.77860  0.04740  0.99600  1.0000 0.6489291302
C   C96       1.0  0.04740  0.77860  0.50400  1.0000 0.6489291302
Cl  Cl1       1.0  0.99147  0.83535  0.88472  1.0000 -0.7621118614
Cl  Cl2       1.0  0.83535  0.99147  0.61528  1.0000 -0.7621118614
Cl  Cl3       1.0  0.00853  0.16465  0.11528  1.0000 -0.7621118614
Cl  Cl4       1.0  0.16465  0.00853  0.38472  1.0000 -0.7621118614
O   O1        1.0  0.63150  0.69510  0.86099  1.0000 -0.6499866471
O   O2        1.0  0.69510  0.63150  0.63901  1.0000 -0.6499866471
O   O3        1.0  0.36850  0.30490  0.13901  1.0000 -0.6499866471
O   O4        1.0  0.30490  0.36850  0.36099  1.0000 -0.6499866471
O   O5        1.0  0.70610  0.81870  0.91409  1.0000 -0.6661626586
O   O6        1.0  0.81870  0.70610  0.58591  1.0000 -0.6661626586
O   O7        1.0  0.29390  0.18130  0.08591  1.0000 -0.6661626586
O   O8        1.0  0.18130  0.29390  0.41409  1.0000 -0.6661626586
O   O9        1.0  0.11040  0.14800  0.98021  1.0000 -0.7424423882
O   O10       1.0  0.14800  0.11040  0.51979  1.0000 -0.7424423882
O   O11       1.0  0.88960  0.85200  0.01979  1.0000 -0.7424423882
O   O12       1.0  0.85200  0.88960  0.48021  1.0000 -0.7424423882
O   O13       1.0  0.15950  0.30390  0.02134  1.0000 -0.559885312
O   O14       1.0  0.30390  0.15950  0.47866  1.0000 -0.559885312
O   O15       1.0  0.84050  0.69610  0.97866  1.0000 -0.559885312
O   O16       1.0  0.69610  0.84050  0.52134  1.0000 -0.559885312
O   O17       1.0  0.83030  0.02230  0.83887  1.0000 -0.6499866471
O   O18       1.0  0.02230  0.83030  0.66113  1.0000 -0.6499866471
O   O19       1.0  0.16970  0.97770  0.16113  1.0000 -0.6499866471
O   O20       1.0  0.97770  0.16970  0.33887  1.0000 -0.6499866471
O   O21       1.0  0.97310  0.13130  0.89200  1.0000 -0.6499866471
O   O22       1.0  0.13130  0.97310  0.60800  1.0000 -0.6499866471
O   O23       1.0  0.02690  0.86870  0.10800  1.0000 -0.6499866471
O   O24       1.0  0.86870  0.02690  0.39200  1.0000 -0.6499866471
O   O25       1.0  0.89890  0.66110  0.73587  1.0000 -0.6499866471
O   O26       1.0  0.66110  0.89890  0.76413  1.0000 -0.6499866471
O   O27       1.0  0.10110  0.33890  0.26413  1.0000 -0.6499866471
O   O28       1.0  0.33890  0.10110  0.23587  1.0000 -0.6499866471
O   O29       1.0  0.92160  0.72440  0.79720  1.0000 -0.6769676992
O   O30       1.0  0.72440  0.92160  0.70280  1.0000 -0.6769676992
O   O31       1.0  0.07840  0.27560  0.20280  1.0000 -0.6769676992
O   O32       1.0  0.27560  0.07840  0.29720  1.0000 -0.6769676992
O   O33       1.0  0.63030  0.62290  0.78359  1.0000 -0.6423999259
O   O34       1.0  0.62290  0.63030  0.71641  1.0000 -0.6423999259
O   O35       1.0  0.36970  0.37710  0.21641  1.0000 -0.6423999259
O   O36       1.0  0.37710  0.36970  0.28359  1.0000 -0.6423999259
O   O37       1.0  0.98180  0.01780  0.77958  1.0000 -0.6626390704
O   O38       1.0  0.01780  0.98180  0.72042  1.0000 -0.6626390704
O   O39       1.0  0.01820  0.98220  0.22042  1.0000 -0.6626390704
O   O40       1.0  0.98220  0.01820  0.27958  1.0000 -0.6626390704
O   O41       1.0  0.13710  0.92350  0.97194  1.0000 -0.6224662104
O   O42       1.0  0.92350  0.13710  0.52806  1.0000 -0.6224662104
O   O43       1.0  0.86290  0.07650  0.02806  1.0000 -0.6224662104
O   O44       1.0  0.07650  0.86290  0.47194  1.0000 -0.6224662104
O   O45       1.0  0.19500  0.96280  0.03776  1.0000 -0.6307513007
O   O46       1.0  0.96280  0.19500  0.46224  1.0000 -0.6307513007
O   O47       1.0  0.80500  0.03720  0.96224  1.0000 -0.6307513007
O   O48       1.0  0.03720  0.80500  0.53776  1.0000 -0.6307513007
