# DDEC6 charges by PACMAN v1.1 (https://github.com/mtap-research/PACMAN-charge/)
data_2016[Zn][bbf]3[ASR]2
_chemical_formula_sum              "Zn4 H128 C192 N12 O16"
_cell_length_a       8.9575
_cell_length_b       19.685
_cell_length_c       25.063
_cell_angle_alpha    90
_cell_angle_beta     96.015
_cell_angle_gamma    90

_symmetry_space_group_name_H-M    "P 1"
_symmetry_Int_Tables_number       1

loop_
  _symmetry_equiv_pos_as_xyz
  'x, y, z'

loop_
  _atom_site_type_symbol
  _atom_site_label
  _atom_site_symmetry_multiplicity
  _atom_site_fract_x
  _atom_site_fract_y
  _atom_site_fract_z
  _atom_site_occupancy
  _atom_site_charge
Zn  Zn1       1.0  0.77357  0.62831  0.98223  1.0000 0.6983982719
Zn  Zn2       1.0  0.22643  0.12831  0.51777  1.0000 0.6983982719
Zn  Zn3       1.0  0.22643  0.37169  0.01777  1.0000 0.6983982719
Zn  Zn4       1.0  0.77357  0.87169  0.48223  1.0000 0.6983982719
H   H1        1.0  0.69430  0.77280  0.00700  1.0000 0.110367645
H   H2        1.0  0.30570  0.27280  0.49300  1.0000 0.110367645
H   H3        1.0  0.30570  0.22720  0.99300  1.0000 0.110367645
H   H4        1.0  0.69430  0.72720  0.50700  1.0000 0.110367645
H   H5        1.0  0.51270  0.83670  0.03960  1.0000 0.1273990137
H   H6        1.0  0.48730  0.33670  0.46040  1.0000 0.1273990137
H   H7        1.0  0.48730  0.16330  0.96040  1.0000 0.1273990137
H   H8        1.0  0.51270  0.66330  0.53960  1.0000 0.1273990137
H   H9        1.0  0.28470  0.66550  0.06090  1.0000 0.137676785
H   H10       1.0  0.71530  0.16550  0.43910  1.0000 0.137676785
H   H11       1.0  0.71530  0.33450  0.93910  1.0000 0.137676785
H   H12       1.0  0.28470  0.83450  0.56090  1.0000 0.137676785
H   H13       1.0  0.47400  0.60720  0.02670  1.0000 0.110367645
H   H14       1.0  0.52600  0.10720  0.47330  1.0000 0.110367645
H   H15       1.0  0.52600  0.39280  0.97330  1.0000 0.110367645
H   H16       1.0  0.47400  0.89280  0.52670  1.0000 0.110367645
H   H17       1.0  0.39650  0.87550  0.10750  1.0000 0.110367645
H   H18       1.0  0.60350  0.37550  0.39250  1.0000 0.110367645
H   H19       1.0  0.60350  0.12450  0.89250  1.0000 0.110367645
H   H20       1.0  0.39650  0.62450  0.60750  1.0000 0.110367645
H   H21       1.0  0.21410  0.94370  0.13660  1.0000 0.119723145
H   H22       1.0  0.78590  0.44370  0.36340  1.0000 0.119723145
H   H23       1.0  0.78590  0.05630  0.86340  1.0000 0.119723145
H   H24       1.0  0.21410  0.55630  0.63660  1.0000 0.119723145
H   H25       1.0  0.90180  0.80770  0.08760  1.0000 0.119723145
H   H26       1.0  0.09820  0.30770  0.41240  1.0000 0.119723145
H   H27       1.0  0.09820  0.19230  0.91240  1.0000 0.119723145
H   H28       1.0  0.90180  0.69230  0.58760  1.0000 0.119723145
H   H29       1.0  0.08370  0.73940  0.05690  1.0000 0.110367645
H   H30       1.0  0.91630  0.23940  0.44310  1.0000 0.110367645
H   H31       1.0  0.91630  0.26060  0.94310  1.0000 0.110367645
H   H32       1.0  0.08370  0.76060  0.55690  1.0000 0.110367645
H   H33       1.0  0.88980  0.05070  0.16670  1.0000 0.119723145
H   H34       1.0  0.11020  0.55070  0.33333  1.0000 0.110367645
H   H35       1.0  0.11020  0.94930  0.83330  1.0000 0.110367645
H   H36       1.0  0.88980  0.44930  0.66667  1.0000 0.110367645
H   H37       1.0  0.94630  0.09420  0.25100  1.0000 0.110367645
H   H38       1.0  0.05370  0.59420  0.24900  1.0000 0.110367645
H   H39       1.0  0.05370  0.90580  0.74900  1.0000 0.110367645
H   H40       1.0  0.94630  0.40580  0.75100  1.0000 0.110367645
H   H41       1.0  0.09270  0.91160  0.30310  1.0000 0.119723145
H   H42       1.0  0.90730  0.41160  0.19690  1.0000 0.119723145
H   H43       1.0  0.90730  0.08840  0.69690  1.0000 0.119723145
H   H44       1.0  0.09270  0.58840  0.80310  1.0000 0.119723145
H   H45       1.0  0.03130  0.86850  0.21870  1.0000 0.1273990137
H   H46       1.0  0.96870  0.36850  0.28130  1.0000 0.1273990137
H   H47       1.0  0.96870  0.13150  0.78130  1.0000 0.1273990137
H   H48       1.0  0.03130  0.63150  0.71870  1.0000 0.1273990137
H   H49       1.0  0.10010  0.13340  0.32020  1.0000 0.1273990137
H   H50       1.0  0.89990  0.63340  0.17980  1.0000 0.1273990137
H   H51       1.0  0.89990  0.86660  0.67980  1.0000 0.1273990137
H   H52       1.0  0.10010  0.36660  0.82020  1.0000 0.1273990137
H   H53       1.0  0.17690  0.17250  0.40380  1.0000 0.100019105
H   H54       1.0  0.82310  0.67250  0.09620  1.0000 0.100019105
H   H55       1.0  0.82310  0.82750  0.59620  1.0000 0.100019105
H   H56       1.0  0.17690  0.32750  0.90380  1.0000 0.100019105
H   H57       1.0  0.11420  0.99620  0.46690  1.0000 0.119723145
H   H58       1.0  0.88580  0.49620  0.03310  1.0000 0.119723145
H   H59       1.0  0.88580  0.00380  0.53310  1.0000 0.119723145
H   H60       1.0  0.11420  0.50380  0.96690  1.0000 0.119723145
H   H61       1.0  0.03810  0.95160  0.38410  1.0000 0.137676785
H   H62       1.0  0.96190  0.45160  0.11590  1.0000 0.137676785
H   H63       1.0  0.96190  0.04840  0.61590  1.0000 0.137676785
H   H64       1.0  0.03810  0.54840  0.88410  1.0000 0.137676785
H   H65       1.0  0.91190  0.94090  0.02780  1.0000 0.1273990137
H   H66       1.0  0.08810  0.44090  0.47220  1.0000 0.1273990137
H   H67       1.0  0.08810  0.05910  0.97220  1.0000 0.1273990137
H   H68       1.0  0.91190  0.55910  0.52780  1.0000 0.1273990137
H   H69       1.0  0.71130  0.96730  0.96740  1.0000 0.110367645
H   H70       1.0  0.28870  0.46730  0.53260  1.0000 0.110367645
H   H71       1.0  0.28870  0.03270  0.03260  1.0000 0.110367645
H   H72       1.0  0.71130  0.53270  0.46740  1.0000 0.110367645
H   H73       1.0  0.46590  0.00480  0.08730  1.0000 0.110367645
H   H74       1.0  0.53410  0.50480  0.41270  1.0000 0.110367645
H   H75       1.0  0.53410  0.99520  0.91270  1.0000 0.110367645
H   H76       1.0  0.46590  0.49520  0.58730  1.0000 0.110367645
H   H77       1.0  0.66080  0.96960  0.14760  1.0000 0.119723145
H   H78       1.0  0.33920  0.46960  0.35240  1.0000 0.119723145
H   H79       1.0  0.33920  0.03040  0.85240  1.0000 0.119723145
H   H80       1.0  0.66080  0.53040  0.64760  1.0000 0.119723145
H   H81       1.0  0.25610  0.64810  0.91800  1.0000 0.119723145
H   H82       1.0  0.74390  0.14810  0.58200  1.0000 0.119723145
H   H83       1.0  0.74390  0.35190  0.08200  1.0000 0.119723145
H   H84       1.0  0.25610  0.85190  0.41800  1.0000 0.119723145
H   H85       1.0  0.44680  0.70710  0.88510  1.0000 0.119723145
H   H86       1.0  0.55320  0.20710  0.61490  1.0000 0.119723145
H   H87       1.0  0.55320  0.29290  0.11490  1.0000 0.119723145
H   H88       1.0  0.44680  0.79290  0.38510  1.0000 0.119723145
H   H89       1.0  0.23030  0.88050  0.90540  1.0000 0.110367645
H   H90       1.0  0.76970  0.38050  0.59460  1.0000 0.110367645
H   H91       1.0  0.76970  0.11950  0.09460  1.0000 0.110367645
H   H92       1.0  0.23030  0.61950  0.40540  1.0000 0.110367645
H   H93       1.0  0.04180  0.82260  0.94000  1.0000 0.110367645
H   H94       1.0  0.95820  0.32260  0.56000  1.0000 0.110367645
H   H95       1.0  0.95820  0.17740  0.06000  1.0000 0.110367645
H   H96       1.0  0.04180  0.67740  0.44000  1.0000 0.110367645
H   H97       1.0  0.65280  0.81300  0.91390  1.0000 0.119723145
H   H98       1.0  0.34720  0.31300  0.58610  1.0000 0.119723145
H   H99       1.0  0.34720  0.18700  0.08610  1.0000 0.119723145
H   H100      1.0  0.65280  0.68700  0.41390  1.0000 0.119723145
H   H101      1.0  0.82690  0.87380  0.87190  1.0000 0.110367645
H   H102      1.0  0.17310  0.37380  0.62810  1.0000 0.110367645
H   H103      1.0  0.17310  0.12620  0.12810  1.0000 0.110367645
H   H104      1.0  0.82690  0.62620  0.37190  1.0000 0.110367645
H   H105      1.0  0.75610  0.93510  0.79660  1.0000 0.110367645
H   H106      1.0  0.24390  0.43510  0.70340  1.0000 0.110367645
H   H107      1.0  0.24390  0.06490  0.20340  1.0000 0.110367645
H   H108      1.0  0.75610  0.56490  0.29660  1.0000 0.110367645
H   H109      1.0  0.33180  0.87570  0.80200  1.0000 0.110367645
H   H110      1.0  0.66820  0.37570  0.69800  1.0000 0.110367645
H   H111      1.0  0.66820  0.12430  0.19800  1.0000 0.110367645
H   H112      1.0  0.33180  0.62430  0.30200  1.0000 0.110367645
H   H113      1.0  0.62470  0.02380  0.74950  1.0000 0.110367645
H   H114      1.0  0.37530  0.52380  0.75050  1.0000 0.110367645
H   H115      1.0  0.37530  0.97620  0.25050  1.0000 0.110367645
H   H116      1.0  0.62470  0.47620  0.24950  1.0000 0.110367645
H   H117      1.0  0.54750  0.08010  0.67130  1.0000 0.119723145
H   H118      1.0  0.45250  0.58010  0.82870  1.0000 0.119723145
H   H119      1.0  0.45250  0.91990  0.32870  1.0000 0.119723145
H   H120      1.0  0.54750  0.41990  0.17130  1.0000 0.119723145
H   H121      1.0  0.26930  0.92970  0.62820  1.0000 0.110367645
H   H122      1.0  0.73070  0.42970  0.87180  1.0000 0.110367645
H   H123      1.0  0.73070  0.07030  0.37180  1.0000 0.110367645
H   H124      1.0  0.26930  0.57030  0.12820  1.0000 0.110367645
H   H125      1.0  0.34110  0.87470  0.70720  1.0000 0.119723145
H   H126      1.0  0.65890  0.37470  0.79280  1.0000 0.119723145
H   H127      1.0  0.65890  0.12530  0.29280  1.0000 0.119723145
H   H128      1.0  0.34110  0.62530  0.20720  1.0000 0.119723145
C   C1        1.0  0.61000  0.75110  0.01758  1.0000 0.056415858
C   C2        1.0  0.39000  0.25110  0.48242  1.0000 0.056415858
C   C3        1.0  0.39000  0.24890  0.98242  1.0000 0.056415858
C   C4        1.0  0.61000  0.74890  0.51758  1.0000 0.056415858
C   C5        1.0  0.50170  0.78980  0.03760  1.0000 -0.190129162
C   C6        1.0  0.49830  0.28980  0.46240  1.0000 -0.190129162
C   C7        1.0  0.49830  0.21020  0.96240  1.0000 -0.190129162
C   C8        1.0  0.50170  0.71020  0.53760  1.0000 -0.190129162
C   C9        1.0  0.37620  0.75950  0.05486  1.0000 0.119723145
C   C10       1.0  0.62380  0.25950  0.44514  1.0000 0.119723145
C   C11       1.0  0.62380  0.24050  0.94514  1.0000 0.119723145
C   C12       1.0  0.37620  0.74050  0.55486  1.0000 0.119723145
C   C13       1.0  0.36680  0.68880  0.05013  1.0000 -0.190129162
C   C14       1.0  0.63320  0.18880  0.44987  1.0000 -0.190129162
C   C15       1.0  0.63320  0.31120  0.94987  1.0000 -0.190129162
C   C16       1.0  0.36680  0.81120  0.55013  1.0000 -0.190129162
C   C17       1.0  0.48110  0.65430  0.02920  1.0000 0.0889571163
C   C18       1.0  0.51890  0.15430  0.47080  1.0000 0.0889571163
C   C19       1.0  0.51890  0.34570  0.97080  1.0000 0.0889571163
C   C20       1.0  0.48110  0.84570  0.52920  1.0000 0.0889571163
C   C21       1.0  0.25940  0.80070  0.07664  1.0000 0.0502303873
C   C22       1.0  0.74060  0.30070  0.42336  1.0000 0.0502303873
C   C23       1.0  0.74060  0.19930  0.92336  1.0000 0.0502303873
C   C24       1.0  0.25940  0.69930  0.57664  1.0000 0.0502303873
C   C25       1.0  0.29660  0.86190  0.10220  1.0000 -0.1278578134
C   C26       1.0  0.70340  0.36190  0.39780  1.0000 -0.1278578134
C   C27       1.0  0.70340  0.13810  0.89780  1.0000 -0.1278578134
C   C28       1.0  0.29660  0.63810  0.60220  1.0000 -0.1278578134
C   C29       1.0  0.18690  0.90270  0.11990  1.0000 -0.1836492292
C   C30       1.0  0.81310  0.40270  0.38010  1.0000 -0.1836492292
C   C31       1.0  0.81310  0.09730  0.88010  1.0000 -0.1836492292
C   C32       1.0  0.18690  0.59730  0.61990  1.0000 -0.1836492292
C   C33       1.0  0.03950  0.88430  0.11354  1.0000 0.1594893641
C   C34       1.0  0.96050  0.38430  0.38646  1.0000 0.1594893641
C   C35       1.0  0.96050  0.11570  0.88646  1.0000 0.1594893641
C   C36       1.0  0.03950  0.61570  0.61354  1.0000 0.1594893641
C   C37       1.0  0.00120  0.82210  0.09070  1.0000 -0.1836492292
C   C38       1.0  0.99880  0.32210  0.40930  1.0000 -0.1836492292
C   C39       1.0  0.99880  0.17790  0.90930  1.0000 -0.1836492292
C   C40       1.0  0.00120  0.67790  0.59070  1.0000 -0.1836492292
C   C41       1.0  0.11090  0.78120  0.07242  1.0000 -0.1220781471
C   C42       1.0  0.88910  0.28120  0.42758  1.0000 -0.1220781471
C   C43       1.0  0.88910  0.21880  0.92758  1.0000 -0.1220781471
C   C44       1.0  0.11090  0.71880  0.57242  1.0000 -0.1220781471
C   C45       1.0  0.95420  0.95510  0.18330  1.0000 0.1686456512
C   C46       1.0  0.04580  0.45510  0.31670  1.0000 0.1686456512
C   C47       1.0  0.04580  0.04490  0.81670  1.0000 0.1594893641
C   C48       1.0  0.95420  0.54490  0.68330  1.0000 0.1686456512
C   C49       1.0  0.92990  0.02230  0.19413  1.0000 -0.1836492292
C   C50       1.0  0.07010  0.52230  0.30587  1.0000 -0.1836492292
C   C51       1.0  0.07010  0.97770  0.80587  1.0000 -0.190129162
C   C52       1.0  0.92990  0.47770  0.69413  1.0000 -0.1836492292
C   C53       1.0  0.96380  0.04840  0.24503  1.0000 -0.1397407145
C   C54       1.0  0.03620  0.54840  0.25497  1.0000 -0.1397407145
C   C55       1.0  0.03620  0.95160  0.75497  1.0000 -0.1397407145
C   C56       1.0  0.96380  0.45160  0.74503  1.0000 -0.1397407145
C   C57       1.0  0.02300  0.00820  0.28734  1.0000 0.0502303873
C   C58       1.0  0.97700  0.50820  0.21266  1.0000 0.0502303873
C   C59       1.0  0.97700  0.99180  0.71266  1.0000 0.0502303873
C   C60       1.0  0.02300  0.49180  0.78734  1.0000 0.0502303873
C   C61       1.0  0.05010  0.94000  0.27597  1.0000 -0.1278578134
C   C62       1.0  0.94990  0.44000  0.22403  1.0000 -0.1278578134
C   C63       1.0  0.94990  0.06000  0.72403  1.0000 -0.1278578134
C   C64       1.0  0.05010  0.56000  0.77597  1.0000 -0.1278578134
C   C65       1.0  0.01440  0.91430  0.22510  1.0000 -0.1836492292
C   C66       1.0  0.98560  0.41430  0.27490  1.0000 -0.1836492292
C   C67       1.0  0.98560  0.08570  0.77490  1.0000 -0.1836492292
C   C68       1.0  0.01440  0.58570  0.72510  1.0000 -0.1836492292
C   C69       1.0  0.06410  0.03600  0.34098  1.0000 0.110367645
C   C70       1.0  0.93590  0.53600  0.15902  1.0000 0.110367645
C   C71       1.0  0.93590  0.96400  0.65902  1.0000 0.110367645
C   C72       1.0  0.06410  0.46400  0.84098  1.0000 0.110367645
C   C73       1.0  0.10400  0.10380  0.34923  1.0000 -0.1980648966
C   C74       1.0  0.89600  0.60380  0.15077  1.0000 -0.1980648966
C   C75       1.0  0.89600  0.89620  0.65077  1.0000 -0.1980648966
C   C76       1.0  0.10400  0.39620  0.84923  1.0000 -0.1980648966
C   C77       1.0  0.14880  0.12720  0.39960  1.0000 0.0502303873
C   C78       1.0  0.85120  0.62720  0.10040  1.0000 0.0502303873
C   C79       1.0  0.85120  0.87280  0.60040  1.0000 0.0502303873
C   C80       1.0  0.14880  0.37280  0.89960  1.0000 0.0502303873
C   C81       1.0  0.11280  0.02410  0.43686  1.0000 0.119723145
C   C82       1.0  0.88720  0.52410  0.06314  1.0000 0.110367645
C   C83       1.0  0.88720  0.97590  0.56314  1.0000 0.110367645
C   C84       1.0  0.11280  0.47590  0.93686  1.0000 0.110367645
C   C85       1.0  0.06710  0.99690  0.38683  1.0000 -0.190129162
C   C86       1.0  0.93290  0.49690  0.11317  1.0000 -0.190129162
C   C87       1.0  0.93290  0.00310  0.61317  1.0000 -0.190129162
C   C88       1.0  0.06710  0.50310  0.88683  1.0000 -0.190129162
C   C89       1.0  0.80610  0.94910  0.09462  1.0000 0.1686456512
C   C90       1.0  0.19390  0.44910  0.40538  1.0000 0.1686456512
C   C91       1.0  0.19390  0.05090  0.90538  1.0000 0.1686456512
C   C92       1.0  0.80610  0.55090  0.59462  1.0000 0.1686456512
C   C93       1.0  0.82020  0.95150  0.04007  1.0000 -0.190129162
C   C94       1.0  0.17980  0.45150  0.45993  1.0000 -0.190129162
C   C95       1.0  0.17980  0.04850  0.95993  1.0000 -0.190129162
C   C96       1.0  0.82020  0.54850  0.54007  1.0000 -0.190129162
C   C97       1.0  0.70020  0.96910  0.00382  1.0000 -0.1498640218
C   C98       1.0  0.29980  0.46910  0.49618  1.0000 -0.1498640218
C   C99       1.0  0.29980  0.03090  0.99618  1.0000 -0.1498640218
C   C100      1.0  0.70020  0.53090  0.50382  1.0000 -0.1498640218
C   C101      1.0  0.56440  0.98950  0.01958  1.0000 0.056415858
C   C102      1.0  0.43560  0.48950  0.48042  1.0000 0.056415858
C   C103      1.0  0.43560  0.01050  0.98042  1.0000 0.056415858
C   C104      1.0  0.56440  0.51050  0.51958  1.0000 0.056415858
C   C105      1.0  0.55440  0.99010  0.07471  1.0000 -0.1498640218
C   C106      1.0  0.44560  0.49010  0.42529  1.0000 -0.1498640218
C   C107      1.0  0.44560  0.00990  0.92529  1.0000 -0.1498640218
C   C108      1.0  0.55440  0.50990  0.57471  1.0000 -0.1498640218
C   C109      1.0  0.67250  0.96960  0.11118  1.0000 -0.1836492292
C   C110      1.0  0.32750  0.46960  0.38882  1.0000 -0.1836492292
C   C111      1.0  0.32750  0.03040  0.88882  1.0000 -0.1836492292
C   C112      1.0  0.67250  0.53040  0.61118  1.0000 -0.1836492292
C   C113      1.0  0.99830  0.69030  0.95259  1.0000 0.5050504006
C   C114      1.0  0.00170  0.19030  0.54741  1.0000 0.5050504006
C   C115      1.0  0.00170  0.30970  0.04741  1.0000 0.5050504006
C   C116      1.0  0.99830  0.80970  0.45259  1.0000 0.5050504006
C   C117      1.0  0.12570  0.72900  0.93156  1.0000 -0.0178087476
C   C118      1.0  0.87430  0.22900  0.56844  1.0000 -0.0178087476
C   C119      1.0  0.87430  0.27100  0.06844  1.0000 -0.0178087476
C   C120      1.0  0.12570  0.77100  0.43156  1.0000 -0.0178087476
C   C121      1.0  0.25010  0.69520  0.91515  1.0000 -0.1094947272
C   C122      1.0  0.74990  0.19520  0.58485  1.0000 -0.1094947272
C   C123      1.0  0.74990  0.30480  0.08485  1.0000 -0.1094947272
C   C124      1.0  0.25010  0.80480  0.41515  1.0000 -0.1094947272
C   C125      1.0  0.36350  0.73040  0.89490  1.0000 -0.1397407145
C   C126      1.0  0.63650  0.23040  0.60510  1.0000 -0.1397407145
C   C127      1.0  0.63650  0.26960  0.10510  1.0000 -0.1397407145
C   C128      1.0  0.36350  0.76960  0.39490  1.0000 -0.1397407145
C   C129      1.0  0.35560  0.80030  0.88889  1.0000 0.0704478717
C   C130      1.0  0.64440  0.30030  0.61111  1.0000 0.0704478717
C   C131      1.0  0.64440  0.19970  0.11111  1.0000 0.0704478717
C   C132      1.0  0.35560  0.69970  0.38889  1.0000 0.0704478717
C   C133      1.0  0.23490  0.83340  0.90728  1.0000 -0.1626904437
C   C134      1.0  0.76510  0.33340  0.59272  1.0000 -0.1626904437
C   C135      1.0  0.76510  0.16660  0.09272  1.0000 -0.1626904437
C   C136      1.0  0.23490  0.66667  0.40728  1.0000 -0.1626904437
C   C137      1.0  0.12180  0.79880  0.92809  1.0000 -0.1220781471
C   C138      1.0  0.87820  0.29880  0.57191  1.0000 -0.1220781471
C   C139      1.0  0.87820  0.20120  0.07191  1.0000 -0.1220781471
C   C140      1.0  0.12180  0.70120  0.42809  1.0000 -0.1220781471
C   C141      1.0  0.47270  0.83790  0.86323  1.0000 0.075969904
C   C142      1.0  0.52730  0.33790  0.63677  1.0000 0.075969904
C   C143      1.0  0.52730  0.16210  0.13677  1.0000 0.075969904
C   C144      1.0  0.47270  0.66210  0.36323  1.0000 0.075969904
C   C145      1.0  0.62190  0.83770  0.88310  1.0000 -0.1498640218
C   C146      1.0  0.37810  0.33770  0.61690  1.0000 -0.1498640218
C   C147      1.0  0.37810  0.16230  0.11690  1.0000 -0.1498640218
C   C148      1.0  0.62190  0.66230  0.38310  1.0000 -0.1498640218
C   C149      1.0  0.72670  0.87400  0.85770  1.0000 -0.0904494261
C   C150      1.0  0.27330  0.37400  0.64230  1.0000 -0.0904494261
C   C151      1.0  0.27330  0.12600  0.14230  1.0000 -0.0904494261
C   C152      1.0  0.72670  0.62600  0.35770  1.0000 -0.0904494261
C   C153      1.0  0.68500  0.90990  0.81250  1.0000 -0.1626904437
C   C154      1.0  0.31500  0.40990  0.68750  1.0000 -0.1626904437
C   C155      1.0  0.31500  0.09010  0.18750  1.0000 -0.1626904437
C   C156      1.0  0.68500  0.59010  0.31250  1.0000 -0.1626904437
C   C157      1.0  0.53770  0.90930  0.78975  1.0000 0.075969904
C   C158      1.0  0.46230  0.40930  0.71025  1.0000 0.075969904
C   C159      1.0  0.46230  0.09070  0.21025  1.0000 0.075969904
C   C160      1.0  0.53770  0.59070  0.28975  1.0000 0.075969904
C   C161      1.0  0.43200  0.87460  0.81605  1.0000 -0.1980648966
C   C162      1.0  0.56800  0.37460  0.68395  1.0000 -0.1980648966
C   C163      1.0  0.56800  0.12540  0.18395  1.0000 -0.190129162
C   C164      1.0  0.43200  0.62540  0.31605  1.0000 -0.1980648966
C   C165      1.0  0.49150  0.94480  0.73834  1.0000 0.0704478717
C   C166      1.0  0.50850  0.44480  0.76166  1.0000 0.0704478717
C   C167      1.0  0.50850  0.05520  0.26166  1.0000 0.0704478717
C   C168      1.0  0.49150  0.55520  0.23834  1.0000 0.0704478717
C   C169      1.0  0.55080  0.00430  0.72550  1.0000 -0.1498640218
C   C170      1.0  0.44920  0.50430  0.77450  1.0000 -0.1498640218
C   C171      1.0  0.44920  0.99570  0.27450  1.0000 -0.1498640218
C   C172      1.0  0.55080  0.49570  0.22550  1.0000 -0.1498640218
C   C173      1.0  0.50640  0.03790  0.67780  1.0000 -0.1046063059
C   C174      1.0  0.49360  0.53790  0.82220  1.0000 -0.1046063059
C   C175      1.0  0.49360  0.96210  0.32220  1.0000 -0.1094947272
C   C176      1.0  0.50640  0.46210  0.17780  1.0000 -0.1046063059
C   C177      1.0  0.34180  0.94920  0.65270  1.0000 -0.1220781471
C   C178      1.0  0.65820  0.44920  0.84730  1.0000 -0.1220781471
C   C179      1.0  0.65820  0.05080  0.34730  1.0000 -0.1220781471
C   C180      1.0  0.34180  0.55080  0.15270  1.0000 -0.1220781471
C   C181      1.0  0.38420  0.91630  0.70030  1.0000 -0.1498640218
C   C182      1.0  0.61580  0.41630  0.79970  1.0000 -0.1498640218
C   C183      1.0  0.61580  0.08370  0.29970  1.0000 -0.1498640218
C   C184      1.0  0.38420  0.58370  0.20030  1.0000 -0.1498640218
C   C185      1.0  0.40400  0.01010  0.64070  1.0000 -0.0178087476
C   C186      1.0  0.59600  0.51010  0.85930  1.0000 -0.0178087476
C   C187      1.0  0.59600  0.98990  0.35930  1.0000 -0.0178087476
C   C188      1.0  0.40400  0.48990  0.14070  1.0000 -0.0178087476
C   C189      1.0  0.34930  0.04610  0.59040  1.0000 0.4982656784
C   C190      1.0  0.65070  0.54610  0.90960  1.0000 0.4982656784
C   C191      1.0  0.65070  0.95390  0.40960  1.0000 0.4982656784
C   C192      1.0  0.34930  0.45390  0.09040  1.0000 0.4982656784
N   N1        1.0  0.92640  0.92750  0.13124  1.0000 -0.1729919442
N   N2        1.0  0.07360  0.42750  0.36876  1.0000 -0.1729919442
N   N3        1.0  0.07360  0.07250  0.86876  1.0000 -0.1729919442
N   N4        1.0  0.92640  0.57250  0.63124  1.0000 -0.1729919442
N   N5        1.0  0.59970  0.68372  0.01261  1.0000 -0.2329335564
N   N6        1.0  0.40030  0.18372  0.48739  1.0000 -0.2329335564
N   N7        1.0  0.40030  0.31628  0.98739  1.0000 -0.2329335564
N   N8        1.0  0.59970  0.81628  0.51261  1.0000 -0.2329335564
N   N9        1.0  0.15420  0.08762  0.44350  1.0000 -0.2329335564
N   N10       1.0  0.84580  0.58762  0.05650  1.0000 -0.2329335564
N   N11       1.0  0.84580  0.91238  0.55650  1.0000 -0.2329335564
N   N12       1.0  0.15420  0.41238  0.94350  1.0000 -0.2329335564
O   O1        1.0  0.88890  0.71980  0.96537  1.0000 -0.4990423002
O   O2        1.0  0.11110  0.21980  0.53463  1.0000 -0.4990423002
O   O3        1.0  0.11110  0.28020  0.03463  1.0000 -0.4990423002
O   O4        1.0  0.88890  0.78020  0.46537  1.0000 -0.4990423002
O   O5        1.0  0.00890  0.62830  0.95700  1.0000 -0.5057116353
O   O6        1.0  0.99110  0.12830  0.54300  1.0000 -0.5057116353
O   O7        1.0  0.99110  0.37170  0.04300  1.0000 -0.5057116353
O   O8        1.0  0.00890  0.87170  0.45700  1.0000 -0.5057116353
O   O9        1.0  0.34700  0.10820  0.59070  1.0000 -0.4471322351
O   O10       1.0  0.65300  0.60820  0.90930  1.0000 -0.4471322351
O   O11       1.0  0.65300  0.89180  0.40930  1.0000 -0.4471322351
O   O12       1.0  0.34700  0.39180  0.09070  1.0000 -0.4471322351
O   O13       1.0  0.28460  0.01940  0.55330  1.0000 -0.4415761137
O   O14       1.0  0.71540  0.51940  0.94670  1.0000 -0.4415761137
O   O15       1.0  0.71540  0.98060  0.44670  1.0000 -0.4415761137
O   O16       1.0  0.28460  0.48060  0.05330  1.0000 -0.4415761137
