# DDEC6 charges by PACMAN v1.1 (https://github.com/mtap-research/PACMAN-charge/)
data_2016[Mn][bcu]3[ASR]1
_chemical_formula_sum              "Mn7 H42 C112 O42"
_cell_length_a       14.615
_cell_length_b       16.585
_cell_length_c       20.559
_cell_angle_alpha    99.33
_cell_angle_beta     107.46
_cell_angle_gamma    100.74

_symmetry_space_group_name_H-M    "P 1"
_symmetry_Int_Tables_number       1

loop_
  _symmetry_equiv_pos_as_xyz
  'x, y, z'

loop_
  _atom_site_type_symbol
  _atom_site_label
  _atom_site_symmetry_multiplicity
  _atom_site_fract_x
  _atom_site_fract_y
  _atom_site_fract_z
  _atom_site_occupancy
  _atom_site_charge
Mn  Mn1       1.0  0.00000  0.00000  0.00000  1.0000 1.0775229178
Mn  Mn2       1.0  0.06038  0.22073  0.23775  1.0000 1.0582324706
Mn  Mn3       1.0  0.93962  0.77927  0.76225  1.0000 1.0582324706
Mn  Mn4       1.0  0.14861  0.06266  0.18266  1.0000 0.9975402199
Mn  Mn5       1.0  0.85139  0.93734  0.81734  1.0000 0.9975402199
Mn  Mn6       1.0  0.00992  0.39337  0.34370  1.0000 1.024190589
Mn  Mn7       1.0  0.99008  0.60663  0.65630  1.0000 1.024190589
H   H1        1.0  0.42210  0.24780  0.38070  1.0000 0.1310205773
H   H2        1.0  0.57790  0.75220  0.61930  1.0000 0.1310205773
H   H3        1.0  0.41020  0.04520  0.12190  1.0000 0.1386435919
H   H4        1.0  0.58980  0.95480  0.87810  1.0000 0.1386435919
H   H5        1.0  0.85160  0.88620  0.05000  1.0000 0.1310205773
H   H6        1.0  0.14840  0.11380  0.95000  1.0000 0.1310205773
H   H7        1.0  0.76620  0.07150  0.15250  1.0000 0.1386435919
H   H8        1.0  0.23380  0.92850  0.84750  1.0000 0.1386435919
H   H9        1.0  0.33120  0.78550  0.96130  1.0000 0.1310205773
H   H10       1.0  0.66880  0.21450  0.03870  1.0000 0.1310205773
H   H11       1.0  0.68570  0.80760  0.00250  1.0000 0.1310205773
H   H12       1.0  0.31430  0.19240  0.99750  1.0000 0.1310205773
H   H13       1.0  0.69260  0.47950  0.55360  1.0000 0.1310205773
H   H14       1.0  0.30740  0.52050  0.44640  1.0000 0.1310205773
H   H15       1.0  0.93660  0.74380  0.02160  1.0000 0.1386435919
H   H16       1.0  0.06340  0.25620  0.97840  1.0000 0.1386435919
H   H17       1.0  0.20580  0.84730  0.98240  1.0000 0.1215235
H   H18       1.0  0.79420  0.15270  0.01760  1.0000 0.1215235
H   H19       1.0  0.15970  0.18910  0.40520  1.0000 0.1215235
H   H20       1.0  0.84030  0.81090  0.59480  1.0000 0.1215235
H   H21       1.0  0.78680  0.67090  0.81490  1.0000 0.1310205773
H   H22       1.0  0.21320  0.32910  0.18510  1.0000 0.1310205773
H   H23       1.0  0.92740  0.08820  0.29060  1.0000 0.1310205773
H   H24       1.0  0.07260  0.91180  0.70940  1.0000 0.1310205773
H   H25       1.0  0.89380  0.27730  0.05740  1.0000 0.1215235
H   H26       1.0  0.10620  0.72270  0.94260  1.0000 0.1215235
H   H27       1.0  0.75670  0.53000  0.81910  1.0000 0.1310205773
H   H28       1.0  0.24330  0.47000  0.18090  1.0000 0.1310205773
H   H29       1.0  0.02170  0.20670  0.49700  1.0000 0.1386435919
H   H30       1.0  0.97830  0.79330  0.50300  1.0000 0.1386435919
H   H31       1.0  0.98490  0.52340  0.16150  1.0000 0.1386435919
H   H32       1.0  0.01510  0.47660  0.83850  1.0000 0.1386435919
H   H33       1.0  0.64370  0.61120  0.71800  1.0000 0.1310205773
H   H34       1.0  0.35630  0.38880  0.28200  1.0000 0.1310205773
H   H35       1.0  0.48890  0.52030  0.68740  1.0000 0.1310205773
H   H36       1.0  0.51110  0.47970  0.31260  1.0000 0.1310205773
H   H37       1.0  0.92130  0.95780  0.32250  1.0000 0.1310205773
H   H38       1.0  0.07870  0.04220  0.67750  1.0000 0.1310205773
H   H39       1.0  0.22010  0.28000  0.51870  1.0000 0.1310205773
H   H40       1.0  0.77990  0.72000  0.48130  1.0000 0.1310205773
H   H41       1.0  0.81680  0.31470  0.95660  1.0000 0.1310205773
H   H42       1.0  0.18320  0.68530  0.04340  1.0000 0.1310205773
C   C1        1.0  0.62670  0.89310  0.04490  1.0000 -0.028494202
C   C2        1.0  0.37330  0.10690  0.95510  1.0000 -0.028494202
C   C3        1.0  0.38110  0.25620  0.40800  1.0000 -0.1006513196
C   C4        1.0  0.61890  0.74380  0.59200  1.0000 -0.1006513196
C   C5        1.0  0.29780  0.95140  0.05310  1.0000 -0.0222312232
C   C6        1.0  0.70220  0.04860  0.94690  1.0000 -0.0222312232
C   C7        1.0  0.82470  0.98580  0.10390  1.0000 -0.0105741266
C   C8        1.0  0.17530  0.01420  0.89610  1.0000 -0.0105741266
C   C9        1.0  0.65140  0.97230  0.09290  1.0000 -0.028494202
C   C10       1.0  0.34860  0.02770  0.90710  1.0000 -0.028494202
C   C11       1.0  0.41940  0.31440  0.47270  1.0000 -0.0222312232
C   C12       1.0  0.58060  0.68560  0.52730  1.0000 -0.0222312232
C   C13       1.0  0.98370  0.24250  0.37270  1.0000 0.5777494751
C   C14       1.0  0.01630  0.75750  0.62730  1.0000 0.5777494751
C   C15       1.0  0.68170  0.55730  0.63900  1.0000 -0.028494202
C   C16       1.0  0.31830  0.44270  0.36100  1.0000 -0.028494202
C   C17       1.0  0.39430  0.99350  0.08830  1.0000 -0.1006513196
C   C18       1.0  0.60570  0.00650  0.91170  1.0000 -0.1006513196
C   C19       1.0  0.97290  0.15880  0.39090  1.0000 -0.028494202
C   C20       1.0  0.02710  0.84120  0.60910  1.0000 -0.028494202
C   C21       1.0  0.88820  0.80860  0.90850  1.0000 0.5984415454
C   C22       1.0  0.11180  0.19140  0.09150  1.0000 0.5984415454
C   C23       1.0  0.80140  0.90880  0.06080  1.0000 -0.0911843678
C   C24       1.0  0.19860  0.09120  0.93920  1.0000 -0.0911843678
C   C25       1.0  0.92980  0.04010  0.13540  1.0000 0.5910198532
C   C26       1.0  0.07020  0.95990  0.86460  1.0000 0.5910198532
C   C27       1.0  0.47100  0.96010  0.07460  1.0000 -0.0414043682
C   C28       1.0  0.52900  0.03990  0.92540  1.0000 -0.0414043682
C   C29       1.0  0.74920  0.01800  0.12110  1.0000 -0.1006513196
C   C30       1.0  0.25080  0.98200  0.87890  1.0000 -0.1006513196
C   C31       1.0  0.55500  0.43630  0.55980  1.0000 -0.0414043682
C   C32       1.0  0.44500  0.56370  0.44020  1.0000 -0.0414043682
C   C33       1.0  0.21720  0.98500  0.06910  1.0000 0.5984415454
C   C34       1.0  0.78280  0.01500  0.93090  1.0000 0.5984415454
C   C35       1.0  0.57430  0.00880  0.10930  1.0000 0.3116432793
C   C36       1.0  0.42570  0.99120  0.89070  1.0000 0.3116432793
C   C37       1.0  0.44400  0.88250  0.02780  1.0000 0.0018014251
C   C38       1.0  0.55600  0.11750  0.97220  1.0000 0.0018014251
C   C39       1.0  0.34760  0.83870  0.99310  1.0000 -0.1006513196
C   C40       1.0  0.65240  0.16130  0.00690  1.0000 -0.0911843678
C   C41       1.0  0.70150  0.86230  0.03200  1.0000 -0.0830343473
C   C42       1.0  0.29850  0.13770  0.96800  1.0000 -0.0830343473
C   C43       1.0  0.52490  0.84530  0.01430  1.0000 0.3226708256
C   C44       1.0  0.47510  0.15470  0.98570  1.0000 0.3226708256
C   C45       1.0  0.28220  0.21020  0.38370  1.0000 -0.028494202
C   C46       1.0  0.71780  0.78980  0.61630  1.0000 -0.028494202
C   C47       1.0  0.65010  0.48910  0.57960  1.0000 -0.1006513196
C   C48       1.0  0.34990  0.51090  0.42040  1.0000 -0.1006513196
C   C49       1.0  0.78230  0.61420  0.65990  1.0000 0.5910198532
C   C50       1.0  0.21770  0.38580  0.34010  1.0000 0.5910198532
C   C51       1.0  0.90020  0.70070  0.98050  1.0000 -0.1006513196
C   C52       1.0  0.09980  0.29930  0.01950  1.0000 -0.1006513196
C   C53       1.0  0.90860  0.50300  0.05500  1.0000 -0.0222312232
C   C54       1.0  0.09140  0.49700  0.94500  1.0000 -0.0222312232
C   C55       1.0  0.27350  0.87560  0.00640  1.0000 -0.0911843678
C   C56       1.0  0.72650  0.12440  0.99360  1.0000 -0.0911843678
C   C57       1.0  0.22690  0.22070  0.42310  1.0000 -0.0830343473
C   C58       1.0  0.77310  0.77930  0.57690  1.0000 -0.0830343473
C   C59       1.0  0.36030  0.32600  0.51330  1.0000 -0.0105741266
C   C60       1.0  0.63970  0.67400  0.48670  1.0000 -0.0105741266
C   C61       1.0  0.24070  0.15620  0.31280  1.0000 0.5777494751
C   C62       1.0  0.75930  0.84380  0.68720  1.0000 0.5777494751
C   C63       1.0  0.52320  0.36820  0.49810  1.0000 0.3226708256
C   C64       1.0  0.47680  0.63180  0.50190  1.0000 0.3226708256
C   C65       1.0  0.94300  0.39770  0.12080  1.0000 -0.0105741266
C   C66       1.0  0.05700  0.60230  0.87920  1.0000 -0.0105741266
C   C67       1.0  0.81210  0.65670  0.85860  1.0000 -0.0911843678
C   C68       1.0  0.18790  0.34330  0.14140  1.0000 -0.0911843678
C   C69       1.0  0.86550  0.72060  0.91660  1.0000 -0.028494202
C   C70       1.0  0.13450  0.27940  0.08340  1.0000 -0.028494202
C   C71       1.0  0.94450  0.08580  0.33850  1.0000 -0.0911843678
C   C72       1.0  0.05550  0.91420  0.66150  1.0000 -0.0911843678
C   C73       1.0  0.82910  0.55100  0.92550  1.0000 -0.0105741266
C   C74       1.0  0.17090  0.44900  0.07450  1.0000 -0.0105741266
C   C75       1.0  0.98380  0.36870  0.18690  1.0000 0.5984415454
C   C76       1.0  0.01620  0.63130  0.81310  1.0000 0.5984415454
C   C77       1.0  0.49750  0.44500  0.60130  1.0000 -0.0105741266
C   C78       1.0  0.50250  0.55500  0.39870  1.0000 -0.0105741266
C   C79       1.0  0.88030  0.61370  0.98380  1.0000 -0.028494202
C   C80       1.0  0.11970  0.38630  0.01620  1.0000 -0.028494202
C   C81       1.0  0.89550  0.33490  0.05770  1.0000 -0.1006513196
C   C82       1.0  0.10450  0.66510  0.94230  1.0000 -0.1006513196
C   C83       1.0  0.85830  0.43980  0.99460  1.0000 -0.028494202
C   C84       1.0  0.14170  0.56020  0.00540  1.0000 -0.028494202
C   C85       1.0  0.79320  0.57250  0.86060  1.0000 -0.1006513196
C   C86       1.0  0.20680  0.42750  0.13940  1.0000 -0.1006513196
C   C87       1.0  0.00070  0.15590  0.46170  1.0000 -0.0911843678
C   C88       1.0  0.99930  0.84410  0.53830  1.0000 -0.0911843678
C   C89       1.0  0.39700  0.39030  0.57990  1.0000 0.3226708256
C   C90       1.0  0.60300  0.60970  0.42010  1.0000 0.3226708256
C   C91       1.0  0.95120  0.48080  0.11960  1.0000 -0.1108049981
C   C92       1.0  0.04880  0.51920  0.88040  1.0000 -0.1108049981
C   C93       1.0  0.62160  0.56610  0.67750  1.0000 -0.0830343473
C   C94       1.0  0.37840  0.43390  0.32250  1.0000 -0.0830343473
C   C95       1.0  0.96820  0.00490  0.42710  1.0000 -0.0042628285
C   C96       1.0  0.03180  0.99510  0.57290  1.0000 -0.0105741266
C   C97       1.0  0.52970  0.51200  0.65990  1.0000 -0.0911843678
C   C98       1.0  0.47030  0.48800  0.34010  1.0000 -0.0911843678
C   C99       1.0  0.91640  0.59380  0.05240  1.0000 0.3226708256
C   C100      1.0  0.08360  0.40620  0.94760  1.0000 0.3226708256
C   C101      1.0  0.99750  0.07980  0.48010  1.0000 -0.028494202
C   C102      1.0  0.00250  0.92020  0.51990  1.0000 -0.028494202
C   C103      1.0  0.94180  0.00850  0.35780  1.0000 -0.0911843678
C   C104      1.0  0.05820  0.99150  0.64220  1.0000 -0.0911843678
C   C105      1.0  0.26090  0.27630  0.49060  1.0000 -0.0911843678
C   C106      1.0  0.73910  0.72370  0.50940  1.0000 -0.0911843678
C   C107      1.0  0.85250  0.35760  0.99800  1.0000 -0.0911843678
C   C108      1.0  0.14750  0.64240  0.00200  1.0000 -0.0911843678
C   C109      1.0  0.96690  0.92280  0.44630  1.0000 0.3116432793
C   C110      1.0  0.03310  0.07720  0.55370  1.0000 0.3116432793
C   C111      1.0  0.81690  0.46110  0.92710  1.0000 0.3226708256
C   C112      1.0  0.18310  0.53890  0.07290  1.0000 0.3226708256
O   O1        1.0  0.98410  0.24640  0.31060  1.0000 -0.5939164318
O   O2        1.0  0.01590  0.75360  0.68940  1.0000 -0.5939164318
O   O3        1.0  0.94850  0.10370  0.17870  1.0000 -0.4832572646
O   O4        1.0  0.05150  0.89630  0.82130  1.0000 -0.4832572646
O   O5        1.0  0.23990  0.03880  0.12600  1.0000 -0.5403449692
O   O6        1.0  0.76010  0.96120  0.87400  1.0000 -0.5403449692
O   O7        1.0  0.14560  0.13700  0.28454  1.0000 -0.5834215439
O   O8        1.0  0.85440  0.86300  0.71546  1.0000 -0.5834215439
O   O9        1.0  0.92210  0.86680  0.96110  1.0000 -0.5220990933
O   O10       1.0  0.07790  0.13320  0.03890  1.0000 -0.5220990933
O   O11       1.0  0.98410  0.29210  0.17700  1.0000 -0.5510238267
O   O12       1.0  0.01590  0.70790  0.82300  1.0000 -0.5510238267
O   O13       1.0  0.12990  0.95540  0.02620  1.0000 -0.5621294138
O   O14       1.0  0.87010  0.04460  0.97380  1.0000 -0.5621294138
O   O15       1.0  0.86940  0.81870  0.84680  1.0000 -0.5621294138
O   O16       1.0  0.13060  0.18130  0.15320  1.0000 -0.5621294138
O   O17       1.0  0.83650  0.59480  0.62560  1.0000 -0.5510238267
O   O18       1.0  0.16350  0.40520  0.37440  1.0000 -0.5510238267
O   O19       1.0  0.99390  0.01150  0.11237  1.0000 -0.5996855058
O   O20       1.0  0.00610  0.98850  0.88763  1.0000 -0.5996855058
O   O21       1.0  0.80760  0.67920  0.70850  1.0000 -0.5621294138
O   O22       1.0  0.19240  0.32080  0.29150  1.0000 -0.5621294138
O   O23       1.0  0.99510  0.30870  0.41630  1.0000 -0.5127939738
O   O24       1.0  0.00490  0.69130  0.58370  1.0000 -0.5127939738
O   O25       1.0  0.29080  0.12980  0.27890  1.0000 -0.4832572646
O   O26       1.0  0.70920  0.87020  0.72110  1.0000 -0.4832572646
O   O27       1.0  0.59510  0.07620  0.15200  1.0000 -0.3737502999
O   O28       1.0  0.40490  0.92380  0.84800  1.0000 -0.3737502999
O   O29       1.0  0.50220  0.77560  0.97210  1.0000 -0.3737502999
O   O30       1.0  0.49780  0.22440  0.02790  1.0000 -0.3737502999
O   O31       1.0  0.00730  0.42150  0.24430  1.0000 -0.5695349134
O   O32       1.0  0.99270  0.57850  0.75570  1.0000 -0.5695349134
O   O33       1.0  0.57550  0.35370  0.46320  1.0000 -0.3619004421
O   O34       1.0  0.42450  0.64630  0.53680  1.0000 -0.3619004421
O   O35       1.0  0.34700  0.39690  0.61900  1.0000 -0.3788026057
O   O36       1.0  0.65300  0.60310  0.38100  1.0000 -0.3788026057
O   O37       1.0  0.95590  0.64860  0.10760  1.0000 -0.3788026057
O   O38       1.0  0.04410  0.35140  0.89240  1.0000 -0.3788026057
O   O39       1.0  0.94160  0.85690  0.39900  1.0000 -0.3981487907
O   O40       1.0  0.05840  0.14310  0.60100  1.0000 -0.3981487907
O   O41       1.0  0.76420  0.40590  0.87370  1.0000 -0.3619004421
O   O42       1.0  0.23580  0.59410  0.12630  1.0000 -0.3619004421
