# DDEC6 charges by PACMAN v1.1 (https://github.com/mtap-research/PACMAN-charge/)
data_2016[CuGd][nan]3[ASR]1
_chemical_formula_sum              "Gd2 Cu8 H48 C72 I8 N6 O12"
_cell_length_a       9.6323
_cell_length_b       16.676
_cell_length_c       21.182
_cell_angle_alpha    104.08
_cell_angle_beta     100.39
_cell_angle_gamma    97.03

_symmetry_space_group_name_H-M    "P 1"
_symmetry_Int_Tables_number       1

loop_
  _symmetry_equiv_pos_as_xyz
  'x, y, z'

loop_
  _atom_site_type_symbol
  _atom_site_label
  _atom_site_symmetry_multiplicity
  _atom_site_fract_x
  _atom_site_fract_y
  _atom_site_fract_z
  _atom_site_occupancy
  _atom_site_charge
Gd  Gd1       1.0  0.77664  0.01350  0.49731  1.0000 2.1043401599
Gd  Gd2       1.0  0.22336  0.98650  0.50269  1.0000 2.1043401599
Cu  Cu1       1.0  0.46200  0.31722  0.09884  1.0000 0.1429232821
Cu  Cu2       1.0  0.53800  0.68278  0.90116  1.0000 0.1429232821
Cu  Cu3       1.0  0.51374  0.44241  0.04037  1.0000 0.1429232821
Cu  Cu4       1.0  0.48626  0.55759  0.95963  1.0000 0.1429232821
Cu  Cu5       1.0  0.31938  0.44455  0.12205  1.0000 0.1514862766
Cu  Cu6       1.0  0.68062  0.55545  0.87795  1.0000 0.155445987
Cu  Cu7       1.0  0.25496  0.32682  0.00169  1.0000 0.1514862766
Cu  Cu8       1.0  0.74504  0.67318  0.99831  1.0000 0.1514862766
H   H1        1.0  0.46580  0.18620  0.17590  1.0000 0.1089988324
H   H2        1.0  0.53420  0.81380  0.82410  1.0000 0.1089988324
H   H3        1.0  0.62750  0.12320  0.23030  1.0000 0.1200157951
H   H4        1.0  0.37250  0.87680  0.76970  1.0000 0.1200157951
H   H5        1.0  0.93010  0.24650  0.16970  1.0000 0.1295833007
H   H6        1.0  0.06990  0.75350  0.83030  1.0000 0.1295833007
H   H7        1.0  0.76470  0.30470  0.11690  1.0000 0.1089988324
H   H8        1.0  0.23530  0.69530  0.88310  1.0000 0.1089988324
H   H9        1.0  0.81400  0.13670  0.32270  1.0000 0.1200157951
H   H10       1.0  0.18600  0.86330  0.67730  1.0000 0.1200157951
H   H11       1.0  0.19100  0.05620  0.34180  1.0000 0.1200157951
H   H12       1.0  0.80900  0.94380  0.65820  1.0000 0.1200157951
H   H13       1.0  0.21720  0.08180  0.24260  1.0000 0.1200157951
H   H14       1.0  0.78280  0.91820  0.75740  1.0000 0.1200157951
H   H15       1.0  0.04170  0.13250  0.18160  1.0000 0.1200157951
H   H16       1.0  0.95830  0.86750  0.81840  1.0000 0.1200157951
H   H17       1.0  0.63880  0.38420  0.77570  1.0000 0.1089988324
H   H18       1.0  0.36120  0.61580  0.22430  1.0000 0.1089988324
H   H19       1.0  0.77490  0.29010  0.73360  1.0000 0.1295833007
H   H20       1.0  0.22510  0.70990  0.26640  1.0000 0.1295833007
H   H21       1.0  0.12100  0.45610  0.84100  1.0000 0.1295833007
H   H22       1.0  0.87900  0.54390  0.15900  1.0000 0.1295833007
H   H23       1.0  0.97640  0.54600  0.87750  1.0000 0.1041604594
H   H24       1.0  0.02360  0.45400  0.12250  1.0000 0.1041604594
H   H25       1.0  0.93400  0.24120  0.66960  1.0000 0.1200157951
H   H26       1.0  0.06600  0.75880  0.33040  1.0000 0.1200157951
H   H27       1.0  0.31730  0.16930  0.69570  1.0000 0.1089988324
H   H28       1.0  0.68270  0.83070  0.30430  1.0000 0.1089988324
H   H29       1.0  0.38750  0.26760  0.79950  1.0000 0.1089988324
H   H30       1.0  0.61250  0.73240  0.20050  1.0000 0.1089988324
H   H31       1.0  0.22590  0.34860  0.83790  1.0000 0.1089988324
H   H32       1.0  0.77410  0.65140  0.16210  1.0000 0.1089988324
H   H33       1.0  0.16530  0.17550  0.88210  1.0000 0.1041604594
H   H34       1.0  0.83470  0.82450  0.11790  1.0000 0.1041604594
H   H35       1.0  0.96840  0.10110  0.80620  1.0000 0.1295833007
H   H36       1.0  0.03160  0.89890  0.19380  1.0000 0.1295833007
H   H37       1.0  0.73790  0.25990  0.89640  1.0000 0.1295833007
H   H38       1.0  0.26210  0.74010  0.10360  1.0000 0.1295833007
H   H39       1.0  0.94780  0.33340  0.96660  1.0000 0.1041604594
H   H40       1.0  0.05220  0.66667  0.03340  1.0000 0.1041604594
H   H41       1.0  0.76800  0.10690  0.71030  1.0000 0.1200157951
H   H42       1.0  0.23200  0.89310  0.28970  1.0000 0.1200157951
H   H43       1.0  0.35570  0.00010  0.67650  1.0000 0.1200157951
H   H44       1.0  0.64430  0.99990  0.32350  1.0000 0.1200157951
H   H45       1.0  0.36570  0.04270  0.79070  1.0000 0.1200157951
H   H46       1.0  0.63430  0.95730  0.20930  1.0000 0.1200157951
H   H47       1.0  0.57170  0.12190  0.86320  1.0000 0.1200157951
H   H48       1.0  0.42830  0.87810  0.13680  1.0000 0.1200157951
C   C1        1.0  0.56180  0.19930  0.17490  1.0000 0.069865085
C   C2        1.0  0.43820  0.80070  0.82510  1.0000 0.069865085
C   C3        1.0  0.65960  0.16160  0.20860  1.0000 -0.2072046459
C   C4        1.0  0.34040  0.83840  0.79140  1.0000 -0.2072046459
C   C5        1.0  0.80390  0.18010  0.21030  1.0000 0.1089988324
C   C6        1.0  0.19610  0.81990  0.78970  1.0000 0.1089988324
C   C7        1.0  0.83550  0.23350  0.17300  1.0000 -0.1887083958
C   C8        1.0  0.16450  0.76650  0.82700  1.0000 -0.1887083958
C   C9        1.0  0.73510  0.26830  0.14080  1.0000 0.069865085
C   C10       1.0  0.26490  0.73170  0.85920  1.0000 0.0647829413
C   C11       1.0  0.90920  0.14300  0.24620  1.0000 0.0529107603
C   C12       1.0  0.09080  0.85700  0.75380  1.0000 0.0529107603
C   C13       1.0  0.89530  0.12620  0.30640  1.0000 -0.1372195442
C   C14       1.0  0.10470  0.87380  0.69360  1.0000 -0.1372195442
C   C15       1.0  0.99840  0.09440  0.34240  1.0000 -0.0138245778
C   C16       1.0  0.00160  0.90560  0.65760  1.0000 -0.0138245778
C   C17       1.0  0.12060  0.07760  0.31790  1.0000 -0.1129326358
C   C18       1.0  0.87940  0.92240  0.68210  1.0000 -0.1129326358
C   C19       1.0  0.13590  0.09260  0.25880  1.0000 -0.100398824
C   C20       1.0  0.86410  0.90740  0.74120  1.0000 -0.100398824
C   C21       1.0  0.03080  0.12400  0.22240  1.0000 -0.1372195442
C   C22       1.0  0.96920  0.87600  0.77760  1.0000 -0.1372195442
C   C23       1.0  0.97810  0.07470  0.40660  1.0000 0.6447887361
C   C24       1.0  0.02190  0.92530  0.59340  1.0000 0.6447887361
C   C25       1.0  0.73800  0.39900  0.78900  1.0000 0.069865085
C   C26       1.0  0.26200  0.60100  0.21100  1.0000 0.069865085
C   C27       1.0  0.81920  0.34160  0.76310  1.0000 -0.2072046459
C   C28       1.0  0.18080  0.65840  0.23690  1.0000 -0.2072046459
C   C29       1.0  0.96580  0.36150  0.78150  1.0000 0.1200157951
C   C30       1.0  0.03420  0.63850  0.21850  1.0000 0.1200157951
C   C31       1.0  0.02220  0.44000  0.82630  1.0000 -0.1887083958
C   C32       1.0  0.97780  0.56000  0.17370  1.0000 -0.1887083958
C   C33       1.0  0.93470  0.49350  0.84880  1.0000 0.069865085
C   C34       1.0  0.06530  0.50650  0.15120  1.0000 0.069865085
C   C35       1.0  0.06230  0.30470  0.75690  1.0000 0.0529107603
C   C36       1.0  0.93770  0.69530  0.24310  1.0000 0.0529107603
C   C37       1.0  0.02470  0.24650  0.69590  1.0000 -0.149909059
C   C38       1.0  0.97530  0.75350  0.30410  1.0000 -0.149909059
C   C39       1.0  0.11860  0.19450  0.67190  1.0000 -0.0295595567
C   C40       1.0  0.88140  0.80550  0.32810  1.0000 -0.0295595567
C   C41       1.0  0.25380  0.20300  0.71110  1.0000 -0.100398824
C   C42       1.0  0.74620  0.79700  0.28890  1.0000 -0.100398824
C   C43       1.0  0.29610  0.26160  0.77350  1.0000 -0.100398824
C   C44       1.0  0.70390  0.73840  0.22650  1.0000 -0.100398824
C   C45       1.0  0.19930  0.31060  0.79580  1.0000 -0.128640762
C   C46       1.0  0.80070  0.68940  0.20420  1.0000 -0.128640762
C   C47       1.0  0.07600  0.13240  0.60500  1.0000 0.6474735975
C   C48       1.0  0.92400  0.86760  0.39500  1.0000 0.6474735975
C   C49       1.0  0.07800  0.19320  0.88450  1.0000 0.069865085
C   C50       1.0  0.92200  0.80680  0.11550  1.0000 0.069865085
C   C51       1.0  0.96010  0.14760  0.83910  1.0000 -0.1887083958
C   C52       1.0  0.03990  0.85240  0.16090  1.0000 -0.1887083958
C   C53       1.0  0.82560  0.17050  0.84160  1.0000 0.1089988324
C   C54       1.0  0.17440  0.82950  0.15840  1.0000 0.1089988324
C   C55       1.0  0.82390  0.24160  0.89170  1.0000 -0.1953227729
C   C56       1.0  0.17610  0.75840  0.10830  1.0000 -0.1953227729
C   C57       1.0  0.95100  0.28490  0.93440  1.0000 0.0794815958
C   C58       1.0  0.04900  0.71510  0.06560  1.0000 0.0794815958
C   C59       1.0  0.69330  0.12270  0.79530  1.0000 0.0529107603
C   C60       1.0  0.30670  0.87730  0.20470  1.0000 0.0529107603
C   C61       1.0  0.68670  0.09470  0.72650  1.0000 -0.149909059
C   C62       1.0  0.31330  0.90530  0.27350  1.0000 -0.149909059
C   C63       1.0  0.56250  0.04970  0.68250  1.0000 -0.0295595567
C   C64       1.0  0.43750  0.95030  0.31750  1.0000 -0.0295595567
C   C65       1.0  0.44000  0.03020  0.70590  1.0000 -0.1129326358
C   C66       1.0  0.56000  0.96980  0.29410  1.0000 -0.1129326358
C   C67       1.0  0.44600  0.05660  0.77430  1.0000 -0.100398824
C   C68       1.0  0.55400  0.94340  0.22570  1.0000 -0.100398824
C   C69       1.0  0.57050  0.10330  0.81800  1.0000 -0.1372195442
C   C70       1.0  0.42950  0.89670  0.18200  1.0000 -0.1372195442
C   C71       1.0  0.55700  0.02350  0.60890  1.0000 0.6474735975
C   C72       1.0  0.44300  0.97650  0.39110  1.0000 0.6474735975
I   I1        1.0  0.58871  0.47754  0.17426  1.0000 -0.2577979624
I   I2        1.0  0.41129  0.52246  0.82574  1.0000 -0.2577979624
I   I3        1.0  0.48967  0.27962  0.97062  1.0000 -0.2855322123
I   I4        1.0  0.51033  0.72038  0.02938  1.0000 -0.2855322123
I   I5        1.0  0.19593  0.28844  0.11258  1.0000 -0.329649052
I   I6        1.0  0.80407  0.71156  0.88742  1.0000 -0.329649052
I   I7        1.0  0.26220  0.48978  0.99999  1.0000 -0.2406321824
I   I8        1.0  0.73780  0.51022  0.00001  1.0000 -0.2406321824
N   N1        1.0  0.59780  0.25340  0.14120  1.0000 -0.1690825283
N   N2        1.0  0.40220  0.74660  0.85880  1.0000 -0.1690825283
N   N3        1.0  0.79200  0.47410  0.83160  1.0000 -0.1765198022
N   N4        1.0  0.20800  0.52590  0.16840  1.0000 -0.1765198022
N   N5        1.0  0.07730  0.26190  0.93240  1.0000 -0.1765198022
N   N6        1.0  0.92270  0.73810  0.06760  1.0000 -0.1765198022
O   O1        1.0  0.85930  0.08360  0.42211  1.0000 -0.6459329486
O   O2        1.0  0.14070  0.91640  0.57789  1.0000 -0.6459329486
O   O3        1.0  0.07660  0.05090  0.43990  1.0000 -0.6871705214
O   O4        1.0  0.92340  0.94910  0.56010  1.0000 -0.6871705214
O   O5        1.0  0.95160  0.12450  0.57207  1.0000 -0.6416334271
O   O6        1.0  0.04840  0.87550  0.42793  1.0000 -0.6416334271
O   O7        1.0  0.17040  0.09140  0.58677  1.0000 -0.6871705214
O   O8        1.0  0.82960  0.90860  0.41323  1.0000 -0.6871705214
O   O9        1.0  0.66940  0.04320  0.59008  1.0000 -0.6712450743
O   O10       1.0  0.33060  0.95680  0.40992  1.0000 -0.6712450743
O   O11       1.0  0.44110  0.98430  0.57023  1.0000 -0.6871705214
O   O12       1.0  0.55890  0.01570  0.42977  1.0000 -0.6871705214
