# DDEC6 charges by PACMAN v1.1 (https://github.com/mtap-research/PACMAN-charge/)
data_2016[Zn][ths]3[ASR]6
_chemical_formula_sum              "Zn12 H96 C144 I24 N48"
_cell_length_a       19.1835
_cell_length_b       19.1835
_cell_length_c       30.914
_cell_angle_alpha    78.8656
_cell_angle_beta     101.134
_cell_angle_gamma    133.607

_symmetry_space_group_name_H-M    "P 1"
_symmetry_Int_Tables_number       1

loop_
  _symmetry_equiv_pos_as_xyz
  'x, y, z'

loop_
  _atom_site_type_symbol
  _atom_site_label
  _atom_site_symmetry_multiplicity
  _atom_site_fract_x
  _atom_site_fract_y
  _atom_site_fract_z
  _atom_site_occupancy
  _atom_site_charge
Zn  Zn1       1.0  0.95951  0.80017  0.09511  1.0000 0.46252495
Zn  Zn2       1.0  0.19983  0.04049  0.59511  1.0000 0.46252495
Zn  Zn3       1.0  0.53620  0.18138  0.78001  1.0000 0.4493302027
Zn  Zn4       1.0  0.81862  0.46380  0.28001  1.0000 0.4493302027
Zn  Zn5       1.0  0.28585  0.53537  0.43649  1.0000 0.46252495
Zn  Zn6       1.0  0.46463  0.71415  0.93649  1.0000 0.4652236397
Zn  Zn7       1.0  0.80017  0.95951  0.40489  1.0000 0.46252495
Zn  Zn8       1.0  0.04049  0.19983  0.90489  1.0000 0.46252495
Zn  Zn9       1.0  0.18138  0.53620  0.71999  1.0000 0.4493302027
Zn  Zn10      1.0  0.46380  0.81862  0.21999  1.0000 0.4493302027
Zn  Zn11      1.0  0.53537  0.28585  0.06351  1.0000 0.4652236397
Zn  Zn12      1.0  0.71415  0.46463  0.56351  1.0000 0.4652236397
H   H1        1.0  0.18300  0.55460  0.35380  1.0000 0.1089513872
H   H2        1.0  0.44540  0.81700  0.85380  1.0000 0.1089513872
H   H3        1.0  0.44180  0.08480  0.86640  1.0000 0.1089513872
H   H4        1.0  0.91520  0.55820  0.36640  1.0000 0.1089513872
H   H5        1.0  0.12000  0.73520  0.22050  1.0000 0.1310633277
H   H6        1.0  0.26480  0.88000  0.72050  1.0000 0.1310633277
H   H7        1.0  0.45930  0.87010  0.37110  1.0000 0.1391611216
H   H8        1.0  0.12990  0.54070  0.87110  1.0000 0.1391611216
H   H9        1.0  0.15490  0.13810  0.02310  1.0000 0.1391611216
H   H10       1.0  0.86190  0.84510  0.52310  1.0000 0.1391611216
H   H11       1.0  0.40320  0.54440  0.00250  1.0000 0.1089513872
H   H12       1.0  0.45560  0.59680  0.50250  1.0000 0.1089513872
H   H13       1.0  0.60810  0.10730  0.32260  1.0000 0.1391611216
H   H14       1.0  0.89270  0.39190  0.82260  1.0000 0.1391611216
H   H15       1.0  0.04010  0.00390  0.06710  1.0000 0.1089513872
H   H16       1.0  0.99610  0.95990  0.56710  1.0000 0.1089513872
H   H17       1.0  0.51400  0.31380  0.79460  1.0000 0.1039352113
H   H18       1.0  0.68620  0.48600  0.29460  1.0000 0.1039352113
H   H19       1.0  0.20240  0.67300  0.30540  1.0000 0.1310633277
H   H20       1.0  0.32700  0.79760  0.80540  1.0000 0.1310633277
H   H21       1.0  0.44750  0.33150  0.84060  1.0000 0.1391611216
H   H22       1.0  0.66850  0.55250  0.34060  1.0000 0.1391611216
H   H23       1.0  0.61560  0.33720  0.23970  1.0000 0.1039352113
H   H24       1.0  0.66280  0.38440  0.73970  1.0000 0.1039352113
H   H25       1.0  0.00860  0.70000  0.16260  1.0000 0.1089513872
H   H26       1.0  0.30000  0.99140  0.66260  1.0000 0.1089513872
H   H27       1.0  0.43070  0.74630  0.41810  1.0000 0.1089513872
H   H28       1.0  0.25370  0.56930  0.91810  1.0000 0.1089513872
H   H29       1.0  0.47470  0.17810  0.23850  1.0000 0.1391611216
H   H30       1.0  0.82190  0.52530  0.73850  1.0000 0.1391611216
H   H31       1.0  0.17860  0.97740  0.97450  1.0000 0.1391611216
H   H32       1.0  0.02260  0.82140  0.47450  1.0000 0.1391611216
H   H33       1.0  0.06290  0.84670  0.01950  1.0000 0.1089513872
H   H34       1.0  0.15330  0.93710  0.51950  1.0000 0.1089513872
H   H35       1.0  0.36860  0.09280  0.91360  1.0000 0.1310633277
H   H36       1.0  0.90720  0.63140  0.41360  1.0000 0.1310633277
H   H37       1.0  0.42690  0.58890  0.87560  1.0000 0.1089513872
H   H38       1.0  0.41110  0.57310  0.37560  1.0000 0.1089513872
H   H39       1.0  0.35850  0.39810  0.00530  1.0000 0.1391611216
H   H40       1.0  0.60190  0.64150  0.50530  1.0000 0.1391611216
H   H41       1.0  0.27370  0.01610  0.18570  1.0000 0.1310633277
H   H42       1.0  0.98390  0.72630  0.68570  1.0000 0.1391611216
H   H43       1.0  0.15650  0.97210  0.12910  1.0000 0.1039352113
H   H44       1.0  0.02790  0.84350  0.62910  1.0000 0.1039352113
H   H45       1.0  0.74710  0.26930  0.32130  1.0000 0.1089513872
H   H46       1.0  0.73070  0.25290  0.82130  1.0000 0.1089513872
H   H47       1.0  0.38330  0.44370  0.87450  1.0000 0.1391611216
H   H48       1.0  0.55630  0.61670  0.37450  1.0000 0.1391611216
H   H49       1.0  0.55460  0.18300  0.14620  1.0000 0.1089513872
H   H50       1.0  0.81700  0.44540  0.64620  1.0000 0.1089513872
H   H51       1.0  0.08480  0.44180  0.63360  1.0000 0.1089513872
H   H52       1.0  0.55820  0.91520  0.13360  1.0000 0.1089513872
H   H53       1.0  0.73520  0.12000  0.27950  1.0000 0.1310633277
H   H54       1.0  0.88000  0.26480  0.77950  1.0000 0.1310633277
H   H55       1.0  0.87010  0.45930  0.12890  1.0000 0.1391611216
H   H56       1.0  0.54070  0.12990  0.62890  1.0000 0.1391611216
H   H57       1.0  0.13810  0.15490  0.47690  1.0000 0.1391611216
H   H58       1.0  0.84510  0.86190  0.97690  1.0000 0.1391611216
H   H59       1.0  0.54440  0.40320  0.49750  1.0000 0.1089513872
H   H60       1.0  0.59680  0.45560  0.99750  1.0000 0.1089513872
H   H61       1.0  0.10730  0.60810  0.17740  1.0000 0.1391611216
H   H62       1.0  0.39190  0.89270  0.67740  1.0000 0.1391611216
H   H63       1.0  0.00390  0.04010  0.43290  1.0000 0.1089513872
H   H64       1.0  0.95990  0.99610  0.93290  1.0000 0.1089513872
H   H65       1.0  0.31380  0.51400  0.70540  1.0000 0.1039352113
H   H66       1.0  0.48600  0.68620  0.20540  1.0000 0.1039352113
H   H67       1.0  0.67300  0.20240  0.19460  1.0000 0.1310633277
H   H68       1.0  0.79760  0.32700  0.69460  1.0000 0.1310633277
H   H69       1.0  0.33150  0.44750  0.65940  1.0000 0.1391611216
H   H70       1.0  0.55250  0.66850  0.15940  1.0000 0.1391611216
H   H71       1.0  0.33720  0.61560  0.26030  1.0000 0.1039352113
H   H72       1.0  0.38440  0.66280  0.76030  1.0000 0.1039352113
H   H73       1.0  0.70000  0.00860  0.33740  1.0000 0.1089513872
H   H74       1.0  0.99140  0.30000  0.83740  1.0000 0.1089513872
H   H75       1.0  0.74630  0.43070  0.08190  1.0000 0.1089513872
H   H76       1.0  0.56930  0.25370  0.58190  1.0000 0.1089513872
H   H77       1.0  0.17810  0.47470  0.26150  1.0000 0.1391611216
H   H78       1.0  0.52530  0.82190  0.76150  1.0000 0.1391611216
H   H79       1.0  0.97740  0.17860  0.52550  1.0000 0.1391611216
H   H80       1.0  0.82140  0.02260  0.02550  1.0000 0.1391611216
H   H81       1.0  0.84670  0.06290  0.48050  1.0000 0.1089513872
H   H82       1.0  0.93710  0.15330  0.98050  1.0000 0.1089513872
H   H83       1.0  0.09280  0.36860  0.58640  1.0000 0.1310633277
H   H84       1.0  0.63140  0.90720  0.08640  1.0000 0.1310633277
H   H85       1.0  0.58890  0.42690  0.62440  1.0000 0.1089513872
H   H86       1.0  0.57310  0.41110  0.12440  1.0000 0.1089513872
H   H87       1.0  0.39810  0.35850  0.49470  1.0000 0.1391611216
H   H88       1.0  0.64150  0.60190  0.99470  1.0000 0.1391611216
H   H89       1.0  0.01610  0.27370  0.31430  1.0000 0.1310633277
H   H90       1.0  0.72630  0.98390  0.81430  1.0000 0.1310633277
H   H91       1.0  0.97210  0.15650  0.37090  1.0000 0.1039352113
H   H92       1.0  0.84350  0.02790  0.87090  1.0000 0.1039352113
H   H93       1.0  0.26930  0.74710  0.17870  1.0000 0.1089513872
H   H94       1.0  0.25290  0.73070  0.67870  1.0000 0.1089513872
H   H95       1.0  0.44370  0.38330  0.62550  1.0000 0.1391611216
H   H96       1.0  0.61670  0.55630  0.12550  1.0000 0.1391611216
C   C1        1.0  0.21232  0.88048  0.20890  1.0000 0.0601199071
C   C2        1.0  0.11952  0.78768  0.70890  1.0000 0.0601199071
C   C3        1.0  0.34297  0.31243  0.94042  1.0000 0.3680065567
C   C4        1.0  0.68757  0.65703  0.44042  1.0000 0.3680065567
C   C5        1.0  0.23850  0.61890  0.35750  1.0000 0.0818615505
C   C6        1.0  0.38110  0.76150  0.85750  1.0000 0.0818615505
C   C7        1.0  0.28756  0.90744  0.24520  1.0000 0.3680065567
C   C8        1.0  0.09256  0.71244  0.74520  1.0000 0.3680065567
C   C9        1.0  0.25652  0.15768  0.96636  1.0000 0.3799315164
C   C10       1.0  0.84232  0.74348  0.46636  1.0000 0.3799315164
C   C11       1.0  0.39912  0.21268  0.88200  1.0000 0.0694814972
C   C12       1.0  0.78732  0.60088  0.38200  1.0000 0.0601199071
C   C13       1.0  0.33323  0.78617  0.33333  1.0000 0.0601199071
C   C14       1.0  0.21383  0.66677  0.83330  1.0000 0.0601199071
C   C15       1.0  0.35440  0.22160  0.91207  1.0000 0.3799315164
C   C16       1.0  0.77840  0.64560  0.41207  1.0000 0.3799315164
C   C17       1.0  0.44180  0.13420  0.86100  1.0000 0.0876216048
C   C18       1.0  0.86580  0.55820  0.36100  1.0000 0.0876216048
C   C19       1.0  0.18103  0.07217  0.99467  1.0000 0.0601199071
C   C20       1.0  0.92783  0.81897  0.49467  1.0000 0.0601199071
C   C21       1.0  0.12980  0.78500  0.20190  1.0000 -0.1594710076
C   C22       1.0  0.21500  0.87020  0.70190  1.0000 -0.1594710076
C   C23       1.0  0.37013  0.40547  0.94050  1.0000 0.0601199071
C   C24       1.0  0.59453  0.62987  0.44050  1.0000 0.0601199071
C   C25       1.0  0.40190  0.80670  0.36720  1.0000 -0.1386351315
C   C26       1.0  0.19330  0.59810  0.86720  1.0000 -0.1386351315
C   C27       1.0  0.43443  0.02037  0.27870  1.0000 0.3629778544
C   C28       1.0  0.97963  0.56557  0.77870  1.0000 0.3629778544
C   C29       1.0  0.13787  0.07973  0.02230  1.0000 -0.1509007817
C   C30       1.0  0.92027  0.86213  0.52230  1.0000 -0.1509007817
C   C31       1.0  0.39950  0.52370  0.97660  1.0000 0.0818615505
C   C32       1.0  0.47630  0.60050  0.47660  1.0000 0.0818615505
C   C33       1.0  0.60820  0.15280  0.30520  1.0000 -0.1594710076
C   C34       1.0  0.84720  0.39180  0.80520  1.0000 -0.1594710076
C   C35       1.0  0.06904  0.99876  0.04870  1.0000 0.0694814972
C   C36       1.0  0.00124  0.93096  0.54870  1.0000 0.0694814972
C   C37       1.0  0.48470  0.26930  0.81900  1.0000 0.0818615505
C   C38       1.0  0.73070  0.51530  0.31900  1.0000 0.0694814972
C   C39       1.0  0.34715  0.86405  0.30220  1.0000 0.3799315164
C   C40       1.0  0.13595  0.65285  0.80220  1.0000 0.3799315164
C   C41       1.0  0.52550  0.12410  0.27980  1.0000 0.0694814972
C   C42       1.0  0.87590  0.47450  0.77980  1.0000 0.0694814972
C   C43       1.0  0.24990  0.68950  0.32830  1.0000 -0.1509007817
C   C44       1.0  0.31050  0.75010  0.82830  1.0000 -0.1509007817
C   C45       1.0  0.44450  0.28010  0.84610  1.0000 -0.1386351315
C   C46       1.0  0.71990  0.55550  0.34610  1.0000 -0.1386351315
C   C47       1.0  0.61420  0.29040  0.25630  1.0000 0.0694814972
C   C48       1.0  0.70960  0.38580  0.75630  1.0000 0.0694814972
C   C49       1.0  0.06250  0.76430  0.16740  1.0000 0.0876216048
C   C50       1.0  0.23570  0.93750  0.66740  1.0000 0.0876216048
C   C51       1.0  0.38450  0.73190  0.39500  1.0000 0.0876216048
C   C52       1.0  0.26810  0.61550  0.89500  1.0000 0.0876216048
C   C53       1.0  0.52950  0.19490  0.25550  1.0000 -0.1509007817
C   C54       1.0  0.80510  0.47050  0.75550  1.0000 -0.1509007817
C   C55       1.0  0.15200  0.98460  0.99340  1.0000 -0.1386351315
C   C56       1.0  0.01540  0.84800  0.49340  1.0000 -0.1386351315
C   C57       1.0  0.08250  0.90630  0.02060  1.0000 0.0694814972
C   C58       1.0  0.09370  0.91750  0.52060  1.0000 0.0694814972
C   C59       1.0  0.39810  0.13870  0.88960  1.0000 -0.1299554301
C   C60       1.0  0.86130  0.60190  0.38960  1.0000 -0.1299554301
C   C61       1.0  0.41350  0.54990  0.90190  1.0000 0.0876216048
C   C62       1.0  0.45010  0.58650  0.40190  1.0000 0.0876216048
C   C63       1.0  0.37360  0.43620  0.97870  1.0000 -0.1509007817
C   C64       1.0  0.56380  0.62640  0.47870  1.0000 -0.1509007817
C   C65       1.0  0.22090  0.95110  0.18160  1.0000 -0.1386351315
C   C66       1.0  0.04890  0.77910  0.68160  1.0000 -0.1386351315
C   C67       1.0  0.14960  0.92380  0.14790  1.0000 0.0818615505
C   C68       1.0  0.07620  0.85040  0.64790  1.0000 0.0818615505
C   C69       1.0  0.69170  0.25070  0.30430  1.0000 0.0876216048
C   C70       1.0  0.74930  0.30830  0.80430  1.0000 0.0876216048
C   C71       1.0  0.38830  0.46330  0.90100  1.0000 -0.1386351315
C   C72       1.0  0.53670  0.61170  0.40100  1.0000 -0.1386351315
C   C73       1.0  0.88048  0.21232  0.29110  1.0000 0.0601199071
C   C74       1.0  0.78768  0.11952  0.79110  1.0000 0.0601199071
C   C75       1.0  0.31243  0.34297  0.55958  1.0000 0.3680065567
C   C76       1.0  0.65703  0.68757  0.05958  1.0000 0.3680065567
C   C77       1.0  0.61890  0.23850  0.14250  1.0000 0.0818615505
C   C78       1.0  0.76150  0.38110  0.64250  1.0000 0.0818615505
C   C79       1.0  0.90744  0.28756  0.25480  1.0000 0.3680065567
C   C80       1.0  0.71244  0.09256  0.75480  1.0000 0.3680065567
C   C81       1.0  0.15768  0.25652  0.53364  1.0000 0.3799315164
C   C82       1.0  0.74348  0.84232  0.03364  1.0000 0.3799315164
C   C83       1.0  0.21268  0.39912  0.61800  1.0000 0.0694814972
C   C84       1.0  0.60088  0.78732  0.11800  1.0000 0.0601199071
C   C85       1.0  0.78617  0.33323  0.16670  1.0000 0.0601199071
C   C86       1.0  0.66677  0.21383  0.66667  1.0000 0.0601199071
C   C87       1.0  0.22160  0.35440  0.58793  1.0000 0.3799315164
C   C88       1.0  0.64560  0.77840  0.08793  1.0000 0.3799315164
C   C89       1.0  0.13420  0.44180  0.63900  1.0000 0.0876216048
C   C90       1.0  0.55820  0.86580  0.13900  1.0000 0.0876216048
C   C91       1.0  0.07217  0.18103  0.50533  1.0000 0.0601199071
C   C92       1.0  0.81897  0.92783  0.00533  1.0000 0.0601199071
C   C93       1.0  0.78500  0.12980  0.29810  1.0000 -0.1594710076
C   C94       1.0  0.87020  0.21500  0.79810  1.0000 -0.1594710076
C   C95       1.0  0.40547  0.37013  0.55950  1.0000 0.0601199071
C   C96       1.0  0.62987  0.59453  0.05950  1.0000 0.0601199071
C   C97       1.0  0.80670  0.40190  0.13280  1.0000 -0.1386351315
C   C98       1.0  0.59810  0.19330  0.63280  1.0000 -0.1386351315
C   C99       1.0  0.02037  0.43443  0.22130  1.0000 0.3629778544
C   C100      1.0  0.56557  0.97963  0.72130  1.0000 0.3629778544
C   C101      1.0  0.07973  0.13787  0.47770  1.0000 -0.1509007817
C   C102      1.0  0.86213  0.92027  0.97770  1.0000 -0.1509007817
C   C103      1.0  0.52370  0.39950  0.52340  1.0000 0.0818615505
C   C104      1.0  0.60050  0.47630  0.02340  1.0000 0.0818615505
C   C105      1.0  0.15280  0.60820  0.19480  1.0000 -0.1594710076
C   C106      1.0  0.39180  0.84720  0.69480  1.0000 -0.1594710076
C   C107      1.0  0.99876  0.06904  0.45130  1.0000 0.0694814972
C   C108      1.0  0.93096  0.00124  0.95130  1.0000 0.0694814972
C   C109      1.0  0.26930  0.48470  0.68100  1.0000 0.0694814972
C   C110      1.0  0.51530  0.73070  0.18100  1.0000 0.0694814972
C   C111      1.0  0.86405  0.34715  0.19780  1.0000 0.3799315164
C   C112      1.0  0.65285  0.13595  0.69780  1.0000 0.3799315164
C   C113      1.0  0.12410  0.52550  0.22020  1.0000 0.0694814972
C   C114      1.0  0.47450  0.87590  0.72020  1.0000 0.0694814972
C   C115      1.0  0.68950  0.24990  0.17170  1.0000 -0.1509007817
C   C116      1.0  0.75010  0.31050  0.67170  1.0000 -0.1509007817
C   C117      1.0  0.28010  0.44450  0.65390  1.0000 -0.1386351315
C   C118      1.0  0.55550  0.71990  0.15390  1.0000 -0.1386351315
C   C119      1.0  0.29040  0.61420  0.24370  1.0000 0.0694814972
C   C120      1.0  0.38580  0.70960  0.74370  1.0000 0.0694814972
C   C121      1.0  0.76430  0.06250  0.33260  1.0000 0.0876216048
C   C122      1.0  0.93750  0.23570  0.83260  1.0000 0.0876216048
C   C123      1.0  0.73190  0.38450  0.10500  1.0000 0.0876216048
C   C124      1.0  0.61550  0.26810  0.60500  1.0000 0.0876216048
C   C125      1.0  0.19490  0.52950  0.24450  1.0000 -0.1509007817
C   C126      1.0  0.47050  0.80510  0.74450  1.0000 -0.1509007817
C   C127      1.0  0.98460  0.15200  0.50660  1.0000 -0.1386351315
C   C128      1.0  0.84800  0.01540  0.00660  1.0000 -0.1386351315
C   C129      1.0  0.90630  0.08250  0.47940  1.0000 0.0694814972
C   C130      1.0  0.91750  0.09370  0.97940  1.0000 0.0694814972
C   C131      1.0  0.13870  0.39810  0.61040  1.0000 -0.1299554301
C   C132      1.0  0.60190  0.86130  0.11040  1.0000 -0.1299554301
C   C133      1.0  0.54990  0.41350  0.59810  1.0000 0.0876216048
C   C134      1.0  0.58650  0.45010  0.09810  1.0000 0.0876216048
C   C135      1.0  0.43620  0.37360  0.52130  1.0000 -0.1509007817
C   C136      1.0  0.62640  0.56380  0.02130  1.0000 -0.1509007817
C   C137      1.0  0.95110  0.22090  0.31840  1.0000 -0.1386351315
C   C138      1.0  0.77910  0.04890  0.81840  1.0000 -0.1386351315
C   C139      1.0  0.92380  0.14960  0.35210  1.0000 0.0818615505
C   C140      1.0  0.85040  0.07620  0.85210  1.0000 0.0818615505
C   C141      1.0  0.25070  0.69170  0.19570  1.0000 0.0876216048
C   C142      1.0  0.30830  0.74930  0.69570  1.0000 0.0876216048
C   C143      1.0  0.46330  0.38830  0.59900  1.0000 -0.1386351315
C   C144      1.0  0.61170  0.53670  0.09900  1.0000 -0.1386351315
I   I1        1.0  0.51354  0.03378  0.80832  1.0000 -0.4406343182
I   I2        1.0  0.96622  0.48646  0.30832  1.0000 -0.4406343182
I   I3        1.0  0.87779  0.82621  0.13668  1.0000 -0.4406343182
I   I4        1.0  0.17379  0.12221  0.63668  1.0000 -0.4406343182
I   I5        1.0  0.45853  0.19155  0.70499  1.0000 -0.4406343182
I   I6        1.0  0.80845  0.54147  0.20499  1.0000 -0.4406343182
I   I7        1.0  0.87767  0.64677  0.06152  1.0000 -0.4476744873
I   I8        1.0  0.35323  0.12233  0.56152  1.0000 -0.4476744873
I   I9        1.0  0.16819  0.37425  0.40258  1.0000 -0.4643765693
I   I10       1.0  0.62575  0.83181  0.90258  1.0000 -0.4643765693
I   I11       1.0  0.26903  0.55927  0.51048  1.0000 -0.4476744873
I   I12       1.0  0.44073  0.73097  0.01048  1.0000 -0.4476744873
I   I13       1.0  0.03378  0.51354  0.69168  1.0000 -0.4406343182
I   I14       1.0  0.48646  0.96622  0.19168  1.0000 -0.4406343182
I   I15       1.0  0.82621  0.87779  0.36332  1.0000 -0.4406343182
I   I16       1.0  0.12221  0.17379  0.86332  1.0000 -0.4406343182
I   I17       1.0  0.19155  0.45853  0.79501  1.0000 -0.4406343182
I   I18       1.0  0.54147  0.80845  0.29501  1.0000 -0.4406343182
I   I19       1.0  0.64677  0.87767  0.43848  1.0000 -0.4476744873
I   I20       1.0  0.12233  0.35323  0.93848  1.0000 -0.4476744873
I   I21       1.0  0.37425  0.16819  0.09742  1.0000 -0.4669496124
I   I22       1.0  0.83181  0.62575  0.59742  1.0000 -0.4669496124
I   I23       1.0  0.55927  0.26903  0.98952  1.0000 -0.4476744873
I   I24       1.0  0.73097  0.44073  0.48952  1.0000 -0.4476744873
N   N1        1.0  0.69562  0.31838  0.28040  1.0000 -0.1803281188
N   N2        1.0  0.68162  0.30438  0.78040  1.0000 -0.1803281188
N   N3        1.0  0.30397  0.63923  0.39065  1.0000 -0.1803281188
N   N4        1.0  0.36077  0.69603  0.89065  1.0000 -0.1803281188
N   N5        1.0  0.48394  0.19766  0.82600  1.0000 -0.189312918
N   N6        1.0  0.80234  0.51606  0.32600  1.0000 -0.189312918
N   N7        1.0  0.36462  0.00018  0.24830  1.0000 -0.3905562138
N   N8        1.0  0.99982  0.63538  0.74830  1.0000 -0.3905562138
N   N9        1.0  0.41958  0.58002  0.93940  1.0000 -0.189312918
N   N10       1.0  0.41998  0.58042  0.43940  1.0000 -0.189312918
N   N11       1.0  0.07138  0.83202  0.14072  1.0000 -0.1803281188
N   N12       1.0  0.16798  0.92862  0.64072  1.0000 -0.1803281188
N   N13       1.0  0.38143  0.30757  0.91065  1.0000 -0.3905562138
N   N14       1.0  0.69243  0.61857  0.41065  1.0000 -0.3905562138
N   N15       1.0  0.27462  0.83578  0.27143  1.0000 -0.3905562138
N   N16       1.0  0.16422  0.72538  0.77143  1.0000 -0.3905562138
N   N17       1.0  0.29051  0.14309  0.93847  1.0000 -0.3963045632
N   N18       1.0  0.85691  0.70949  0.43847  1.0000 -0.3963045632
N   N19       1.0  0.28317  0.24163  0.96997  1.0000 -0.3905562138
N   N20       1.0  0.75837  0.71683  0.46997  1.0000 -0.3905562138
N   N21       1.0  0.04268  0.91392  0.04870  1.0000 -0.189312918
N   N22       1.0  0.08608  0.95732  0.54870  1.0000 -0.189312918
N   N23       1.0  0.42989  0.95571  0.30700  1.0000 -0.3905562138
N   N24       1.0  0.04429  0.57011  0.80700  1.0000 -0.3905562138
N   N25       1.0  0.31838  0.69562  0.21960  1.0000 -0.1803281188
N   N26       1.0  0.30438  0.68162  0.71960  1.0000 -0.1803281188
N   N27       1.0  0.63923  0.30397  0.10935  1.0000 -0.1803281188
N   N28       1.0  0.69603  0.36077  0.60935  1.0000 -0.1803281188
N   N29       1.0  0.19766  0.48394  0.67400  1.0000 -0.189312918
N   N30       1.0  0.51606  0.80234  0.17400  1.0000 -0.189312918
N   N31       1.0  0.00018  0.36462  0.25170  1.0000 -0.3905562138
N   N32       1.0  0.63538  0.99982  0.75170  1.0000 -0.3905562138
N   N33       1.0  0.58002  0.41958  0.56060  1.0000 -0.189312918
N   N34       1.0  0.58042  0.41998  0.06060  1.0000 -0.189312918
N   N35       1.0  0.83202  0.07138  0.35928  1.0000 -0.1803281188
N   N36       1.0  0.92862  0.16798  0.85928  1.0000 -0.1803281188
N   N37       1.0  0.30757  0.38143  0.58935  1.0000 -0.3905562138
N   N38       1.0  0.61857  0.69243  0.08935  1.0000 -0.3905562138
N   N39       1.0  0.83578  0.27462  0.22857  1.0000 -0.3905562138
N   N40       1.0  0.72538  0.16422  0.72857  1.0000 -0.3905562138
N   N41       1.0  0.14309  0.29051  0.56153  1.0000 -0.3963045632
N   N42       1.0  0.70949  0.85691  0.06153  1.0000 -0.3963045632
N   N43       1.0  0.24163  0.28317  0.53003  1.0000 -0.3905562138
N   N44       1.0  0.71683  0.75837  0.03003  1.0000 -0.3905562138
N   N45       1.0  0.91392  0.04268  0.45130  1.0000 -0.189312918
N   N46       1.0  0.95732  0.08608  0.95130  1.0000 -0.189312918
N   N47       1.0  0.95571  0.42989  0.19300  1.0000 -0.3905562138
N   N48       1.0  0.57011  0.04429  0.69300  1.0000 -0.3905562138
