# DDEC6 charges by PACMAN v1.1 (https://github.com/mtap-research/PACMAN-charge/)
data_2016[GaCu][pcu]3[ASR]1
_chemical_formula_sum              "Ga2 Cu2 H16 C16 N8 F12"
_cell_length_a       9.7134
_cell_length_b       9.7134
_cell_length_c       8.2415
_cell_angle_alpha    90
_cell_angle_beta     90
_cell_angle_gamma    90

_symmetry_space_group_name_H-M    "P 1"
_symmetry_Int_Tables_number       1

loop_
  _symmetry_equiv_pos_as_xyz
  'x, y, z'

loop_
  _atom_site_type_symbol
  _atom_site_label
  _atom_site_symmetry_multiplicity
  _atom_site_fract_x
  _atom_site_fract_y
  _atom_site_fract_z
  _atom_site_occupancy
  _atom_site_charge
Ga  Ga1       1.0  0.00000  0.00000  0.50000  1.0000 1.5599504326
Ga  Ga2       1.0  0.50000  0.50000  0.50000  1.0000 1.5599504326
Cu  Cu1       1.0  0.00000  0.00000  0.00000  1.0000 0.7213525985
Cu  Cu2       1.0  0.50000  0.50000  0.00000  1.0000 0.7213525985
H   H1        1.0  0.77030  0.89880  0.21380  1.0000 0.1658341725
H   H2        1.0  0.22970  0.10120  0.21380  1.0000 0.1658341725
H   H3        1.0  0.89880  0.22970  0.21380  1.0000 0.1658341725
H   H4        1.0  0.10120  0.77030  0.21380  1.0000 0.1658341725
H   H5        1.0  0.77030  0.10120  0.78620  1.0000 0.1658341725
H   H6        1.0  0.22970  0.89880  0.78620  1.0000 0.1658341725
H   H7        1.0  0.89880  0.77030  0.78620  1.0000 0.1658341725
H   H8        1.0  0.10120  0.22970  0.78620  1.0000 0.1658341725
H   H9        1.0  0.72970  0.60120  0.78620  1.0000 0.1658341725
H   H10       1.0  0.27030  0.39880  0.78620  1.0000 0.1658341725
H   H11       1.0  0.60120  0.27030  0.78620  1.0000 0.1658341725
H   H12       1.0  0.39880  0.72970  0.78620  1.0000 0.1658341725
H   H13       1.0  0.72970  0.39880  0.21380  1.0000 0.1658341725
H   H14       1.0  0.27030  0.60120  0.21380  1.0000 0.1658341725
H   H15       1.0  0.60120  0.72970  0.21380  1.0000 0.1658341725
H   H16       1.0  0.39880  0.27030  0.21380  1.0000 0.1658341725
C   C1        1.0  0.76336  0.83787  0.12399  1.0000 0.0728956152
C   C2        1.0  0.23664  0.16213  0.12399  1.0000 0.0728956152
C   C3        1.0  0.83787  0.23664  0.12399  1.0000 0.0728956152
C   C4        1.0  0.16213  0.76336  0.12399  1.0000 0.0728956152
C   C5        1.0  0.76336  0.16213  0.87601  1.0000 0.0728956152
C   C6        1.0  0.23664  0.83787  0.87601  1.0000 0.0728956152
C   C7        1.0  0.83787  0.76336  0.87601  1.0000 0.0728956152
C   C8        1.0  0.16213  0.23664  0.87601  1.0000 0.0728956152
C   C9        1.0  0.73664  0.66213  0.87601  1.0000 0.0728956152
C   C10       1.0  0.26336  0.33787  0.87601  1.0000 0.0728956152
C   C11       1.0  0.66213  0.26336  0.87601  1.0000 0.0728956152
C   C12       1.0  0.33787  0.73664  0.87601  1.0000 0.0728956152
C   C13       1.0  0.73664  0.33787  0.12399  1.0000 0.0728956152
C   C14       1.0  0.26336  0.66213  0.12399  1.0000 0.0728956152
C   C15       1.0  0.66213  0.73664  0.12399  1.0000 0.0728956152
C   C16       1.0  0.33787  0.26336  0.12399  1.0000 0.0728956152
N   N1        1.0  0.85110  0.85110  0.00000  1.0000 -0.1497042115
N   N2        1.0  0.14890  0.14890  0.00000  1.0000 -0.1497042115
N   N3        1.0  0.85110  0.14890  0.00000  1.0000 -0.1497042115
N   N4        1.0  0.14890  0.85110  0.00000  1.0000 -0.1497042115
N   N5        1.0  0.64890  0.64890  0.00000  1.0000 -0.1497042115
N   N6        1.0  0.35110  0.35110  0.00000  1.0000 -0.1497042115
N   N7        1.0  0.64890  0.35110  0.00000  1.0000 -0.1497042115
N   N8        1.0  0.35110  0.64890  0.00000  1.0000 -0.1497042115
F   F1        1.0  0.00000  0.00000  0.27134  1.0000 -0.6093866017
F   F2        1.0  0.00000  0.00000  0.72866  1.0000 -0.6093866017
F   F3        1.0  0.50000  0.50000  0.72866  1.0000 -0.6093866017
F   F4        1.0  0.50000  0.50000  0.27134  1.0000 -0.6093866017
F   F5        1.0  0.00000  0.19598  0.50000  1.0000 -0.5933878209
F   F6        1.0  0.00000  0.80402  0.50000  1.0000 -0.5933878209
F   F7        1.0  0.19598  0.00000  0.50000  1.0000 -0.5933878209
F   F8        1.0  0.80402  0.00000  0.50000  1.0000 -0.5933878209
F   F9        1.0  0.50000  0.30402  0.50000  1.0000 -0.5933878209
F   F10       1.0  0.50000  0.69598  0.50000  1.0000 -0.5933878209
F   F11       1.0  0.30402  0.50000  0.50000  1.0000 -0.5933878209
F   F12       1.0  0.69598  0.50000  0.50000  1.0000 -0.5933878209
