# DDEC6 charges by PACMAN v1.1 (https://github.com/mtap-research/PACMAN-charge/)
data_2016[Cd][nan]3[ASR]29
_chemical_formula_sum              "Cd8 H56 C96 N16 O32"
_cell_length_a       7.6297
_cell_length_b       26.8079
_cell_length_c       15.0922
_cell_angle_alpha    90
_cell_angle_beta     90.838
_cell_angle_gamma    90

_symmetry_space_group_name_H-M    "P 1"
_symmetry_Int_Tables_number       1

loop_
  _symmetry_equiv_pos_as_xyz
  'x, y, z'

loop_
  _atom_site_type_symbol
  _atom_site_label
  _atom_site_symmetry_multiplicity
  _atom_site_fract_x
  _atom_site_fract_y
  _atom_site_fract_z
  _atom_site_occupancy
  _atom_site_charge
Cd  Cd1       1.0  0.75831  0.90969  0.32936  1.0000 0.8146774356
Cd  Cd2       1.0  0.24169  0.40969  0.17064  1.0000 0.8146774356
Cd  Cd3       1.0  0.24169  0.09031  0.67064  1.0000 0.8146774356
Cd  Cd4       1.0  0.75831  0.59031  0.82936  1.0000 0.8146774356
Cd  Cd5       1.0  0.61680  0.83526  0.75513  1.0000 0.8239061271
Cd  Cd6       1.0  0.38320  0.33526  0.74487  1.0000 0.8239061271
Cd  Cd7       1.0  0.38320  0.16474  0.24487  1.0000 0.8239061271
Cd  Cd8       1.0  0.61680  0.66474  0.25513  1.0000 0.8239061271
H   H1        1.0  0.20940  0.85300  0.73560  1.0000 0.1012635425
H   H2        1.0  0.79060  0.35300  0.76440  1.0000 0.1012635425
H   H3        1.0  0.79060  0.14700  0.26440  1.0000 0.1012635425
H   H4        1.0  0.20940  0.64700  0.23560  1.0000 0.1012635425
H   H5        1.0  0.55170  0.88140  0.55300  1.0000 0.1302708124
H   H6        1.0  0.44830  0.38140  0.94700  1.0000 0.1302708124
H   H7        1.0  0.44830  0.11860  0.44700  1.0000 0.1302708124
H   H8        1.0  0.55170  0.61860  0.05300  1.0000 0.1302708124
H   H9        1.0  0.33333  0.90680  0.45740  1.0000 0.138798919
H   H10       1.0  0.66667  0.40680  0.04260  1.0000 0.138798919
H   H11       1.0  0.66667  0.09320  0.54260  1.0000 0.138798919
H   H12       1.0  0.33333  0.59320  0.95740  1.0000 0.138798919
H   H13       1.0  0.82850  0.78930  0.27900  1.0000 0.1183286069
H   H14       1.0  0.17150  0.28930  0.22100  1.0000 0.1183286069
H   H15       1.0  0.17150  0.21070  0.72100  1.0000 0.1183286069
H   H16       1.0  0.82850  0.71070  0.77900  1.0000 0.1183286069
H   H17       1.0  0.05460  0.73310  0.27570  1.0000 0.138798919
H   H18       1.0  0.94540  0.23310  0.22430  1.0000 0.138798919
H   H19       1.0  0.94540  0.26690  0.72430  1.0000 0.138798919
H   H20       1.0  0.05460  0.76690  0.77570  1.0000 0.138798919
H   H21       1.0  0.15510  0.90050  0.27450  1.0000 0.1012635425
H   H22       1.0  0.84490  0.40050  0.22550  1.0000 0.1012635425
H   H23       1.0  0.84490  0.09950  0.72550  1.0000 0.1012635425
H   H24       1.0  0.15510  0.59950  0.77450  1.0000 0.1012635425
H   H25       1.0  0.81010  0.89140  0.13310  1.0000 0.1073271294
H   H26       1.0  0.18990  0.39140  0.36690  1.0000 0.1073271294
H   H27       1.0  0.18990  0.10860  0.86690  1.0000 0.1073271294
H   H28       1.0  0.81010  0.60860  0.63310  1.0000 0.1073271294
H   H29       1.0  0.91140  0.92010  0.00130  1.0000 0.1302708124
H   H30       1.0  0.08860  0.42010  0.49870  1.0000 0.1302708124
H   H31       1.0  0.08860  0.07990  0.99870  1.0000 0.1302708124
H   H32       1.0  0.91140  0.57990  0.50130  1.0000 0.1302708124
H   H33       1.0  0.99820  0.05200  0.11780  1.0000 0.138798919
H   H34       1.0  0.00180  0.55200  0.38220  1.0000 0.138798919
H   H35       1.0  0.00180  0.94800  0.88220  1.0000 0.138798919
H   H36       1.0  0.99820  0.44800  0.61780  1.0000 0.138798919
H   H37       1.0  0.90360  0.01770  0.24820  1.0000 0.1183286069
H   H38       1.0  0.09640  0.51770  0.25180  1.0000 0.1183286069
H   H39       1.0  0.09640  0.98230  0.75180  1.0000 0.1183286069
H   H40       1.0  0.90360  0.48230  0.74820  1.0000 0.1183286069
H   H41       1.0  0.59090  0.95600  0.76280  1.0000 0.1183286069
H   H42       1.0  0.40910  0.45600  0.73720  1.0000 0.1183286069
H   H43       1.0  0.40910  0.04400  0.23720  1.0000 0.1183286069
H   H44       1.0  0.59090  0.54400  0.26280  1.0000 0.1183286069
H   H45       1.0  0.56190  0.02110  0.85990  1.0000 0.138798919
H   H46       1.0  0.43810  0.52110  0.64010  1.0000 0.138798919
H   H47       1.0  0.43810  0.97890  0.14010  1.0000 0.138798919
H   H48       1.0  0.56190  0.47890  0.35990  1.0000 0.138798919
H   H49       1.0  0.45280  0.92180  0.04930  1.0000 0.138798919
H   H50       1.0  0.54720  0.42180  0.45070  1.0000 0.138798919
H   H51       1.0  0.54720  0.07820  0.95070  1.0000 0.138798919
H   H52       1.0  0.45280  0.57820  0.54930  1.0000 0.138798919
H   H53       1.0  0.49090  0.85980  0.94680  1.0000 0.1183286069
H   H54       1.0  0.50910  0.35980  0.55320  1.0000 0.1183286069
H   H55       1.0  0.50910  0.14020  0.05320  1.0000 0.1183286069
H   H56       1.0  0.49090  0.64020  0.44680  1.0000 0.1183286069
C   C1        1.0  0.98730  0.90591  0.47270  1.0000 0.5486650948
C   C2        1.0  0.01270  0.40591  0.02730  1.0000 0.5486650948
C   C3        1.0  0.01270  0.09409  0.52730  1.0000 0.5486650948
C   C4        1.0  0.98730  0.59409  0.97270  1.0000 0.5486650948
C   C5        1.0  0.13080  0.89355  0.53940  1.0000 0.0289234744
C   C6        1.0  0.86920  0.39355  0.96060  1.0000 0.0289234744
C   C7        1.0  0.86920  0.10645  0.46060  1.0000 0.0289234744
C   C8        1.0  0.13080  0.60645  0.03940  1.0000 0.0289234744
C   C9        1.0  0.09440  0.87650  0.62350  1.0000 -0.0719741648
C   C10       1.0  0.90560  0.37650  0.87650  1.0000 -0.0719741648
C   C11       1.0  0.90560  0.12350  0.37650  1.0000 -0.0719741648
C   C12       1.0  0.09440  0.62350  0.12350  1.0000 -0.0719741648
C   C13       1.0  0.23400  0.86335  0.67830  1.0000 0.0365038884
C   C14       1.0  0.76600  0.36335  0.82170  1.0000 0.0365038884
C   C15       1.0  0.76600  0.13665  0.32170  1.0000 0.0365038884
C   C16       1.0  0.23400  0.63665  0.17830  1.0000 0.0365038884
C   C17       1.0  0.43600  0.88048  0.57160  1.0000 0.1012635425
C   C18       1.0  0.56400  0.38048  0.92840  1.0000 0.0947533582
C   C19       1.0  0.56400  0.11952  0.42840  1.0000 0.0947533582
C   C20       1.0  0.43600  0.61952  0.07160  1.0000 0.1012635425
C   C21       1.0  0.30520  0.89545  0.51370  1.0000 -0.1490118414
C   C22       1.0  0.69480  0.39545  0.98630  1.0000 -0.1490118414
C   C23       1.0  0.69480  0.10455  0.48630  1.0000 -0.1490118414
C   C24       1.0  0.30520  0.60455  0.01370  1.0000 -0.1490118414
C   C25       1.0  0.91190  0.87159  0.66090  1.0000 0.5635590438
C   C26       1.0  0.08810  0.37159  0.83910  1.0000 0.5635590438
C   C27       1.0  0.08810  0.12841  0.33910  1.0000 0.5635590438
C   C28       1.0  0.91190  0.62841  0.16090  1.0000 0.5635590438
C   C29       1.0  0.94320  0.80106  0.27900  1.0000 0.1012635425
C   C30       1.0  0.05680  0.30106  0.22100  1.0000 0.1012635425
C   C31       1.0  0.05680  0.19894  0.72100  1.0000 0.1012635425
C   C32       1.0  0.94320  0.69894  0.77900  1.0000 0.1012635425
C   C33       1.0  0.07870  0.76706  0.27790  1.0000 -0.1490118414
C   C34       1.0  0.92130  0.26706  0.22210  1.0000 -0.1490118414
C   C35       1.0  0.92130  0.23294  0.72210  1.0000 -0.1490118414
C   C36       1.0  0.07870  0.73294  0.77790  1.0000 -0.1490118414
C   C37       1.0  0.25100  0.78356  0.28000  1.0000 0.0289234744
C   C38       1.0  0.74900  0.28356  0.22000  1.0000 0.0289234744
C   C39       1.0  0.74900  0.21644  0.72000  1.0000 0.0289234744
C   C40       1.0  0.25100  0.71644  0.78000  1.0000 0.0289234744
C   C41       1.0  0.28040  0.83493  0.27820  1.0000 -0.0755461718
C   C42       1.0  0.71960  0.33493  0.22180  1.0000 -0.0719741648
C   C43       1.0  0.71960  0.16507  0.72180  1.0000 -0.0719741648
C   C44       1.0  0.28040  0.66507  0.77820  1.0000 -0.0755461718
C   C45       1.0  0.13580  0.86631  0.27730  1.0000 0.046385612
C   C46       1.0  0.86420  0.36631  0.22270  1.0000 0.046385612
C   C47       1.0  0.86420  0.13369  0.72270  1.0000 0.046385612
C   C48       1.0  0.13580  0.63369  0.77730  1.0000 0.046385612
C   C49       1.0  0.45650  0.85977  0.28740  1.0000 0.5486650948
C   C50       1.0  0.54350  0.35977  0.21260  1.0000 0.5486650948
C   C51       1.0  0.54350  0.14023  0.71260  1.0000 0.5486650948
C   C52       1.0  0.45650  0.64023  0.78740  1.0000 0.5486650948
C   C53       1.0  0.39490  0.74501  0.27900  1.0000 0.5486650948
C   C54       1.0  0.60510  0.24501  0.22100  1.0000 0.5486650948
C   C55       1.0  0.60510  0.25499  0.72100  1.0000 0.5486650948
C   C56       1.0  0.39490  0.75499  0.77900  1.0000 0.5486650948
C   C57       1.0  0.85110  0.92404  0.13030  1.0000 0.0806489444
C   C58       1.0  0.14890  0.42404  0.36970  1.0000 0.0806489444
C   C59       1.0  0.14890  0.07596  0.86970  1.0000 0.0806489444
C   C60       1.0  0.85110  0.57596  0.63030  1.0000 0.0806489444
C   C61       1.0  0.91050  0.94107  0.05040  1.0000 -0.1984175419
C   C62       1.0  0.08950  0.44107  0.44960  1.0000 -0.1984175419
C   C63       1.0  0.08950  0.05893  0.94960  1.0000 -0.1984175419
C   C64       1.0  0.91050  0.55893  0.55040  1.0000 -0.1984175419
C   C65       1.0  0.96950  0.99011  0.04350  1.0000 0.1012635425
C   C66       1.0  0.03050  0.49011  0.45650  1.0000 0.1012635425
C   C67       1.0  0.03050  0.00989  0.95650  1.0000 0.1012635425
C   C68       1.0  0.96950  0.50989  0.54350  1.0000 0.1012635425
C   C69       1.0  0.96310  0.01880  0.11920  1.0000 -0.1984175419
C   C70       1.0  0.03690  0.51880  0.38080  1.0000 -0.1984175419
C   C71       1.0  0.03690  0.98120  0.88080  1.0000 -0.1984175419
C   C72       1.0  0.96310  0.48120  0.61920  1.0000 -0.1984175419
C   C73       1.0  0.90420  0.99801  0.19750  1.0000 0.0806489444
C   C74       1.0  0.09580  0.49801  0.30250  1.0000 0.0806489444
C   C75       1.0  0.09580  0.00199  0.80250  1.0000 0.0806489444
C   C76       1.0  0.90420  0.50199  0.69750  1.0000 0.0806489444
C   C77       1.0  0.56620  0.94905  0.82170  1.0000 0.0806489444
C   C78       1.0  0.43380  0.44905  0.67830  1.0000 0.0806489444
C   C79       1.0  0.43380  0.05095  0.17830  1.0000 0.0806489444
C   C80       1.0  0.56620  0.55095  0.32170  1.0000 0.0806489444
C   C81       1.0  0.54750  0.98849  0.87970  1.0000 -0.1984175419
C   C82       1.0  0.45250  0.48849  0.62030  1.0000 -0.1984175419
C   C83       1.0  0.45250  0.01151  0.12030  1.0000 -0.1984175419
C   C84       1.0  0.54750  0.51151  0.37970  1.0000 -0.1984175419
C   C85       1.0  0.50710  0.97936  0.96770  1.0000 0.1012635425
C   C86       1.0  0.49290  0.47936  0.53230  1.0000 0.1012635425
C   C87       1.0  0.49290  0.02064  0.03230  1.0000 0.1012635425
C   C88       1.0  0.50710  0.52064  0.46770  1.0000 0.1012635425
C   C89       1.0  0.48380  0.92990  0.99170  1.0000 -0.1984175419
C   C90       1.0  0.51620  0.42990  0.50830  1.0000 -0.1984175419
C   C91       1.0  0.51620  0.07010  0.00830  1.0000 -0.1984175419
C   C92       1.0  0.48380  0.57010  0.49170  1.0000 -0.1984175419
C   C93       1.0  0.50690  0.89274  0.92940  1.0000 0.0806489444
C   C94       1.0  0.49310  0.39274  0.57060  1.0000 0.0806489444
C   C95       1.0  0.49310  0.10726  0.07060  1.0000 0.0806489444
C   C96       1.0  0.50690  0.60726  0.42940  1.0000 0.0806489444
N   N1        1.0  0.40230  0.86453  0.65400  1.0000 -0.2410795307
N   N2        1.0  0.59770  0.36453  0.84600  1.0000 -0.2410795307
N   N3        1.0  0.59770  0.13547  0.34600  1.0000 -0.2410795307
N   N4        1.0  0.40230  0.63547  0.15400  1.0000 -0.2410795307
N   N5        1.0  0.97030  0.85004  0.28020  1.0000 -0.2410795307
N   N6        1.0  0.02970  0.35004  0.21980  1.0000 -0.2410795307
N   N7        1.0  0.02970  0.14996  0.71980  1.0000 -0.2410795307
N   N8        1.0  0.97030  0.64996  0.78020  1.0000 -0.2410795307
N   N9        1.0  0.84860  0.95112  0.20320  1.0000 -0.2219092924
N   N10       1.0  0.15140  0.45112  0.29680  1.0000 -0.2219092924
N   N11       1.0  0.15140  0.04888  0.79680  1.0000 -0.2219092924
N   N12       1.0  0.84860  0.54888  0.70320  1.0000 -0.2219092924
N   N13       1.0  0.55070  0.90154  0.84600  1.0000 -0.2410795307
N   N14       1.0  0.44930  0.40154  0.65400  1.0000 -0.2410795307
N   N15       1.0  0.44930  0.09846  0.15400  1.0000 -0.2410795307
N   N16       1.0  0.55070  0.59846  0.34600  1.0000 -0.2410795307
O   O1        1.0  0.01580  0.93916  0.41581  1.0000 -0.5476732965
O   O2        1.0  0.98420  0.43916  0.08419  1.0000 -0.5476732965
O   O3        1.0  0.98420  0.06084  0.58419  1.0000 -0.5476732965
O   O4        1.0  0.01580  0.56084  0.91581  1.0000 -0.5476732965
O   O5        1.0  0.84930  0.88087  0.47450  1.0000 -0.51324093
O   O6        1.0  0.15070  0.38087  0.02550  1.0000 -0.51324093
O   O7        1.0  0.15070  0.11913  0.52550  1.0000 -0.51324093
O   O8        1.0  0.84930  0.61913  0.97450  1.0000 -0.51324093
O   O9        1.0  0.82510  0.90916  0.67590  1.0000 -0.5476732965
O   O10       1.0  0.17490  0.40916  0.82410  1.0000 -0.5476732965
O   O11       1.0  0.17490  0.09084  0.32410  1.0000 -0.5476732965
O   O12       1.0  0.82510  0.59084  0.17590  1.0000 -0.5476732965
O   O13       1.0  0.86240  0.82819  0.67840  1.0000 -0.5301376249
O   O14       1.0  0.13760  0.32819  0.82160  1.0000 -0.5301376249
O   O15       1.0  0.13760  0.17181  0.32160  1.0000 -0.5301376249
O   O16       1.0  0.86240  0.67181  0.17840  1.0000 -0.5301376249
O   O17       1.0  0.37980  0.70825  0.32900  1.0000 -0.5596380348
O   O18       1.0  0.62020  0.20825  0.17100  1.0000 -0.5596380348
O   O19       1.0  0.62020  0.29175  0.67100  1.0000 -0.5596380348
O   O20       1.0  0.37980  0.79175  0.82900  1.0000 -0.5596380348
O   O21       1.0  0.51620  0.74894  0.22540  1.0000 -0.521063369
O   O22       1.0  0.48380  0.24894  0.27460  1.0000 -0.521063369
O   O23       1.0  0.48380  0.25106  0.77460  1.0000 -0.521063369
O   O24       1.0  0.51620  0.75106  0.72540  1.0000 -0.521063369
O   O25       1.0  0.48430  0.89867  0.24550  1.0000 -0.5596380348
O   O26       1.0  0.51570  0.39867  0.25450  1.0000 -0.5596380348
O   O27       1.0  0.51570  0.10133  0.75450  1.0000 -0.5596380348
O   O28       1.0  0.48430  0.60133  0.74550  1.0000 -0.5596380348
O   O29       1.0  0.56340  0.84256  0.34160  1.0000 -0.4893334027
O   O30       1.0  0.43660  0.34256  0.15840  1.0000 -0.4893334027
O   O31       1.0  0.43660  0.15744  0.65840  1.0000 -0.4893334027
O   O32       1.0  0.56340  0.65744  0.84160  1.0000 -0.4893334027
