# DDEC6 charges by PACMAN v1.1 (https://github.com/mtap-research/PACMAN-charge/)
data_2016[Zn][rtl]3[ASR]1
_chemical_formula_sum              "Zn8 H128 C200 N16 O32"
_cell_length_a       16.3583
_cell_length_b       18.1336
_cell_length_c       22.5915
_cell_angle_alpha    90
_cell_angle_beta     114.105
_cell_angle_gamma    90

_symmetry_space_group_name_H-M    "P 1"
_symmetry_Int_Tables_number       1

loop_
  _symmetry_equiv_pos_as_xyz
  'x, y, z'

loop_
  _atom_site_type_symbol
  _atom_site_label
  _atom_site_symmetry_multiplicity
  _atom_site_fract_x
  _atom_site_fract_y
  _atom_site_fract_z
  _atom_site_occupancy
  _atom_site_charge
Zn  Zn1       1.0  0.27845  0.05203  0.22021  1.0000 0.8383064424
Zn  Zn2       1.0  0.27845  0.44797  0.72021  1.0000 0.8383064424
Zn  Zn3       1.0  0.11957  0.95737  0.15947  1.0000 0.8383064424
Zn  Zn4       1.0  0.11957  0.54263  0.65947  1.0000 0.8383064424
Zn  Zn5       1.0  0.72155  0.55203  0.27979  1.0000 0.8383064424
Zn  Zn6       1.0  0.72155  0.94797  0.77979  1.0000 0.8383064424
Zn  Zn7       1.0  0.88043  0.45737  0.34053  1.0000 0.8383064424
Zn  Zn8       1.0  0.88043  0.04263  0.84053  1.0000 0.8383064424
H   H1        1.0  0.96910  0.11440  0.01320  1.0000 0.1202925227
H   H2        1.0  0.96910  0.38560  0.51320  1.0000 0.1202925227
H   H3        1.0  0.90520  0.20080  0.93210  1.0000 0.1301477668
H   H4        1.0  0.90520  0.29920  0.43210  1.0000 0.1301477668
H   H5        1.0  0.10900  0.33970  0.02610  1.0000 0.1301477668
H   H6        1.0  0.10900  0.16030  0.52610  1.0000 0.1301477668
H   H7        1.0  0.17480  0.25120  0.10500  1.0000 0.1202925227
H   H8        1.0  0.17480  0.24880  0.60500  1.0000 0.1202925227
H   H9        1.0  0.19600  0.32900  0.86410  1.0000 0.1134632073
H   H10       1.0  0.19600  0.17100  0.36410  1.0000 0.1134632073
H   H11       1.0  0.11640  0.28330  0.91940  1.0000 0.1134632073
H   H12       1.0  0.11640  0.21670  0.41940  1.0000 0.1134632073
H   H13       1.0  0.93400  0.44450  0.84510  1.0000 0.1202925227
H   H14       1.0  0.93400  0.05550  0.34510  1.0000 0.1202925227
H   H15       1.0  0.01040  0.48630  0.78600  1.0000 0.1202925227
H   H16       1.0  0.01040  0.01370  0.28600  1.0000 0.1202925227
H   H17       1.0  0.40840  0.36840  0.83850  1.0000 0.1202925227
H   H18       1.0  0.40840  0.13160  0.33850  1.0000 0.1202925227
H   H19       1.0  0.55640  0.33610  0.88410  1.0000 0.1301477668
H   H20       1.0  0.55640  0.16390  0.38410  1.0000 0.1301477668
H   H21       1.0  0.57290  0.39070  0.71780  1.0000 0.1301477668
H   H22       1.0  0.57290  0.10930  0.21780  1.0000 0.1301477668
H   H23       1.0  0.42440  0.42230  0.67670  1.0000 0.1134632073
H   H24       1.0  0.42440  0.07770  0.17670  1.0000 0.1134632073
H   H25       1.0  0.69470  0.32120  0.75460  1.0000 0.1134632073
H   H26       1.0  0.69470  0.17880  0.25460  1.0000 0.1134632073
H   H27       1.0  0.84790  0.30820  0.79890  1.0000 0.1301477668
H   H28       1.0  0.84790  0.19180  0.29890  1.0000 0.1301477668
H   H29       1.0  0.85740  0.35940  0.97360  1.0000 0.1301477668
H   H30       1.0  0.85740  0.14060  0.47360  1.0000 0.1301477668
H   H31       1.0  0.70390  0.37240  0.92950  1.0000 0.1202925227
H   H32       1.0  0.70390  0.12760  0.42950  1.0000 0.1202925227
H   H33       1.0  0.24000  0.81020  0.06320  1.0000 0.1134632073
H   H34       1.0  0.24000  0.68980  0.56320  1.0000 0.1134632073
H   H35       1.0  0.31580  0.75000  0.01140  1.0000 0.1202925227
H   H36       1.0  0.31580  0.75000  0.51140  1.0000 0.1202925227
H   H37       1.0  0.45870  0.93290  0.02240  1.0000 0.1301477668
H   H38       1.0  0.45870  0.56710  0.52240  1.0000 0.1301477668
H   H39       1.0  0.38450  0.99240  0.07540  1.0000 0.1134632073
H   H40       1.0  0.38450  0.50760  0.57540  1.0000 0.1134632073
H   H41       1.0  0.42760  0.60210  0.85850  1.0000 0.1202925227
H   H42       1.0  0.42760  0.89790  0.35850  1.0000 0.1202925227
H   H43       1.0  0.50110  0.68030  0.94460  1.0000 0.1202925227
H   H44       1.0  0.50110  0.81970  0.44460  1.0000 0.1202925227
H   H45       1.0  0.28100  0.80570  0.88990  1.0000 0.1202925227
H   H46       1.0  0.28100  0.69430  0.38990  1.0000 0.1202925227
H   H47       1.0  0.20780  0.72720  0.80390  1.0000 0.1202925227
H   H48       1.0  0.20780  0.77280  0.30390  1.0000 0.1202925227
H   H49       1.0  0.94910  0.97480  0.03970  1.0000 0.1134632073
H   H50       1.0  0.94910  0.52520  0.53970  1.0000 0.1134632073
H   H51       1.0  0.80320  0.93690  0.99830  1.0000 0.1372878408
H   H52       1.0  0.80320  0.56310  0.49830  1.0000 0.1372878408
H   H53       1.0  0.85770  0.82410  0.16280  1.0000 0.1301477668
H   H54       1.0  0.85770  0.67590  0.66280  1.0000 0.1301477668
H   H55       1.0  0.00240  0.86430  0.19900  1.0000 0.1202925227
H   H56       1.0  0.00240  0.63570  0.69900  1.0000 0.1202925227
H   H57       1.0  0.69090  0.85650  0.95450  1.0000 0.1202925227
H   H58       1.0  0.69090  0.64350  0.45450  1.0000 0.1202925227
H   H59       1.0  0.54110  0.82640  0.91550  1.0000 0.1202925227
H   H60       1.0  0.54110  0.67360  0.41550  1.0000 0.1202925227
H   H61       1.0  0.56500  0.79570  0.09760  1.0000 0.1301477668
H   H62       1.0  0.56500  0.70430  0.59760  1.0000 0.1301477668
H   H63       1.0  0.71400  0.82840  0.13690  1.0000 0.1202925227
H   H64       1.0  0.71400  0.67160  0.63690  1.0000 0.1202925227
H   H65       1.0  0.03090  0.61440  0.48680  1.0000 0.1202925227
H   H66       1.0  0.03090  0.88560  0.98680  1.0000 0.1202925227
H   H67       1.0  0.09480  0.70080  0.56790  1.0000 0.1301477668
H   H68       1.0  0.09480  0.79920  0.06790  1.0000 0.1301477668
H   H69       1.0  0.89100  0.83970  0.47390  1.0000 0.1301477668
H   H70       1.0  0.89100  0.66030  0.97390  1.0000 0.1301477668
H   H71       1.0  0.82520  0.75120  0.39500  1.0000 0.1202925227
H   H72       1.0  0.82520  0.74880  0.89500  1.0000 0.1202925227
H   H73       1.0  0.80400  0.82900  0.63590  1.0000 0.1134632073
H   H74       1.0  0.80400  0.67100  0.13590  1.0000 0.1134632073
H   H75       1.0  0.88360  0.78330  0.58060  1.0000 0.1134632073
H   H76       1.0  0.88360  0.71670  0.08060  1.0000 0.1134632073
H   H77       1.0  0.06600  0.94450  0.65490  1.0000 0.1202925227
H   H78       1.0  0.06600  0.55550  0.15490  1.0000 0.1202925227
H   H79       1.0  0.98960  0.98630  0.71400  1.0000 0.1202925227
H   H80       1.0  0.98960  0.51370  0.21400  1.0000 0.1202925227
H   H81       1.0  0.59160  0.86840  0.66150  1.0000 0.1202925227
H   H82       1.0  0.59160  0.63160  0.16150  1.0000 0.1202925227
H   H83       1.0  0.44360  0.83610  0.61590  1.0000 0.1301477668
H   H84       1.0  0.44360  0.66390  0.11590  1.0000 0.1301477668
H   H85       1.0  0.42710  0.89070  0.78220  1.0000 0.1301477668
H   H86       1.0  0.42710  0.60930  0.28220  1.0000 0.1301477668
H   H87       1.0  0.57560  0.92230  0.82330  1.0000 0.1134632073
H   H88       1.0  0.57560  0.57770  0.32330  1.0000 0.1134632073
H   H89       1.0  0.30530  0.82120  0.74540  1.0000 0.1134632073
H   H90       1.0  0.30530  0.67880  0.24540  1.0000 0.1134632073
H   H91       1.0  0.15210  0.80820  0.70110  1.0000 0.1301477668
H   H92       1.0  0.15210  0.69180  0.20110  1.0000 0.1301477668
H   H93       1.0  0.14260  0.85940  0.52640  1.0000 0.1301477668
H   H94       1.0  0.14260  0.64060  0.02640  1.0000 0.1301477668
H   H95       1.0  0.29610  0.87240  0.57050  1.0000 0.1202925227
H   H96       1.0  0.29610  0.62760  0.07050  1.0000 0.1202925227
H   H97       1.0  0.76000  0.31020  0.43680  1.0000 0.1134632073
H   H98       1.0  0.76000  0.18980  0.93680  1.0000 0.1134632073
H   H99       1.0  0.68420  0.25000  0.48860  1.0000 0.1202925227
H   H100      1.0  0.68420  0.25000  0.98860  1.0000 0.1202925227
H   H101      1.0  0.54130  0.43290  0.47760  1.0000 0.1301477668
H   H102      1.0  0.54130  0.06710  0.97760  1.0000 0.1301477668
H   H103      1.0  0.61550  0.49240  0.42460  1.0000 0.1134632073
H   H104      1.0  0.61550  0.00760  0.92460  1.0000 0.1134632073
H   H105      1.0  0.57240  0.10210  0.64150  1.0000 0.1202925227
H   H106      1.0  0.57240  0.39790  0.14150  1.0000 0.1202925227
H   H107      1.0  0.49890  0.18030  0.55540  1.0000 0.1202925227
H   H108      1.0  0.49890  0.31970  0.05540  1.0000 0.1202925227
H   H109      1.0  0.71900  0.30570  0.61010  1.0000 0.1202925227
H   H110      1.0  0.71900  0.19430  0.11010  1.0000 0.1202925227
H   H111      1.0  0.79220  0.22720  0.69610  1.0000 0.1202925227
H   H112      1.0  0.79220  0.27280  0.19610  1.0000 0.1202925227
H   H113      1.0  0.05090  0.47480  0.46030  1.0000 0.1134632073
H   H114      1.0  0.05090  0.02520  0.96030  1.0000 0.1134632073
H   H115      1.0  0.19680  0.43690  0.50170  1.0000 0.1372878408
H   H116      1.0  0.19680  0.06310  0.00170  1.0000 0.1372878408
H   H117      1.0  0.14230  0.32410  0.33720  1.0000 0.1301477668
H   H118      1.0  0.14230  0.17590  0.83720  1.0000 0.1301477668
H   H119      1.0  0.99760  0.36430  0.30100  1.0000 0.1202925227
H   H120      1.0  0.99760  0.13570  0.80100  1.0000 0.1202925227
H   H121      1.0  0.30910  0.35650  0.54550  1.0000 0.1202925227
H   H122      1.0  0.30910  0.14350  0.04550  1.0000 0.1202925227
H   H123      1.0  0.45890  0.32640  0.58450  1.0000 0.1202925227
H   H124      1.0  0.45890  0.17360  0.08450  1.0000 0.1202925227
H   H125      1.0  0.43500  0.29570  0.40240  1.0000 0.1301477668
H   H126      1.0  0.43500  0.20430  0.90240  1.0000 0.1301477668
H   H127      1.0  0.28600  0.32840  0.36310  1.0000 0.1202925227
H   H128      1.0  0.28600  0.17160  0.86310  1.0000 0.1202925227
C   C1        1.0  0.12620  0.11295  0.11382  1.0000 0.5810267036
C   C2        1.0  0.12620  0.38705  0.61382  1.0000 0.5810267036
C   C3        1.0  0.08020  0.17286  0.06632  1.0000 -0.046373999
C   C4        1.0  0.08020  0.32714  0.56632  1.0000 -0.046373999
C   C5        1.0  0.99820  0.15896  0.01499  1.0000 -0.0901487003
C   C6        1.0  0.99820  0.34104  0.51499  1.0000 -0.0901487003
C   C7        1.0  0.95940  0.21081  0.96669  1.0000 -0.1914029983
C   C8        1.0  0.95940  0.28919  0.46669  1.0000 -0.1914029983
C   C9        1.0  0.00210  0.27787  0.97025  1.0000 0.1714402753
C   C10       1.0  0.00210  0.22213  0.47025  1.0000 0.1714402753
C   C11       1.0  0.08200  0.29385  0.02284  1.0000 -0.2015145404
C   C12       1.0  0.08200  0.20615  0.52284  1.0000 -0.1914029983
C   C13       1.0  0.12080  0.24097  0.07020  1.0000 -0.0901487003
C   C14       1.0  0.12080  0.25903  0.57020  1.0000 -0.0901487003
C   C15       1.0  0.15720  0.43750  0.77721  1.0000 0.5887574261
C   C16       1.0  0.15720  0.06250  0.27721  1.0000 0.5887574261
C   C17       1.0  0.11110  0.41154  0.81818  1.0000 -0.0401168163
C   C18       1.0  0.11110  0.08846  0.31818  1.0000 -0.0401168163
C   C19       1.0  0.14240  0.35128  0.85916  1.0000 -0.0901487003
C   C20       1.0  0.14240  0.14872  0.35916  1.0000 -0.0901487003
C   C21       1.0  0.09490  0.32413  0.89256  1.0000 -0.2074544325
C   C22       1.0  0.09490  0.17587  0.39256  1.0000 -0.2074544325
C   C23       1.0  0.01470  0.35721  0.88662  1.0000 0.1957629924
C   C24       1.0  0.01470  0.14279  0.38662  1.0000 0.1945935195
C   C25       1.0  0.98530  0.41999  0.84768  1.0000 -0.1914029983
C   C26       1.0  0.98530  0.08001  0.34768  1.0000 -0.1914029983
C   C27       1.0  0.03190  0.44573  0.81306  1.0000 -0.0901487003
C   C28       1.0  0.03190  0.05427  0.31306  1.0000 -0.0901487003
C   C29       1.0  0.44250  0.37470  0.81452  1.0000 0.0879368098
C   C30       1.0  0.44250  0.12530  0.31452  1.0000 0.0879368098
C   C31       1.0  0.53170  0.35510  0.84218  1.0000 -0.2074544325
C   C32       1.0  0.53170  0.14490  0.34218  1.0000 -0.2074544325
C   C33       1.0  0.58480  0.36347  0.80790  1.0000 0.1202925227
C   C34       1.0  0.58480  0.13653  0.30790  1.0000 0.1202925227
C   C35       1.0  0.54150  0.38740  0.74397  1.0000 -0.2074544325
C   C36       1.0  0.54150  0.11260  0.24397  1.0000 -0.2074544325
C   C37       1.0  0.45190  0.40620  0.71943  1.0000 0.0879368098
C   C38       1.0  0.45190  0.09380  0.21943  1.0000 0.0879368098
C   C39       1.0  0.68250  0.35032  0.83683  1.0000 0.0458575678
C   C40       1.0  0.68250  0.14968  0.33683  1.0000 0.0458575678
C   C41       1.0  0.72720  0.32990  0.79868  1.0000 -0.119217209
C   C42       1.0  0.72720  0.17010  0.29868  1.0000 -0.119217209
C   C43       1.0  0.81910  0.32210  0.82515  1.0000 -0.1627692054
C   C44       1.0  0.81910  0.17790  0.32515  1.0000 -0.1627692054
C   C45       1.0  0.86890  0.33491  0.89053  1.0000 0.1714402753
C   C46       1.0  0.86890  0.16509  0.39053  1.0000 0.1714402753
C   C47       1.0  0.82490  0.35260  0.92933  1.0000 -0.1680289297
C   C48       1.0  0.82490  0.14740  0.42933  1.0000 -0.1680289297
C   C49       1.0  0.73260  0.36030  0.90277  1.0000 -0.1276841916
C   C50       1.0  0.73260  0.13970  0.40277  1.0000 -0.1276841916
C   C51       1.0  0.25570  0.94623  0.10991  1.0000 0.5739000445
C   C52       1.0  0.25570  0.55377  0.60991  1.0000 0.5739000445
C   C53       1.0  0.30300  0.90820  0.07422  1.0000 -0.0401168163
C   C54       1.0  0.30300  0.59180  0.57422  1.0000 -0.0401168163
C   C55       1.0  0.28400  0.83512  0.05498  1.0000 -0.0901487003
C   C56       1.0  0.28400  0.66488  0.55498  1.0000 -0.0901487003
C   C57       1.0  0.32930  0.79897  0.02384  1.0000 -0.1914029983
C   C58       1.0  0.32930  0.70103  0.52384  1.0000 -0.1914029983
C   C59       1.0  0.39470  0.83500  0.01103  1.0000 0.1817830415
C   C60       1.0  0.39470  0.66500  0.51103  1.0000 0.1817830415
C   C61       1.0  0.41470  0.90810  0.03065  1.0000 -0.1914029983
C   C62       1.0  0.41470  0.59190  0.53065  1.0000 -0.1914029983
C   C63       1.0  0.36990  0.94380  0.06208  1.0000 -0.0972124817
C   C64       1.0  0.36990  0.55620  0.56208  1.0000 -0.0972124817
C   C65       1.0  0.26200  0.60433  0.76728  1.0000 0.5810267036
C   C66       1.0  0.26200  0.89567  0.26728  1.0000 0.5810267036
C   C67       1.0  0.30990  0.65644  0.82191  1.0000 -0.046373999
C   C68       1.0  0.30990  0.84356  0.32191  1.0000 -0.046373999
C   C69       1.0  0.39790  0.64310  0.86469  1.0000 -0.0802673469
C   C70       1.0  0.39790  0.85690  0.36469  1.0000 -0.0802673469
C   C71       1.0  0.44210  0.69000  0.91646  1.0000 -0.2015145404
C   C72       1.0  0.44210  0.81000  0.41646  1.0000 -0.2015145404
C   C73       1.0  0.39840  0.75136  0.92633  1.0000 0.1817830415
C   C74       1.0  0.39840  0.74864  0.42633  1.0000 0.1817830415
C   C75       1.0  0.31080  0.76474  0.88380  1.0000 -0.2015145404
C   C76       1.0  0.31080  0.73526  0.38380  1.0000 -0.2015145404
C   C77       1.0  0.26680  0.71753  0.83201  1.0000 -0.0972124817
C   C78       1.0  0.26680  0.78247  0.33201  1.0000 -0.0972124817
C   C79       1.0  0.93050  0.94353  0.06433  1.0000 0.0996293282
C   C80       1.0  0.93050  0.55647  0.56433  1.0000 0.0996293282
C   C81       1.0  0.84240  0.92110  0.03927  1.0000 -0.1914029983
C   C82       1.0  0.84240  0.57890  0.53927  1.0000 -0.1914029983
C   C83       1.0  0.81210  0.87500  0.07509  1.0000 0.1202925227
C   C84       1.0  0.81210  0.62500  0.57509  1.0000 0.1202925227
C   C85       1.0  0.87480  0.85430  0.13658  1.0000 -0.2015145404
C   C86       1.0  0.87480  0.64570  0.63658  1.0000 -0.2015145404
C   C87       1.0  0.96170  0.87867  0.15807  1.0000 0.0879368098
C   C88       1.0  0.96170  0.62133  0.65807  1.0000 0.0879368098
C   C89       1.0  0.71800  0.84988  0.05000  1.0000 0.0428474923
C   C90       1.0  0.71800  0.65012  0.55000  1.0000 0.0428474923
C   C91       1.0  0.66530  0.84637  0.98352  1.0000 -0.1276841916
C   C92       1.0  0.66530  0.65363  0.48352  1.0000 -0.1276841916
C   C93       1.0  0.57530  0.82810  0.95999  1.0000 -0.1826317883
C   C94       1.0  0.57530  0.67190  0.45999  1.0000 -0.1826317883
C   C95       1.0  0.53640  0.81230  0.00252  1.0000 0.1714402753
C   C96       1.0  0.53640  0.68770  0.50252  1.0000 0.1714402753
C   C97       1.0  0.58980  0.81010  0.06901  1.0000 -0.1826317883
C   C98       1.0  0.58980  0.68990  0.56901  1.0000 -0.1826317883
C   C99       1.0  0.67920  0.82920  0.09252  1.0000 -0.1276841916
C   C100      1.0  0.67920  0.67080  0.59252  1.0000 -0.1276841916
C   C101      1.0  0.87380  0.61295  0.38618  1.0000 0.5810267036
C   C102      1.0  0.87380  0.88705  0.88618  1.0000 0.5810267036
C   C103      1.0  0.91980  0.67286  0.43368  1.0000 -0.0401168163
C   C104      1.0  0.91980  0.82714  0.93368  1.0000 -0.046373999
C   C105      1.0  0.00180  0.65896  0.48501  1.0000 -0.0901487003
C   C106      1.0  0.00180  0.84104  0.98501  1.0000 -0.0901487003
C   C107      1.0  0.04060  0.71081  0.53331  1.0000 -0.1914029983
C   C108      1.0  0.04060  0.78919  0.03331  1.0000 -0.1914029983
C   C109      1.0  0.99790  0.77787  0.52975  1.0000 0.1714402753
C   C110      1.0  0.99790  0.72213  0.02975  1.0000 0.1714402753
C   C111      1.0  0.91800  0.79385  0.47716  1.0000 -0.1914029983
C   C112      1.0  0.91800  0.70615  0.97716  1.0000 -0.1914029983
C   C113      1.0  0.87920  0.74097  0.42980  1.0000 -0.0901487003
C   C114      1.0  0.87920  0.75903  0.92980  1.0000 -0.0901487003
C   C115      1.0  0.84280  0.93750  0.72279  1.0000 0.5887574261
C   C116      1.0  0.84280  0.56250  0.22279  1.0000 0.5887574261
C   C117      1.0  0.88890  0.91154  0.68182  1.0000 -0.0401168163
C   C118      1.0  0.88890  0.58846  0.18182  1.0000 -0.0401168163
C   C119      1.0  0.85760  0.85128  0.64084  1.0000 -0.0901487003
C   C120      1.0  0.85760  0.64872  0.14084  1.0000 -0.0901487003
C   C121      1.0  0.90510  0.82413  0.60744  1.0000 -0.2074544325
C   C122      1.0  0.90510  0.67587  0.10744  1.0000 -0.2074544325
C   C123      1.0  0.98530  0.85721  0.61338  1.0000 0.1957629924
C   C124      1.0  0.98530  0.64279  0.11338  1.0000 0.1945935195
C   C125      1.0  0.01470  0.91999  0.65232  1.0000 -0.1914029983
C   C126      1.0  0.01470  0.58001  0.15232  1.0000 -0.1914029983
C   C127      1.0  0.96810  0.94573  0.68694  1.0000 -0.0901487003
C   C128      1.0  0.96810  0.55427  0.18694  1.0000 -0.0901487003
C   C129      1.0  0.55750  0.87470  0.68548  1.0000 0.0879368098
C   C130      1.0  0.55750  0.62530  0.18548  1.0000 0.0879368098
C   C131      1.0  0.46830  0.85510  0.65782  1.0000 -0.2074544325
C   C132      1.0  0.46830  0.64490  0.15782  1.0000 -0.2074544325
C   C133      1.0  0.41520  0.86347  0.69210  1.0000 0.1202925227
C   C134      1.0  0.41520  0.63653  0.19210  1.0000 0.1202925227
C   C135      1.0  0.45850  0.88740  0.75603  1.0000 -0.2074544325
C   C136      1.0  0.45850  0.61260  0.25603  1.0000 -0.2074544325
C   C137      1.0  0.54810  0.90620  0.78057  1.0000 0.0879368098
C   C138      1.0  0.54810  0.59380  0.28057  1.0000 0.0879368098
C   C139      1.0  0.31750  0.85032  0.66317  1.0000 0.0458575678
C   C140      1.0  0.31750  0.64968  0.16317  1.0000 0.0458575678
C   C141      1.0  0.27280  0.82990  0.70132  1.0000 -0.119217209
C   C142      1.0  0.27280  0.67010  0.20132  1.0000 -0.119217209
C   C143      1.0  0.18090  0.82210  0.67485  1.0000 -0.1627692054
C   C144      1.0  0.18090  0.67790  0.17485  1.0000 -0.1627692054
C   C145      1.0  0.13110  0.83491  0.60947  1.0000 0.1714402753
C   C146      1.0  0.13110  0.66509  0.10947  1.0000 0.1714402753
C   C147      1.0  0.17510  0.85260  0.57067  1.0000 -0.1680289297
C   C148      1.0  0.17510  0.64740  0.07067  1.0000 -0.1680289297
C   C149      1.0  0.26740  0.86030  0.59723  1.0000 -0.1276841916
C   C150      1.0  0.26740  0.63970  0.09723  1.0000 -0.1276841916
C   C151      1.0  0.74430  0.44623  0.39009  1.0000 0.5739000445
C   C152      1.0  0.74430  0.05377  0.89009  1.0000 0.5739000445
C   C153      1.0  0.69700  0.40820  0.42578  1.0000 -0.0401168163
C   C154      1.0  0.69700  0.09180  0.92578  1.0000 -0.0401168163
C   C155      1.0  0.71600  0.33512  0.44502  1.0000 -0.0901487003
C   C156      1.0  0.71600  0.16488  0.94502  1.0000 -0.0901487003
C   C157      1.0  0.67070  0.29897  0.47616  1.0000 -0.1914029983
C   C158      1.0  0.67070  0.20103  0.97616  1.0000 -0.1914029983
C   C159      1.0  0.60530  0.33500  0.48897  1.0000 0.1817830415
C   C160      1.0  0.60530  0.16500  0.98897  1.0000 0.1817830415
C   C161      1.0  0.58530  0.40810  0.46935  1.0000 -0.1914029983
C   C162      1.0  0.58530  0.09190  0.96935  1.0000 -0.1914029983
C   C163      1.0  0.63010  0.44380  0.43792  1.0000 -0.0972124817
C   C164      1.0  0.63010  0.05620  0.93792  1.0000 -0.0972124817
C   C165      1.0  0.73800  0.10433  0.73272  1.0000 0.5810267036
C   C166      1.0  0.73800  0.39567  0.23272  1.0000 0.5810267036
C   C167      1.0  0.69010  0.15644  0.67809  1.0000 -0.046373999
C   C168      1.0  0.69010  0.34356  0.17809  1.0000 -0.046373999
C   C169      1.0  0.60210  0.14310  0.63531  1.0000 -0.0802673469
C   C170      1.0  0.60210  0.35690  0.13531  1.0000 -0.0802673469
C   C171      1.0  0.55790  0.19000  0.58354  1.0000 -0.2015145404
C   C172      1.0  0.55790  0.31000  0.08354  1.0000 -0.2015145404
C   C173      1.0  0.60160  0.25136  0.57367  1.0000 0.1817830415
C   C174      1.0  0.60160  0.24864  0.07367  1.0000 0.1817830415
C   C175      1.0  0.68920  0.26474  0.61620  1.0000 -0.2015145404
C   C176      1.0  0.68920  0.23526  0.11620  1.0000 -0.2015145404
C   C177      1.0  0.73320  0.21753  0.66799  1.0000 -0.0972124817
C   C178      1.0  0.73320  0.28247  0.16799  1.0000 -0.0972124817
C   C179      1.0  0.06950  0.44353  0.43567  1.0000 0.0996293282
C   C180      1.0  0.06950  0.05647  0.93567  1.0000 0.0996293282
C   C181      1.0  0.15760  0.42110  0.46073  1.0000 -0.1914029983
C   C182      1.0  0.15760  0.07890  0.96073  1.0000 -0.1914029983
C   C183      1.0  0.18790  0.37500  0.42491  1.0000 0.1202925227
C   C184      1.0  0.18790  0.12500  0.92491  1.0000 0.1202925227
C   C185      1.0  0.12520  0.35430  0.36342  1.0000 -0.2015145404
C   C186      1.0  0.12520  0.14570  0.86342  1.0000 -0.2015145404
C   C187      1.0  0.03830  0.37867  0.34193  1.0000 0.0879368098
C   C188      1.0  0.03830  0.12133  0.84193  1.0000 0.0879368098
C   C189      1.0  0.28200  0.34988  0.45000  1.0000 0.0428474923
C   C190      1.0  0.28200  0.15012  0.95000  1.0000 0.0428474923
C   C191      1.0  0.33470  0.34637  0.51648  1.0000 -0.1276841916
C   C192      1.0  0.33470  0.15363  0.01648  1.0000 -0.1276841916
C   C193      1.0  0.42470  0.32810  0.54001  1.0000 -0.1826317883
C   C194      1.0  0.42470  0.17190  0.04001  1.0000 -0.1826317883
C   C195      1.0  0.46360  0.31230  0.49748  1.0000 0.1714402753
C   C196      1.0  0.46360  0.18770  0.99748  1.0000 0.1714402753
C   C197      1.0  0.41020  0.31010  0.43099  1.0000 -0.1826317883
C   C198      1.0  0.41020  0.18990  0.93099  1.0000 -0.1826317883
C   C199      1.0  0.32080  0.32920  0.40748  1.0000 -0.1276841916
C   C200      1.0  0.32080  0.17080  0.90748  1.0000 -0.1276841916
N   N1        1.0  0.96376  0.32896  0.91848  1.0000 -0.1680289297
N   N2        1.0  0.96376  0.17104  0.41848  1.0000 -0.1680289297
N   N3        1.0  0.40294  0.40243  0.75444  1.0000 -0.2183571788
N   N4        1.0  0.40294  0.09757  0.25444  1.0000 -0.2183571788
N   N5        1.0  0.44310  0.79792  0.98015  1.0000 -0.1914029983
N   N6        1.0  0.44310  0.70208  0.48015  1.0000 -0.1914029983
N   N7        1.0  0.99052  0.92221  0.12268  1.0000 -0.2183571788
N   N8        1.0  0.99052  0.57779  0.62268  1.0000 -0.2183571788
N   N9        1.0  0.03624  0.82896  0.58152  1.0000 -0.1680289297
N   N10       1.0  0.03624  0.67104  0.08152  1.0000 -0.1680289297
N   N11       1.0  0.59706  0.90243  0.74556  1.0000 -0.2183571788
N   N12       1.0  0.59706  0.59757  0.24556  1.0000 -0.2183571788
N   N13       1.0  0.55690  0.29792  0.51985  1.0000 -0.1914029983
N   N14       1.0  0.55690  0.20208  0.01985  1.0000 -0.1914029983
N   N15       1.0  0.00948  0.42221  0.37732  1.0000 -0.2183571788
N   N16       1.0  0.00948  0.07779  0.87732  1.0000 -0.2183571788
O   O1        1.0  0.09126  0.04980  0.10125  1.0000 -0.5613005156
O   O2        1.0  0.09126  0.45020  0.60125  1.0000 -0.5613005156
O   O3        1.0  0.19695  0.12976  0.16212  1.0000 -0.5412447149
O   O4        1.0  0.19695  0.37024  0.66212  1.0000 -0.5412447149
O   O5        1.0  0.23702  0.41741  0.79105  1.0000 -0.5481225396
O   O6        1.0  0.23702  0.08259  0.29105  1.0000 -0.5481225396
O   O7        1.0  0.11141  0.47712  0.72944  1.0000 -0.5613005156
O   O8        1.0  0.11141  0.02288  0.22944  1.0000 -0.5613005156
O   O9        1.0  0.28870  0.00611  0.13851  1.0000 -0.5711003238
O   O10       1.0  0.28870  0.49389  0.63851  1.0000 -0.5711003238
O   O11       1.0  0.18708  0.91525  0.11018  1.0000 -0.5327472384
O   O12       1.0  0.18708  0.58475  0.61018  1.0000 -0.5327472384
O   O13       1.0  0.30623  0.55048  0.76087  1.0000 -0.5481225396
O   O14       1.0  0.30623  0.94952  0.26087  1.0000 -0.5481225396
O   O15       1.0  0.18144  0.61787  0.73143  1.0000 -0.5412447149
O   O16       1.0  0.18144  0.88213  0.23143  1.0000 -0.5412447149
O   O17       1.0  0.90874  0.54980  0.39875  1.0000 -0.5613005156
O   O18       1.0  0.90874  0.95020  0.89875  1.0000 -0.5613005156
O   O19       1.0  0.80305  0.62976  0.33788  1.0000 -0.5412447149
O   O20       1.0  0.80305  0.87024  0.83788  1.0000 -0.5412447149
O   O21       1.0  0.76298  0.91741  0.70895  1.0000 -0.5481225396
O   O22       1.0  0.76298  0.58259  0.20895  1.0000 -0.5481225396
O   O23       1.0  0.88859  0.97712  0.77056  1.0000 -0.5613005156
O   O24       1.0  0.88859  0.52288  0.27056  1.0000 -0.5613005156
O   O25       1.0  0.71130  0.50611  0.36149  1.0000 -0.5711003238
O   O26       1.0  0.71130  0.99389  0.86149  1.0000 -0.5711003238
O   O27       1.0  0.81292  0.41525  0.38982  1.0000 -0.5327472384
O   O28       1.0  0.81292  0.08475  0.88982  1.0000 -0.5327472384
O   O29       1.0  0.69377  0.05048  0.73913  1.0000 -0.5481225396
O   O30       1.0  0.69377  0.44952  0.23913  1.0000 -0.5481225396
O   O31       1.0  0.81856  0.11787  0.76857  1.0000 -0.5412447149
O   O32       1.0  0.81856  0.38213  0.26857  1.0000 -0.5412447149
