# DDEC6 charges by PACMAN v1.1 (https://github.com/mtap-research/PACMAN-charge/)
data_2016[Cu][nbo]3[ASR]49
_chemical_formula_sum              "Cu6 H78 C126 O30"
_cell_length_a       21.6536
_cell_length_b       21.6536
_cell_length_c       21.6536
_cell_angle_alpha    106.945
_cell_angle_beta     106.945
_cell_angle_gamma    106.945

_symmetry_space_group_name_H-M    "P 1"
_symmetry_Int_Tables_number       1

loop_
  _symmetry_equiv_pos_as_xyz
  'x, y, z'

loop_
  _atom_site_type_symbol
  _atom_site_label
  _atom_site_symmetry_multiplicity
  _atom_site_fract_x
  _atom_site_fract_y
  _atom_site_fract_z
  _atom_site_occupancy
  _atom_site_charge
Cu  Cu1       1.0  0.45920  0.93227  0.45920  1.0000 0.8614404833
Cu  Cu2       1.0  0.93227  0.45920  0.45920  1.0000 0.8614404833
Cu  Cu3       1.0  0.45920  0.45920  0.93227  1.0000 0.8614404833
Cu  Cu4       1.0  0.06773  0.54080  0.54080  1.0000 0.8614404833
Cu  Cu5       1.0  0.54080  0.06773  0.54080  1.0000 0.8614404833
Cu  Cu6       1.0  0.54080  0.54080  0.06773  1.0000 0.8614404833
H   H1        1.0  0.43770  0.86050  0.62160  1.0000 0.1299281019
H   H2        1.0  0.86050  0.62160  0.43770  1.0000 0.1299281019
H   H3        1.0  0.62160  0.43770  0.86050  1.0000 0.1299281019
H   H4        1.0  0.13950  0.56230  0.37840  1.0000 0.1299281019
H   H5        1.0  0.37840  0.13950  0.56230  1.0000 0.1299281019
H   H6        1.0  0.56230  0.37840  0.13950  1.0000 0.1299281019
H   H7        1.0  0.56230  0.13950  0.37840  1.0000 0.1299281019
H   H8        1.0  0.13950  0.37840  0.56230  1.0000 0.1299281019
H   H9        1.0  0.37840  0.56230  0.13950  1.0000 0.1299281019
H   H10       1.0  0.86050  0.43770  0.62160  1.0000 0.1299281019
H   H11       1.0  0.62160  0.86050  0.43770  1.0000 0.1299281019
H   H12       1.0  0.43770  0.62160  0.86050  1.0000 0.1299281019
H   H13       1.0  0.44250  0.83990  0.72050  1.0000 0.1194993643
H   H14       1.0  0.83990  0.72050  0.44250  1.0000 0.1194993643
H   H15       1.0  0.72050  0.44250  0.83990  1.0000 0.1194993643
H   H16       1.0  0.16010  0.55750  0.27950  1.0000 0.1194993643
H   H17       1.0  0.27950  0.16010  0.55750  1.0000 0.1194993643
H   H18       1.0  0.55750  0.27950  0.16010  1.0000 0.1194993643
H   H19       1.0  0.55750  0.16010  0.27950  1.0000 0.1194993643
H   H20       1.0  0.16010  0.27950  0.55750  1.0000 0.1194993643
H   H21       1.0  0.27950  0.55750  0.16010  1.0000 0.1194993643
H   H22       1.0  0.83990  0.44250  0.72050  1.0000 0.1194993643
H   H23       1.0  0.72050  0.83990  0.44250  1.0000 0.1194993643
H   H24       1.0  0.44250  0.72050  0.83990  1.0000 0.1194993643
H   H25       1.0  0.57580  0.04090  0.84280  1.0000 0.1194993643
H   H26       1.0  0.04090  0.84280  0.57580  1.0000 0.1194993643
H   H27       1.0  0.84280  0.57580  0.04090  1.0000 0.1194993643
H   H28       1.0  0.95910  0.42420  0.15720  1.0000 0.1194993643
H   H29       1.0  0.15720  0.95910  0.42420  1.0000 0.1194993643
H   H30       1.0  0.42420  0.15720  0.95910  1.0000 0.1194993643
H   H31       1.0  0.42420  0.95910  0.15720  1.0000 0.1194993643
H   H32       1.0  0.95910  0.15720  0.42420  1.0000 0.1194993643
H   H33       1.0  0.15720  0.42420  0.95910  1.0000 0.1194993643
H   H34       1.0  0.04090  0.57580  0.84280  1.0000 0.1194993643
H   H35       1.0  0.84280  0.04090  0.57580  1.0000 0.1194993643
H   H36       1.0  0.57580  0.84280  0.04090  1.0000 0.1194993643
H   H37       1.0  0.57300  0.06120  0.74400  1.0000 0.1299281019
H   H38       1.0  0.06120  0.74400  0.57300  1.0000 0.1299281019
H   H39       1.0  0.74400  0.57300  0.06120  1.0000 0.1299281019
H   H40       1.0  0.93880  0.42700  0.25600  1.0000 0.1299281019
H   H41       1.0  0.25600  0.93880  0.42700  1.0000 0.1299281019
H   H42       1.0  0.42700  0.25600  0.93880  1.0000 0.1299281019
H   H43       1.0  0.42700  0.93880  0.25600  1.0000 0.1299281019
H   H44       1.0  0.93880  0.25600  0.42700  1.0000 0.1299281019
H   H45       1.0  0.25600  0.42700  0.93880  1.0000 0.1299281019
H   H46       1.0  0.06120  0.57300  0.74400  1.0000 0.1299281019
H   H47       1.0  0.74400  0.06120  0.57300  1.0000 0.1299281019
H   H48       1.0  0.57300  0.74400  0.06120  1.0000 0.1299281019
H   H49       1.0  0.50100  0.01870  0.90410  1.0000 0.1112188714
H   H50       1.0  0.01870  0.90410  0.50100  1.0000 0.1112188714
H   H51       1.0  0.90410  0.50100  0.01870  1.0000 0.1112188714
H   H52       1.0  0.98130  0.49900  0.09590  1.0000 0.1112188714
H   H53       1.0  0.09590  0.98130  0.49900  1.0000 0.1112188714
H   H54       1.0  0.49900  0.09590  0.98130  1.0000 0.1112188714
H   H55       1.0  0.49900  0.98130  0.09590  1.0000 0.1112188714
H   H56       1.0  0.98130  0.09590  0.49900  1.0000 0.1112188714
H   H57       1.0  0.09590  0.49900  0.98130  1.0000 0.1112188714
H   H58       1.0  0.01870  0.50100  0.90410  1.0000 0.1112188714
H   H59       1.0  0.90410  0.01870  0.50100  1.0000 0.1112188714
H   H60       1.0  0.50100  0.90410  0.01870  1.0000 0.1112188714
H   H61       1.0  0.57730  0.78210  0.78210  1.0000 0.1194993643
H   H62       1.0  0.78210  0.78210  0.57730  1.0000 0.1194993643
H   H63       1.0  0.78210  0.57730  0.78210  1.0000 0.1194993643
H   H64       1.0  0.21790  0.42270  0.21790  1.0000 0.1194993643
H   H65       1.0  0.21790  0.21790  0.42270  1.0000 0.1194993643
H   H66       1.0  0.42270  0.21790  0.21790  1.0000 0.1194993643
H   H67       1.0  0.60610  0.86480  0.81970  1.0000 0.1112188714
H   H68       1.0  0.86480  0.81970  0.60610  1.0000 0.1112188714
H   H69       1.0  0.81970  0.60610  0.86480  1.0000 0.1112188714
H   H70       1.0  0.13520  0.39390  0.18030  1.0000 0.1112188714
H   H71       1.0  0.18030  0.13520  0.39390  1.0000 0.1112188714
H   H72       1.0  0.39390  0.18030  0.13520  1.0000 0.1112188714
H   H73       1.0  0.39390  0.13520  0.18030  1.0000 0.1112188714
H   H74       1.0  0.13520  0.18030  0.39390  1.0000 0.1112188714
H   H75       1.0  0.18030  0.39390  0.13520  1.0000 0.1112188714
H   H76       1.0  0.86480  0.60610  0.81970  1.0000 0.1112188714
H   H77       1.0  0.81970  0.86480  0.60610  1.0000 0.1112188714
H   H78       1.0  0.60610  0.81970  0.86480  1.0000 0.1112188714
C   C1        1.0  0.50533  0.97651  0.60836  1.0000 0.579773211
C   C2        1.0  0.97651  0.60836  0.50533  1.0000 0.579773211
C   C3        1.0  0.60836  0.50533  0.97651  1.0000 0.579773211
C   C4        1.0  0.02349  0.49467  0.39164  1.0000 0.579773211
C   C5        1.0  0.39164  0.02349  0.49467  1.0000 0.579773211
C   C6        1.0  0.49467  0.39164  0.02349  1.0000 0.579773211
C   C7        1.0  0.49467  0.02349  0.39164  1.0000 0.579773211
C   C8        1.0  0.02349  0.39164  0.49467  1.0000 0.579773211
C   C9        1.0  0.39164  0.49467  0.02349  1.0000 0.579773211
C   C10       1.0  0.97651  0.50533  0.60836  1.0000 0.579773211
C   C11       1.0  0.60836  0.97651  0.50533  1.0000 0.579773211
C   C12       1.0  0.50533  0.60836  0.97651  1.0000 0.579773211
C   C13       1.0  0.50748  0.96316  0.67296  1.0000 -0.0304657336
C   C14       1.0  0.96316  0.67296  0.50748  1.0000 -0.0304657336
C   C15       1.0  0.67296  0.50748  0.96316  1.0000 -0.0304657336
C   C16       1.0  0.03684  0.49252  0.32704  1.0000 -0.0304657336
C   C17       1.0  0.32704  0.03684  0.49252  1.0000 -0.0304657336
C   C18       1.0  0.49252  0.32704  0.03684  1.0000 -0.0304657336
C   C19       1.0  0.49252  0.03684  0.32704  1.0000 -0.0304657336
C   C20       1.0  0.03684  0.32704  0.49252  1.0000 -0.0356001968
C   C21       1.0  0.32704  0.49252  0.03684  1.0000 -0.0356001968
C   C22       1.0  0.96316  0.50748  0.67296  1.0000 -0.0304657336
C   C23       1.0  0.67296  0.96316  0.50748  1.0000 -0.0304657336
C   C24       1.0  0.50748  0.67296  0.96316  1.0000 -0.0304657336
C   C25       1.0  0.46650  0.89687  0.66629  1.0000 -0.0919922996
C   C26       1.0  0.89687  0.66629  0.46650  1.0000 -0.0919922996
C   C27       1.0  0.66629  0.46650  0.89687  1.0000 -0.0919922996
C   C28       1.0  0.10313  0.53350  0.33371  1.0000 -0.0919922996
C   C29       1.0  0.33371  0.10313  0.53350  1.0000 -0.0919922996
C   C30       1.0  0.53350  0.33371  0.10313  1.0000 -0.0919922996
C   C31       1.0  0.53350  0.10313  0.33371  1.0000 -0.0919922996
C   C32       1.0  0.10313  0.33371  0.53350  1.0000 -0.0919922996
C   C33       1.0  0.33371  0.53350  0.10313  1.0000 -0.0919922996
C   C34       1.0  0.89687  0.46650  0.66629  1.0000 -0.0919922996
C   C35       1.0  0.66629  0.89687  0.46650  1.0000 -0.0919922996
C   C36       1.0  0.46650  0.66629  0.89687  1.0000 -0.0919922996
C   C37       1.0  0.46858  0.88502  0.72568  1.0000 -0.1491490865
C   C38       1.0  0.88502  0.72568  0.46858  1.0000 -0.1491490865
C   C39       1.0  0.72568  0.46858  0.88502  1.0000 -0.1491490865
C   C40       1.0  0.11498  0.53142  0.27432  1.0000 -0.1491490865
C   C41       1.0  0.27432  0.11498  0.53142  1.0000 -0.1491490865
C   C42       1.0  0.53142  0.27432  0.11498  1.0000 -0.1491490865
C   C43       1.0  0.53142  0.11498  0.27432  1.0000 -0.1491490865
C   C44       1.0  0.11498  0.27432  0.53142  1.0000 -0.1491490865
C   C45       1.0  0.27432  0.53142  0.11498  1.0000 -0.1491490865
C   C46       1.0  0.88502  0.46858  0.72568  1.0000 -0.1491490865
C   C47       1.0  0.72568  0.88502  0.46858  1.0000 -0.1491490865
C   C48       1.0  0.46858  0.72568  0.88502  1.0000 -0.1491490865
C   C49       1.0  0.50856  0.93843  0.79291  1.0000 0.081193342
C   C50       1.0  0.93843  0.79291  0.50856  1.0000 0.081193342
C   C51       1.0  0.79291  0.50856  0.93843  1.0000 0.081193342
C   C52       1.0  0.06157  0.49144  0.20709  1.0000 0.081193342
C   C53       1.0  0.20709  0.06157  0.49144  1.0000 0.081193342
C   C54       1.0  0.49144  0.20709  0.06157  1.0000 0.081193342
C   C55       1.0  0.49144  0.06157  0.20709  1.0000 0.081193342
C   C56       1.0  0.06157  0.20709  0.49144  1.0000 0.081193342
C   C57       1.0  0.20709  0.49144  0.06157  1.0000 0.081193342
C   C58       1.0  0.93843  0.50856  0.79291  1.0000 0.081193342
C   C59       1.0  0.79291  0.93843  0.50856  1.0000 0.081193342
C   C60       1.0  0.50856  0.79291  0.93843  1.0000 0.081193342
C   C61       1.0  0.54786  0.00401  0.79828  1.0000 -0.1592812491
C   C62       1.0  0.00401  0.79828  0.54786  1.0000 -0.1592812491
C   C63       1.0  0.79828  0.54786  0.00401  1.0000 -0.1592812491
C   C64       1.0  0.99599  0.45214  0.20172  1.0000 -0.1592812491
C   C65       1.0  0.20172  0.99599  0.45214  1.0000 -0.1592812491
C   C66       1.0  0.45214  0.20172  0.99599  1.0000 -0.1592812491
C   C67       1.0  0.45214  0.99599  0.20172  1.0000 -0.1592812491
C   C68       1.0  0.99599  0.20172  0.45214  1.0000 -0.1592812491
C   C69       1.0  0.20172  0.45214  0.99599  1.0000 -0.1592812491
C   C70       1.0  0.00401  0.54786  0.79828  1.0000 -0.1592812491
C   C71       1.0  0.79828  0.00401  0.54786  1.0000 -0.1592812491
C   C72       1.0  0.54786  0.79828  0.00401  1.0000 -0.1592812491
C   C73       1.0  0.54666  0.01615  0.73880  1.0000 -0.0919922996
C   C74       1.0  0.01615  0.73880  0.54666  1.0000 -0.0919922996
C   C75       1.0  0.73880  0.54666  0.01615  1.0000 -0.0919922996
C   C76       1.0  0.98385  0.45334  0.26120  1.0000 -0.0919922996
C   C77       1.0  0.26120  0.98385  0.45334  1.0000 -0.0919922996
C   C78       1.0  0.45334  0.26120  0.98385  1.0000 -0.0919922996
C   C79       1.0  0.45334  0.98385  0.26120  1.0000 -0.0919922996
C   C80       1.0  0.98385  0.26120  0.45334  1.0000 -0.0919922996
C   C81       1.0  0.26120  0.45334  0.98385  1.0000 -0.0919922996
C   C82       1.0  0.01615  0.54666  0.73880  1.0000 -0.0919922996
C   C83       1.0  0.73880  0.01615  0.54666  1.0000 -0.0919922996
C   C84       1.0  0.54666  0.73880  0.01615  1.0000 -0.0919922996
C   C85       1.0  0.50837  0.92749  0.85756  1.0000 -0.0304657336
C   C86       1.0  0.92749  0.85756  0.50837  1.0000 -0.0245680848
C   C87       1.0  0.85756  0.50837  0.92749  1.0000 -0.0304657336
C   C88       1.0  0.07251  0.49163  0.14244  1.0000 -0.0245680848
C   C89       1.0  0.14244  0.07251  0.49163  1.0000 -0.0304657336
C   C90       1.0  0.49163  0.14244  0.07251  1.0000 -0.0245680848
C   C91       1.0  0.49163  0.07251  0.14244  1.0000 -0.0304657336
C   C92       1.0  0.07251  0.14244  0.49163  1.0000 -0.0304657336
C   C93       1.0  0.14244  0.49163  0.07251  1.0000 -0.0304657336
C   C94       1.0  0.92749  0.50837  0.85756  1.0000 -0.0304657336
C   C95       1.0  0.85756  0.92749  0.50837  1.0000 -0.0304657336
C   C96       1.0  0.50837  0.85756  0.92749  1.0000 -0.0304657336
C   C97       1.0  0.50348  0.97863  0.91046  1.0000 -0.2025491949
C   C98       1.0  0.97863  0.91046  0.50348  1.0000 -0.2025491949
C   C99       1.0  0.91046  0.50348  0.97863  1.0000 -0.2025491949
C   C100      1.0  0.02137  0.49652  0.08954  1.0000 -0.2025491949
C   C101      1.0  0.08954  0.02137  0.49652  1.0000 -0.2025491949
C   C102      1.0  0.49652  0.08954  0.02137  1.0000 -0.2025491949
C   C103      1.0  0.49652  0.02137  0.08954  1.0000 -0.2025491949
C   C104      1.0  0.02137  0.08954  0.49652  1.0000 -0.2025491949
C   C105      1.0  0.08954  0.49652  0.02137  1.0000 -0.2025491949
C   C106      1.0  0.97863  0.50348  0.91046  1.0000 -0.2025491949
C   C107      1.0  0.91046  0.97863  0.50348  1.0000 -0.2025491949
C   C108      1.0  0.50348  0.91046  0.97863  1.0000 -0.2025491949
C   C109      1.0  0.50215  0.97242  0.97242  1.0000 0.0706510654
C   C110      1.0  0.97242  0.97242  0.50215  1.0000 0.0706510654
C   C111      1.0  0.97242  0.50215  0.97242  1.0000 0.0706510654
C   C112      1.0  0.02758  0.49785  0.02758  1.0000 0.0706510654
C   C113      1.0  0.02758  0.02758  0.49785  1.0000 0.0706510654
C   C114      1.0  0.49785  0.02758  0.02758  1.0000 0.0706510654
C   C115      1.0  0.50963  0.86665  0.86665  1.0000 0.1419507748
C   C116      1.0  0.86665  0.86665  0.50963  1.0000 0.1419507748
C   C117      1.0  0.86665  0.50963  0.86665  1.0000 0.1419507748
C   C118      1.0  0.13335  0.49037  0.13335  1.0000 0.1419507748
C   C119      1.0  0.13335  0.13335  0.49037  1.0000 0.1419507748
C   C120      1.0  0.49037  0.13335  0.13335  1.0000 0.1419507748
C   C121      1.0  0.58096  0.82077  0.82077  1.0000 -0.2025491949
C   C122      1.0  0.82077  0.82077  0.58096  1.0000 -0.2025491949
C   C123      1.0  0.82077  0.58096  0.82077  1.0000 -0.2025491949
C   C124      1.0  0.17923  0.41904  0.17923  1.0000 -0.2025491949
C   C125      1.0  0.17923  0.17923  0.41904  1.0000 -0.2025491949
C   C126      1.0  0.41904  0.17923  0.17923  1.0000 -0.2025491949
O   O1        1.0  0.53927  0.03923  0.61838  1.0000 -0.5178392445
O   O2        1.0  0.03923  0.61838  0.53927  1.0000 -0.5178392445
O   O3        1.0  0.61838  0.53927  0.03923  1.0000 -0.5178392445
O   O4        1.0  0.96077  0.46073  0.38162  1.0000 -0.5178392445
O   O5        1.0  0.38162  0.96077  0.46073  1.0000 -0.5178392445
O   O6        1.0  0.46073  0.38162  0.96077  1.0000 -0.5178392445
O   O7        1.0  0.46073  0.96077  0.38162  1.0000 -0.5178392445
O   O8        1.0  0.96077  0.38162  0.46073  1.0000 -0.5178392445
O   O9        1.0  0.38162  0.46073  0.96077  1.0000 -0.5178392445
O   O10       1.0  0.03923  0.53927  0.61838  1.0000 -0.5178392445
O   O11       1.0  0.61838  0.03923  0.53927  1.0000 -0.5178392445
O   O12       1.0  0.53927  0.61838  0.03923  1.0000 -0.5178392445
O   O13       1.0  0.46947  0.92436  0.54898  1.0000 -0.5178392445
O   O14       1.0  0.92436  0.54898  0.46947  1.0000 -0.5178392445
O   O15       1.0  0.54898  0.46947  0.92436  1.0000 -0.5178392445
O   O16       1.0  0.07564  0.53053  0.45102  1.0000 -0.5178392445
O   O17       1.0  0.45102  0.07564  0.53053  1.0000 -0.5178392445
O   O18       1.0  0.53053  0.45102  0.07564  1.0000 -0.5178392445
O   O19       1.0  0.53053  0.07564  0.45102  1.0000 -0.5178392445
O   O20       1.0  0.07564  0.45102  0.53053  1.0000 -0.5178392445
O   O21       1.0  0.45102  0.53053  0.07564  1.0000 -0.5178392445
O   O22       1.0  0.92436  0.46947  0.54898  1.0000 -0.5178392445
O   O23       1.0  0.54898  0.92436  0.46947  1.0000 -0.5178392445
O   O24       1.0  0.46947  0.54898  0.92436  1.0000 -0.5178392445
O   O25       1.0  0.51473  0.81460  0.81460  1.0000 -0.1736001138
O   O26       1.0  0.81460  0.81460  0.51473  1.0000 -0.1736001138
O   O27       1.0  0.81460  0.51473  0.81460  1.0000 -0.1736001138
O   O28       1.0  0.18540  0.48527  0.18540  1.0000 -0.1736001138
O   O29       1.0  0.18540  0.18540  0.48527  1.0000 -0.1736001138
O   O30       1.0  0.48527  0.18540  0.18540  1.0000 -0.1736001138
