# DDEC6 charges by PACMAN v1.1 (https://github.com/mtap-research/PACMAN-charge/)
data_2016[Mn][nan]3[ASR]2
_chemical_formula_sum              "Mn12 H96 C204 S24 O48"
_cell_length_a       19.469
_cell_length_b       19.469
_cell_length_c       20.6804
_cell_angle_alpha    90
_cell_angle_beta     90
_cell_angle_gamma    120

_symmetry_space_group_name_H-M    "P 1"
_symmetry_Int_Tables_number       1

loop_
  _symmetry_equiv_pos_as_xyz
  'x, y, z'

loop_
  _atom_site_type_symbol
  _atom_site_label
  _atom_site_symmetry_multiplicity
  _atom_site_fract_x
  _atom_site_fract_y
  _atom_site_fract_z
  _atom_site_occupancy
  _atom_site_charge
Mn  Mn1       1.0  0.26954  0.64739  0.02449  1.0000 1.0545102224
Mn  Mn2       1.0  0.35261  0.62215  0.69116  1.0000 1.0545102224
Mn  Mn3       1.0  0.37785  0.73046  0.35782  1.0000 1.0545102224
Mn  Mn4       1.0  0.73046  0.35261  0.52449  1.0000 1.0545102224
Mn  Mn5       1.0  0.64739  0.37785  0.19116  1.0000 1.0545102224
Mn  Mn6       1.0  0.62215  0.26954  0.85782  1.0000 1.0545102224
Mn  Mn7       1.0  0.56254  0.29219  0.02127  1.0000 1.0012782876
Mn  Mn8       1.0  0.70781  0.27035  0.68794  1.0000 1.0012782876
Mn  Mn9       1.0  0.72965  0.43746  0.35460  1.0000 1.0012782876
Mn  Mn10      1.0  0.43746  0.70781  0.52127  1.0000 1.0012782876
Mn  Mn11      1.0  0.29219  0.72965  0.18794  1.0000 1.0012782876
Mn  Mn12      1.0  0.27035  0.56254  0.85460  1.0000 1.0012782876
H   H1        1.0  0.77630  0.27130  0.92600  1.0000 0.1270785289
H   H2        1.0  0.72870  0.50500  0.59267  1.0000 0.1270785289
H   H3        1.0  0.49500  0.22370  0.25933  1.0000 0.1270785289
H   H4        1.0  0.22370  0.72870  0.42600  1.0000 0.1270785289
H   H5        1.0  0.27130  0.49500  0.09267  1.0000 0.1270785289
H   H6        1.0  0.50500  0.77630  0.75933  1.0000 0.1270785289
H   H7        1.0  0.86220  0.22100  0.92050  1.0000 0.1207302336
H   H8        1.0  0.77900  0.64120  0.58717  1.0000 0.1207302336
H   H9        1.0  0.35880  0.13780  0.25383  1.0000 0.1207302336
H   H10       1.0  0.13780  0.77900  0.42050  1.0000 0.1207302336
H   H11       1.0  0.22100  0.35880  0.08717  1.0000 0.1207302336
H   H12       1.0  0.64120  0.86220  0.75383  1.0000 0.1207302336
H   H13       1.0  0.74160  0.06740  0.06600  1.0000 0.10967599
H   H14       1.0  0.93260  0.67420  0.73267  1.0000 0.10967599
H   H15       1.0  0.32580  0.25840  0.39933  1.0000 0.10967599
H   H16       1.0  0.25840  0.93260  0.56600  1.0000 0.10967599
H   H17       1.0  0.06740  0.32580  0.23267  1.0000 0.10967599
H   H18       1.0  0.67420  0.74160  0.89933  1.0000 0.10967599
H   H19       1.0  0.65560  0.11810  0.07140  1.0000 0.1270785289
H   H20       1.0  0.88190  0.53750  0.73807  1.0000 0.1270785289
H   H21       1.0  0.46250  0.34440  0.40473  1.0000 0.1270785289
H   H22       1.0  0.34440  0.88190  0.57140  1.0000 0.1270785289
H   H23       1.0  0.11810  0.46250  0.23807  1.0000 0.1270785289
H   H24       1.0  0.53750  0.65560  0.90473  1.0000 0.1270785289
H   H25       1.0  0.15590  0.36520  0.90260  1.0000 0.1270785289
H   H26       1.0  0.63480  0.79070  0.56927  1.0000 0.1270785289
H   H27       1.0  0.20930  0.84410  0.23593  1.0000 0.1270785289
H   H28       1.0  0.84410  0.63480  0.40260  1.0000 0.1270785289
H   H29       1.0  0.36520  0.20930  0.06927  1.0000 0.1270785289
H   H30       1.0  0.79070  0.15590  0.73593  1.0000 0.1270785289
H   H31       1.0  0.06300  0.22970  0.90630  1.0000 0.1207302336
H   H32       1.0  0.77030  0.83330  0.57297  1.0000 0.1207302336
H   H33       1.0  0.16670  0.93700  0.23963  1.0000 0.1207302336
H   H34       1.0  0.93700  0.77030  0.40630  1.0000 0.1207302336
H   H35       1.0  0.22970  0.16670  0.07297  1.0000 0.1207302336
H   H36       1.0  0.83330  0.06300  0.73963  1.0000 0.1207302336
H   H37       1.0  0.95140  0.26790  0.05580  1.0000 0.1207302336
H   H38       1.0  0.73210  0.68350  0.72247  1.0000 0.1207302336
H   H39       1.0  0.31650  0.04860  0.38913  1.0000 0.1207302336
H   H40       1.0  0.04860  0.73210  0.55580  1.0000 0.1207302336
H   H41       1.0  0.26790  0.31650  0.22247  1.0000 0.1207302336
H   H42       1.0  0.68350  0.95140  0.88913  1.0000 0.1207302336
H   H43       1.0  0.04380  0.40380  0.05140  1.0000 0.1270785289
H   H44       1.0  0.59620  0.64000  0.71807  1.0000 0.1270785289
H   H45       1.0  0.36000  0.95620  0.38473  1.0000 0.1270785289
H   H46       1.0  0.95620  0.59620  0.55140  1.0000 0.1270785289
H   H47       1.0  0.40380  0.36000  0.21807  1.0000 0.1270785289
H   H48       1.0  0.64000  0.04380  0.88473  1.0000 0.1270785289
H   H49       1.0  0.06130  0.67200  0.00300  1.0000 0.1270785289
H   H50       1.0  0.32800  0.38930  0.66967  1.0000 0.1270785289
H   H51       1.0  0.61070  0.93870  0.33633  1.0000 0.1270785289
H   H52       1.0  0.93870  0.32800  0.50300  1.0000 0.1270785289
H   H53       1.0  0.67200  0.61070  0.16967  1.0000 0.1270785289
H   H54       1.0  0.38930  0.06130  0.83633  1.0000 0.1270785289
H   H55       1.0  0.96710  0.70940  0.98060  1.0000 0.1207302336
H   H56       1.0  0.29060  0.25770  0.64727  1.0000 0.1207302336
H   H57       1.0  0.74230  0.03290  0.31393  1.0000 0.1207302336
H   H58       1.0  0.03290  0.29060  0.48060  1.0000 0.1207302336
H   H59       1.0  0.70940  0.74230  0.14727  1.0000 0.1207302336
H   H60       1.0  0.25770  0.96710  0.81393  1.0000 0.1207302336
H   H61       1.0  0.07730  0.89270  0.10630  1.0000 0.1207302336
H   H62       1.0  0.10730  0.18460  0.77297  1.0000 0.1207302336
H   H63       1.0  0.81540  0.92270  0.43963  1.0000 0.1207302336
H   H64       1.0  0.92270  0.10730  0.60630  1.0000 0.1207302336
H   H65       1.0  0.89270  0.81540  0.27297  1.0000 0.1207302336
H   H66       1.0  0.18460  0.07730  0.93963  1.0000 0.1207302336
H   H67       1.0  0.17000  0.85390  0.12980  1.0000 0.1207302336
H   H68       1.0  0.14610  0.31610  0.79647  1.0000 0.1207302336
H   H69       1.0  0.68390  0.83000  0.46313  1.0000 0.1207302336
H   H70       1.0  0.83000  0.14610  0.62980  1.0000 0.1207302336
H   H71       1.0  0.85390  0.68390  0.29647  1.0000 0.1207302336
H   H72       1.0  0.31610  0.17000  0.96313  1.0000 0.1207302336
H   H73       1.0  0.65620  0.55470  0.97770  1.0000 0.1270785289
H   H74       1.0  0.44530  0.10150  0.64437  1.0000 0.1270785289
H   H75       1.0  0.89850  0.34380  0.31103  1.0000 0.1270785289
H   H76       1.0  0.34380  0.44530  0.47770  1.0000 0.1270785289
H   H77       1.0  0.55470  0.89850  0.14437  1.0000 0.1270785289
H   H78       1.0  0.10150  0.65620  0.81103  1.0000 0.1270785289
H   H79       1.0  0.74030  0.69110  0.96950  1.0000 0.10967599
H   H80       1.0  0.30890  0.04920  0.63617  1.0000 0.10967599
H   H81       1.0  0.95080  0.25970  0.30283  1.0000 0.10967599
H   H82       1.0  0.25970  0.30890  0.46950  1.0000 0.10967599
H   H83       1.0  0.69110  0.95080  0.13617  1.0000 0.10967599
H   H84       1.0  0.04920  0.74030  0.80283  1.0000 0.10967599
H   H85       1.0  0.88440  0.68070  0.10590  1.0000 0.1207302336
H   H86       1.0  0.31930  0.20370  0.77257  1.0000 0.1207302336
H   H87       1.0  0.79630  0.11560  0.43923  1.0000 0.1207302336
H   H88       1.0  0.11560  0.31930  0.60590  1.0000 0.1207302336
H   H89       1.0  0.68070  0.79630  0.27257  1.0000 0.1207302336
H   H90       1.0  0.20370  0.88440  0.93923  1.0000 0.1207302336
H   H91       1.0  0.80110  0.54400  0.11300  1.0000 0.1207302336
H   H92       1.0  0.45600  0.25710  0.77967  1.0000 0.1207302336
H   H93       1.0  0.74290  0.19890  0.44633  1.0000 0.1207302336
H   H94       1.0  0.19890  0.45600  0.61300  1.0000 0.1207302336
H   H95       1.0  0.54400  0.74290  0.27967  1.0000 0.1207302336
H   H96       1.0  0.25710  0.80110  0.94633  1.0000 0.1207302336
C   C1        1.0  0.90969  0.93340  0.00555  1.0000 -0.0956420213
C   C2        1.0  0.06660  0.97629  0.67222  1.0000 -0.0956420213
C   C3        1.0  0.02371  0.09031  0.33888  1.0000 -0.0956420213
C   C4        1.0  0.09031  0.06660  0.50555  1.0000 -0.0956420213
C   C5        1.0  0.93340  0.02371  0.17222  1.0000 -0.0956420213
C   C6        1.0  0.97629  0.90969  0.83888  1.0000 -0.0956420213
C   C7        1.0  0.90800  0.00031  0.99727  1.0000 -0.0891108905
C   C8        1.0  0.99969  0.90769  0.66394  1.0000 -0.0891108905
C   C9        1.0  0.09231  0.09200  0.33060  1.0000 -0.0891108905
C   C10       1.0  0.09200  0.99969  0.49727  1.0000 -0.0891108905
C   C11       1.0  0.00031  0.09231  0.16394  1.0000 -0.0891108905
C   C12       1.0  0.90769  0.90800  0.83060  1.0000 -0.0891108905
C   C13       1.0  0.86540  0.10754  0.99104  1.0000 -0.0454845923
C   C14       1.0  0.89246  0.75786  0.65771  1.0000 -0.0454845923
C   C15       1.0  0.24214  0.13460  0.32437  1.0000 -0.0454845923
C   C16       1.0  0.13460  0.89246  0.49104  1.0000 -0.0454845923
C   C17       1.0  0.10754  0.24214  0.15771  1.0000 -0.0454845923
C   C18       1.0  0.75786  0.86540  0.82437  1.0000 -0.0454845923
C   C19       1.0  0.94497  0.14817  0.98659  1.0000 -0.04317215
C   C20       1.0  0.85183  0.79680  0.65326  1.0000 -0.04317215
C   C21       1.0  0.20320  0.05503  0.31992  1.0000 -0.04317215
C   C22       1.0  0.05503  0.85183  0.48659  1.0000 -0.04317215
C   C23       1.0  0.14817  0.20320  0.15326  1.0000 -0.04317215
C   C24       1.0  0.79680  0.94497  0.81992  1.0000 -0.04317215
C   C25       1.0  0.95374  0.82993  0.02947  1.0000 -0.0584808275
C   C26       1.0  0.17007  0.12381  0.69614  1.0000 -0.0584808275
C   C27       1.0  0.87619  0.04626  0.36280  1.0000 -0.0584808275
C   C28       1.0  0.04626  0.17007  0.52947  1.0000 -0.0584808275
C   C29       1.0  0.82993  0.87619  0.19614  1.0000 -0.0584808275
C   C30       1.0  0.12381  0.95374  0.86280  1.0000 -0.0584808275
C   C31       1.0  0.87376  0.78713  0.02841  1.0000 -0.04317215
C   C32       1.0  0.21287  0.08663  0.69508  1.0000 -0.04317215
C   C33       1.0  0.91337  0.12624  0.36174  1.0000 -0.04317215
C   C34       1.0  0.12624  0.21287  0.52841  1.0000 -0.04317215
C   C35       1.0  0.78713  0.91337  0.19508  1.0000 -0.04317215
C   C36       1.0  0.08663  0.87376  0.86174  1.0000 -0.04317215
C   C37       1.0  0.70744  0.19955  0.99911  1.0000 -0.0248246836
C   C38       1.0  0.80045  0.50789  0.66578  1.0000 -0.0248246836
C   C39       1.0  0.49211  0.29256  0.33244  1.0000 -0.0248246836
C   C40       1.0  0.29256  0.80045  0.49911  1.0000 -0.0248246836
C   C41       1.0  0.19955  0.49211  0.16578  1.0000 -0.0248246836
C   C42       1.0  0.50789  0.70744  0.83244  1.0000 -0.0248246836
C   C43       1.0  0.76927  0.22999  0.95447  1.0000 -0.0956420213
C   C44       1.0  0.77001  0.53928  0.62114  1.0000 -0.0956420213
C   C45       1.0  0.46072  0.23073  0.28780  1.0000 -0.0956420213
C   C46       1.0  0.23073  0.77001  0.45447  1.0000 -0.0956420213
C   C47       1.0  0.22999  0.46072  0.12114  1.0000 -0.0956420213
C   C48       1.0  0.53928  0.76927  0.78780  1.0000 -0.0956420213
C   C49       1.0  0.82047  0.20029  0.95136  1.0000 -0.1340120072
C   C50       1.0  0.79971  0.62018  0.61803  1.0000 -0.1340120072
C   C51       1.0  0.37982  0.17953  0.28469  1.0000 -0.1340120072
C   C52       1.0  0.17953  0.79971  0.45136  1.0000 -0.1340120072
C   C53       1.0  0.20029  0.37982  0.11803  1.0000 -0.1340120072
C   C54       1.0  0.62018  0.82047  0.78469  1.0000 -0.1340120072
C   C55       1.0  0.81115  0.13996  0.99335  1.0000 0.0903436904
C   C56       1.0  0.86004  0.67119  0.66002  1.0000 0.0903436904
C   C57       1.0  0.32881  0.18885  0.32668  1.0000 0.0903436904
C   C58       1.0  0.18885  0.86004  0.49335  1.0000 0.0903436904
C   C59       1.0  0.13996  0.32881  0.16002  1.0000 0.0903436904
C   C60       1.0  0.67119  0.81115  0.82668  1.0000 0.0903436904
C   C61       1.0  0.74887  0.10899  0.03780  1.0000 -0.1670399343
C   C62       1.0  0.89101  0.63988  0.70447  1.0000 -0.1670399343
C   C63       1.0  0.36012  0.25113  0.37113  1.0000 -0.1670399343
C   C64       1.0  0.25113  0.89101  0.53780  1.0000 -0.1670399343
C   C65       1.0  0.10899  0.36012  0.20447  1.0000 -0.1670399343
C   C66       1.0  0.63988  0.74887  0.87113  1.0000 -0.1670399343
C   C67       1.0  0.69761  0.13896  0.04078  1.0000 -0.0832445644
C   C68       1.0  0.86104  0.55865  0.70745  1.0000 -0.0832445644
C   C69       1.0  0.44135  0.30239  0.37411  1.0000 -0.0832445644
C   C70       1.0  0.30239  0.86104  0.54078  1.0000 -0.0832445644
C   C71       1.0  0.13896  0.44135  0.20745  1.0000 -0.0832445644
C   C72       1.0  0.55865  0.69761  0.87411  1.0000 -0.0832445644
C   C73       1.0  0.65170  0.23051  0.00370  1.0000 0.5729362234
C   C74       1.0  0.76949  0.42119  0.67037  1.0000 0.5729362234
C   C75       1.0  0.57881  0.34830  0.33703  1.0000 0.5729362234
C   C76       1.0  0.34830  0.76949  0.50370  1.0000 0.5729362234
C   C77       1.0  0.23051  0.57881  0.17037  1.0000 0.5729362234
C   C78       1.0  0.42119  0.65170  0.83703  1.0000 0.5729362234
C   C79       1.0  0.10964  0.39706  0.97751  1.0000 -0.0292660852
C   C80       1.0  0.60294  0.71258  0.64418  1.0000 -0.0292660852
C   C81       1.0  0.28742  0.89036  0.31084  1.0000 -0.0292660852
C   C82       1.0  0.89036  0.60294  0.47751  1.0000 -0.0292660852
C   C83       1.0  0.39706  0.28742  0.14418  1.0000 -0.0292660852
C   C84       1.0  0.71258  0.10964  0.81084  1.0000 -0.0292660852
C   C85       1.0  0.11471  0.34544  0.93393  1.0000 -0.0891108905
C   C86       1.0  0.65456  0.76927  0.60060  1.0000 -0.0891108905
C   C87       1.0  0.23073  0.88529  0.26726  1.0000 -0.0891108905
C   C88       1.0  0.88529  0.65456  0.43393  1.0000 -0.0891108905
C   C89       1.0  0.34544  0.23073  0.10060  1.0000 -0.0891108905
C   C90       1.0  0.76927  0.11471  0.76726  1.0000 -0.0891108905
C   C91       1.0  0.05947  0.26478  0.93623  1.0000 -0.1622181694
C   C92       1.0  0.73522  0.79469  0.60290  1.0000 -0.1622181694
C   C93       1.0  0.20531  0.94053  0.26956  1.0000 -0.1622181694
C   C94       1.0  0.94053  0.73522  0.43623  1.0000 -0.1622181694
C   C95       1.0  0.26478  0.20531  0.10290  1.0000 -0.1622181694
C   C96       1.0  0.79469  0.05947  0.76956  1.0000 -0.1622181694
C   C97       1.0  0.99864  0.23493  0.98234  1.0000 0.0903436904
C   C98       1.0  0.76507  0.76371  0.64901  1.0000 0.0903436904
C   C99       1.0  0.23629  0.00136  0.31567  1.0000 0.0903436904
C   C100      1.0  0.00136  0.76507  0.48234  1.0000 0.0903436904
C   C101      1.0  0.23493  0.23629  0.14901  1.0000 0.0903436904
C   C102      1.0  0.76371  0.99864  0.81567  1.0000 0.0903436904
C   C103      1.0  0.99302  0.28734  0.02488  1.0000 -0.1542493637
C   C104      1.0  0.71266  0.70568  0.69155  1.0000 -0.1542493637
C   C105      1.0  0.29432  0.00698  0.35821  1.0000 -0.1542493637
C   C106      1.0  0.00698  0.71266  0.52488  1.0000 -0.1542493637
C   C107      1.0  0.28734  0.29432  0.19155  1.0000 -0.1542493637
C   C108      1.0  0.70568  0.99302  0.85821  1.0000 -0.1542493637
C   C109      1.0  0.04817  0.36829  0.02242  1.0000 -0.0891108905
C   C110      1.0  0.63171  0.67988  0.68909  1.0000 -0.0891108905
C   C111      1.0  0.32012  0.95183  0.35575  1.0000 -0.0891108905
C   C112      1.0  0.95183  0.63171  0.52242  1.0000 -0.0891108905
C   C113      1.0  0.36829  0.32012  0.18909  1.0000 -0.0891108905
C   C114      1.0  0.67988  0.04817  0.85575  1.0000 -0.0891108905
C   C115      1.0  0.17327  0.48258  0.97719  1.0000 0.5729362234
C   C116      1.0  0.51742  0.69069  0.64386  1.0000 0.5729362234
C   C117      1.0  0.30931  0.82673  0.31052  1.0000 0.5729362234
C   C118      1.0  0.82673  0.51742  0.47719  1.0000 0.5729362234
C   C119      1.0  0.48258  0.30931  0.14386  1.0000 0.5729362234
C   C120      1.0  0.69069  0.17327  0.81052  1.0000 0.5729362234
C   C121      1.0  0.12411  0.75834  0.06930  1.0000 -0.0292660852
C   C122      1.0  0.24166  0.36577  0.73597  1.0000 -0.0292660852
C   C123      1.0  0.63423  0.87589  0.40263  1.0000 -0.0292660852
C   C124      1.0  0.87589  0.24166  0.56930  1.0000 -0.0292660852
C   C125      1.0  0.75834  0.63423  0.23597  1.0000 -0.0292660852
C   C126      1.0  0.36577  0.12411  0.90263  1.0000 -0.0292660852
C   C127      1.0  0.06398  0.71637  0.02459  1.0000 -0.0832445644
C   C128      1.0  0.28363  0.34761  0.69126  1.0000 -0.0832445644
C   C129      1.0  0.65239  0.93602  0.35792  1.0000 -0.0832445644
C   C130      1.0  0.93602  0.28363  0.52459  1.0000 -0.0832445644
C   C131      1.0  0.71637  0.65239  0.19126  1.0000 -0.0832445644
C   C132      1.0  0.34761  0.06398  0.85792  1.0000 -0.0832445644
C   C133      1.0  0.00798  0.73858  0.01115  1.0000 -0.1426665793
C   C134      1.0  0.26142  0.26940  0.67782  1.0000 -0.1426665793
C   C135      1.0  0.73060  0.99202  0.34448  1.0000 -0.1426665793
C   C136      1.0  0.99202  0.26142  0.51115  1.0000 -0.1426665793
C   C137      1.0  0.73858  0.73060  0.17782  1.0000 -0.1426665793
C   C138      1.0  0.26940  0.00798  0.84448  1.0000 -0.1426665793
C   C139      1.0  0.01166  0.80356  0.04243  1.0000 0.0903436904
C   C140      1.0  0.19644  0.20810  0.70910  1.0000 0.0903436904
C   C141      1.0  0.79190  0.98834  0.37576  1.0000 0.0903436904
C   C142      1.0  0.98834  0.19644  0.54243  1.0000 0.0903436904
C   C143      1.0  0.80356  0.79190  0.20910  1.0000 0.0903436904
C   C144      1.0  0.20810  0.01166  0.87576  1.0000 0.0903436904
C   C145      1.0  0.07331  0.84710  0.08596  1.0000 -0.1622181694
C   C146      1.0  0.15290  0.22621  0.75263  1.0000 -0.1622181694
C   C147      1.0  0.77379  0.92669  0.41929  1.0000 -0.1622181694
C   C148      1.0  0.92669  0.15290  0.58596  1.0000 -0.1622181694
C   C149      1.0  0.84710  0.77379  0.25263  1.0000 -0.1622181694
C   C150      1.0  0.22621  0.07331  0.91929  1.0000 -0.1622181694
C   C151      1.0  0.12872  0.82434  0.09961  1.0000 -0.0956420213
C   C152      1.0  0.17566  0.30438  0.76628  1.0000 -0.0956420213
C   C153      1.0  0.69562  0.87128  0.43294  1.0000 -0.0956420213
C   C154      1.0  0.87128  0.17566  0.59961  1.0000 -0.0956420213
C   C155      1.0  0.82434  0.69562  0.26628  1.0000 -0.0956420213
C   C156      1.0  0.30438  0.12872  0.93294  1.0000 -0.0956420213
C   C157      1.0  0.18370  0.73349  0.08487  1.0000 0.5842507546
C   C158      1.0  0.26651  0.45021  0.75154  1.0000 0.5842507546
C   C159      1.0  0.54979  0.81630  0.41820  1.0000 0.5842507546
C   C160      1.0  0.81630  0.26651  0.58487  1.0000 0.5842507546
C   C161      1.0  0.73349  0.54979  0.25154  1.0000 0.5842507546
C   C162      1.0  0.45021  0.18370  0.91820  1.0000 0.5842507546
C   C163      1.0  0.72081  0.53542  0.04559  1.0000 -0.0292660852
C   C164      1.0  0.46458  0.18539  0.71226  1.0000 -0.0292660852
C   C165      1.0  0.81461  0.27919  0.37892  1.0000 -0.0292660852
C   C166      1.0  0.27919  0.46458  0.54559  1.0000 -0.0292660852
C   C167      1.0  0.53542  0.81461  0.21226  1.0000 -0.0292660852
C   C168      1.0  0.18539  0.72081  0.87892  1.0000 -0.0292660852
C   C169      1.0  0.70287  0.58010  0.00331  1.0000 -0.0891108905
C   C170      1.0  0.41990  0.12277  0.66998  1.0000 -0.0891108905
C   C171      1.0  0.87723  0.29713  0.33664  1.0000 -0.0891108905
C   C172      1.0  0.29713  0.41990  0.50331  1.0000 -0.0891108905
C   C173      1.0  0.58010  0.87723  0.16998  1.0000 -0.0891108905
C   C174      1.0  0.12277  0.70287  0.83664  1.0000 -0.0891108905
C   C175      1.0  0.75289  0.66135  0.99861  1.0000 -0.1670399343
C   C176      1.0  0.33865  0.09154  0.66528  1.0000 -0.1670399343
C   C177      1.0  0.90846  0.24711  0.33194  1.0000 -0.1670399343
C   C178      1.0  0.24711  0.33865  0.49861  1.0000 -0.1670399343
C   C179      1.0  0.66135  0.90846  0.16528  1.0000 -0.1670399343
C   C180      1.0  0.09154  0.75289  0.83194  1.0000 -0.1670399343
C   C181      1.0  0.82172  0.70013  0.03620  1.0000 0.0903436904
C   C182      1.0  0.29987  0.12159  0.70287  1.0000 0.0903436904
C   C183      1.0  0.87841  0.17828  0.36953  1.0000 0.0903436904
C   C184      1.0  0.17828  0.29987  0.53620  1.0000 0.0903436904
C   C185      1.0  0.70013  0.87841  0.20287  1.0000 0.0903436904
C   C186      1.0  0.12159  0.82172  0.86953  1.0000 0.0903436904
C   C187      1.0  0.83854  0.65527  0.07933  1.0000 -0.1340120072
C   C188      1.0  0.34473  0.18327  0.74600  1.0000 -0.1340120072
C   C189      1.0  0.81673  0.16146  0.41266  1.0000 -0.1340120072
C   C190      1.0  0.16146  0.34473  0.57933  1.0000 -0.1340120072
C   C191      1.0  0.65527  0.81673  0.24600  1.0000 -0.1340120072
C   C192      1.0  0.18327  0.83854  0.91266  1.0000 -0.1340120072
C   C193      1.0  0.78875  0.57387  0.08369  1.0000 -0.0956420213
C   C194      1.0  0.42613  0.21488  0.75036  1.0000 -0.0956420213
C   C195      1.0  0.78512  0.21125  0.41702  1.0000 -0.0956420213
C   C196      1.0  0.21125  0.42613  0.58369  1.0000 -0.0956420213
C   C197      1.0  0.57387  0.78512  0.25036  1.0000 -0.0956420213
C   C198      1.0  0.21488  0.78875  0.91702  1.0000 -0.0956420213
C   C199      1.0  0.66726  0.44740  0.04831  1.0000 0.5842507546
C   C200      1.0  0.55260  0.21986  0.71498  1.0000 0.5842507546
C   C201      1.0  0.78014  0.33274  0.38164  1.0000 0.5842507546
C   C202      1.0  0.33274  0.55260  0.54831  1.0000 0.5842507546
C   C203      1.0  0.44740  0.78014  0.21498  1.0000 0.5842507546
C   C204      1.0  0.21986  0.66726  0.88164  1.0000 0.5842507546
S   S1        1.0  0.81924  0.00328  0.99439  1.0000 0.0608504371
S   S2        1.0  0.99672  0.81596  0.66106  1.0000 0.0608504371
S   S3        1.0  0.18404  0.18076  0.32772  1.0000 0.0608504371
S   S4        1.0  0.18076  0.99672  0.49439  1.0000 0.0608504371
S   S5        1.0  0.00328  0.18404  0.16106  1.0000 0.0608504371
S   S6        1.0  0.81596  0.81924  0.82772  1.0000 0.0608504371
S   S7        1.0  0.99376  0.09281  0.98572  1.0000 0.052014258
S   S8        1.0  0.90719  0.90095  0.65239  1.0000 0.052014258
S   S9        1.0  0.09905  0.00624  0.31905  1.0000 0.052014258
S   S10       1.0  0.00624  0.90719  0.48572  1.0000 0.052014258
S   S11       1.0  0.09281  0.09905  0.15239  1.0000 0.052014258
S   S12       1.0  0.90095  0.99376  0.81905  1.0000 0.052014258
S   S13       1.0  0.99843  0.93113  0.01056  1.0000 0.0608504371
S   S14       1.0  0.06887  0.06730  0.67723  1.0000 0.0608504371
S   S15       1.0  0.93270  0.00157  0.34389  1.0000 0.0608504371
S   S16       1.0  0.00157  0.06887  0.51056  1.0000 0.0608504371
S   S17       1.0  0.93113  0.93270  0.17723  1.0000 0.0608504371
S   S18       1.0  0.06730  0.99843  0.84389  1.0000 0.0608504371
S   S19       1.0  0.82391  0.83990  0.01225  1.0000 0.0608504371
S   S20       1.0  0.16010  0.98401  0.67892  1.0000 0.0608504371
S   S21       1.0  0.01599  0.17609  0.34558  1.0000 0.0608504371
S   S22       1.0  0.17609  0.16010  0.51225  1.0000 0.0608504371
S   S23       1.0  0.83990  0.01599  0.17892  1.0000 0.0608504371
S   S24       1.0  0.98401  0.82391  0.84558  1.0000 0.0608504371
O   O1        1.0  0.60157  0.20771  0.04892  1.0000 -0.5182303722
O   O2        1.0  0.79229  0.39386  0.71559  1.0000 -0.5182303722
O   O3        1.0  0.60614  0.39843  0.38225  1.0000 -0.5182303722
O   O4        1.0  0.39843  0.79229  0.54892  1.0000 -0.5182303722
O   O5        1.0  0.20771  0.60614  0.21559  1.0000 -0.5182303722
O   O6        1.0  0.39386  0.60157  0.88225  1.0000 -0.5182303722
O   O7        1.0  0.65539  0.28110  0.96266  1.0000 -0.6075747942
O   O8        1.0  0.71890  0.37429  0.62933  1.0000 -0.6075747942
O   O9        1.0  0.62571  0.34461  0.29599  1.0000 -0.6075747942
O   O10       1.0  0.34461  0.71890  0.46266  1.0000 -0.6075747942
O   O11       1.0  0.28110  0.62571  0.12933  1.0000 -0.6075747942
O   O12       1.0  0.37429  0.65539  0.79599  1.0000 -0.6075747942
O   O13       1.0  0.23187  0.50115  0.94017  1.0000 -0.5657816067
O   O14       1.0  0.49885  0.73072  0.60684  1.0000 -0.5657816067
O   O15       1.0  0.26928  0.76813  0.27350  1.0000 -0.5657816067
O   O16       1.0  0.76813  0.49885  0.44017  1.0000 -0.5657816067
O   O17       1.0  0.50115  0.26928  0.10684  1.0000 -0.5657816067
O   O18       1.0  0.73072  0.23187  0.77350  1.0000 -0.5657816067
O   O19       1.0  0.16752  0.53065  0.01405  1.0000 -0.5402999903
O   O20       1.0  0.46935  0.63687  0.68072  1.0000 -0.5402999903
O   O21       1.0  0.36313  0.83248  0.34738  1.0000 -0.5402999903
O   O22       1.0  0.83248  0.46935  0.51405  1.0000 -0.5402999903
O   O23       1.0  0.53065  0.36313  0.18072  1.0000 -0.5402999903
O   O24       1.0  0.63687  0.16752  0.84738  1.0000 -0.5402999903
O   O25       1.0  0.18527  0.68245  0.04907  1.0000 -0.5539982851
O   O26       1.0  0.31755  0.50282  0.71574  1.0000 -0.5539982851
O   O27       1.0  0.49718  0.81473  0.38240  1.0000 -0.5539982851
O   O28       1.0  0.81473  0.31755  0.54907  1.0000 -0.5539982851
O   O29       1.0  0.68245  0.49718  0.21574  1.0000 -0.5539982851
O   O30       1.0  0.50282  0.18527  0.88240  1.0000 -0.5539982851
O   O31       1.0  0.22699  0.76508  0.13382  1.0000 -0.556885693
O   O32       1.0  0.23492  0.46191  0.80049  1.0000 -0.556885693
O   O33       1.0  0.53809  0.77301  0.46715  1.0000 -0.556885693
O   O34       1.0  0.77301  0.23492  0.63382  1.0000 -0.556885693
O   O35       1.0  0.76508  0.53809  0.30049  1.0000 -0.556885693
O   O36       1.0  0.46191  0.22699  0.96715  1.0000 -0.556885693
O   O37       1.0  0.61138  0.41537  0.00705  1.0000 -0.5402999903
O   O38       1.0  0.58463  0.19601  0.67372  1.0000 -0.5402999903
O   O39       1.0  0.80399  0.38862  0.34038  1.0000 -0.5402999903
O   O40       1.0  0.38862  0.58463  0.50705  1.0000 -0.5402999903
O   O41       1.0  0.41537  0.80399  0.17372  1.0000 -0.5402999903
O   O42       1.0  0.19601  0.61138  0.84038  1.0000 -0.5402999903
O   O43       1.0  0.67884  0.40641  0.08951  1.0000 -0.5988074874
O   O44       1.0  0.59359  0.27243  0.75618  1.0000 -0.5988074874
O   O45       1.0  0.72757  0.32116  0.42284  1.0000 -0.5988074874
O   O46       1.0  0.32116  0.59359  0.58951  1.0000 -0.5988074874
O   O47       1.0  0.40641  0.72757  0.25618  1.0000 -0.5988074874
O   O48       1.0  0.27243  0.67884  0.92284  1.0000 -0.5988074874
