# DDEC6 charges by PACMAN v1.1 (https://github.com/mtap-research/PACMAN-charge/)
data_2016[CuMg][jjt]3[ASR]1
_chemical_formula_sum              "Mg6 Cu2 H18 C42 N6 O26"
_cell_length_a       13.1696
_cell_length_b       13.1696
_cell_length_c       14.7973
_cell_angle_alpha    90
_cell_angle_beta     90
_cell_angle_gamma    120

_symmetry_space_group_name_H-M    "P 1"
_symmetry_Int_Tables_number       1

loop_
  _symmetry_equiv_pos_as_xyz
  'x, y, z'

loop_
  _atom_site_type_symbol
  _atom_site_label
  _atom_site_symmetry_multiplicity
  _atom_site_fract_x
  _atom_site_fract_y
  _atom_site_fract_z
  _atom_site_occupancy
  _atom_site_charge
Mg  Mg1       1.0  0.83400  0.36465  0.75000  1.0000 1.416698625
Mg  Mg2       1.0  0.63535  0.46935  0.75000  1.0000 1.416698625
Mg  Mg3       1.0  0.53065  0.16600  0.75000  1.0000 1.416698625
Mg  Mg4       1.0  0.36465  0.83400  0.25000  1.0000 1.416698625
Mg  Mg5       1.0  0.46935  0.63535  0.25000  1.0000 1.416698625
Mg  Mg6       1.0  0.16600  0.53065  0.25000  1.0000 1.416698625
Cu  Cu1       1.0  0.00000  0.00000  0.50000  1.0000 0.2300740036
Cu  Cu2       1.0  0.00000  0.00000  0.00000  1.0000 0.2300740036
H   H1        1.0  0.87500  0.76810  0.59050  1.0000 0.1110541029
H   H2        1.0  0.23190  0.10690  0.59050  1.0000 0.1110541029
H   H3        1.0  0.89310  0.12500  0.59050  1.0000 0.1110541029
H   H4        1.0  0.87500  0.76810  0.90950  1.0000 0.1110541029
H   H5        1.0  0.23190  0.10690  0.90950  1.0000 0.1110541029
H   H6        1.0  0.89310  0.12500  0.90950  1.0000 0.1110541029
H   H7        1.0  0.76810  0.87500  0.40950  1.0000 0.1110541029
H   H8        1.0  0.10690  0.23190  0.40950  1.0000 0.1110541029
H   H9        1.0  0.12500  0.89310  0.40950  1.0000 0.1110541029
H   H10       1.0  0.76810  0.87500  0.09050  1.0000 0.1110541029
H   H11       1.0  0.10690  0.23190  0.09050  1.0000 0.1110541029
H   H12       1.0  0.12500  0.89310  0.09050  1.0000 0.1110541029
H   H13       1.0  0.00000  0.56620  0.50000  1.0000 0.1397447142
H   H14       1.0  0.43380  0.43380  0.50000  1.0000 0.1397447142
H   H15       1.0  0.56620  0.00000  0.50000  1.0000 0.1397447142
H   H16       1.0  0.00000  0.56620  0.00000  1.0000 0.1397447142
H   H17       1.0  0.43380  0.43380  0.00000  1.0000 0.1397447142
H   H18       1.0  0.56620  0.00000  0.00000  1.0000 0.1397447142
C   C1        1.0  0.92760  0.75910  0.55430  1.0000 0.0390138828
C   C2        1.0  0.24090  0.16850  0.55430  1.0000 0.0390138828
C   C3        1.0  0.83150  0.07240  0.55430  1.0000 0.0390138828
C   C4        1.0  0.92760  0.75910  0.94570  1.0000 0.0390138828
C   C5        1.0  0.24090  0.16850  0.94570  1.0000 0.0390138828
C   C6        1.0  0.83150  0.07240  0.94570  1.0000 0.0390138828
C   C7        1.0  0.75910  0.92760  0.44570  1.0000 0.0390138828
C   C8        1.0  0.16850  0.24090  0.44570  1.0000 0.0390138828
C   C9        1.0  0.07240  0.83150  0.44570  1.0000 0.0390138828
C   C10       1.0  0.75910  0.92760  0.05430  1.0000 0.0390138828
C   C11       1.0  0.16850  0.24090  0.05430  1.0000 0.0390138828
C   C12       1.0  0.07240  0.83150  0.05430  1.0000 0.0390138828
C   C13       1.0  0.92780  0.65420  0.55870  1.0000 -0.0475914293
C   C14       1.0  0.34580  0.27360  0.55870  1.0000 -0.0475914293
C   C15       1.0  0.72640  0.07220  0.55870  1.0000 -0.0475914293
C   C16       1.0  0.92780  0.65420  0.94130  1.0000 -0.0475914293
C   C17       1.0  0.34580  0.27360  0.94130  1.0000 -0.0475914293
C   C18       1.0  0.72640  0.07220  0.94130  1.0000 -0.0475914293
C   C19       1.0  0.65420  0.92780  0.44130  1.0000 -0.0475914293
C   C20       1.0  0.27360  0.34580  0.44130  1.0000 -0.0475914293
C   C21       1.0  0.07220  0.72640  0.44130  1.0000 -0.0475914293
C   C22       1.0  0.65420  0.92780  0.05870  1.0000 -0.0475914293
C   C23       1.0  0.27360  0.34580  0.05870  1.0000 -0.0475914293
C   C24       1.0  0.07220  0.72640  0.05870  1.0000 -0.0475914293
C   C25       1.0  0.84850  0.56010  0.62600  1.0000 0.5979027155
C   C26       1.0  0.43990  0.28840  0.62600  1.0000 0.5979027155
C   C27       1.0  0.71160  0.15150  0.62600  1.0000 0.5979027155
C   C28       1.0  0.84850  0.56010  0.87400  1.0000 0.5979027155
C   C29       1.0  0.43990  0.28840  0.87400  1.0000 0.5979027155
C   C30       1.0  0.71160  0.15150  0.87400  1.0000 0.5979027155
C   C31       1.0  0.56010  0.84850  0.37400  1.0000 0.5979027155
C   C32       1.0  0.28840  0.43990  0.37400  1.0000 0.5979027155
C   C33       1.0  0.15150  0.71160  0.37400  1.0000 0.5979027155
C   C34       1.0  0.56010  0.84850  0.12600  1.0000 0.5979027155
C   C35       1.0  0.28840  0.43990  0.12600  1.0000 0.5979027155
C   C36       1.0  0.15150  0.71160  0.12600  1.0000 0.5979027155
C   C37       1.0  0.00000  0.63680  0.50000  1.0000 -0.0475914293
C   C38       1.0  0.36320  0.36320  0.50000  1.0000 -0.0475914293
C   C39       1.0  0.63680  0.00000  0.50000  1.0000 -0.0475914293
C   C40       1.0  0.00000  0.63680  0.00000  1.0000 -0.0475914293
C   C41       1.0  0.36320  0.36320  0.00000  1.0000 -0.0475914293
C   C42       1.0  0.63680  0.00000  0.00000  1.0000 -0.0475914293
N   N1        1.0  0.00000  0.84900  0.50000  1.0000 -0.2090076205
N   N2        1.0  0.15100  0.15100  0.50000  1.0000 -0.2090076205
N   N3        1.0  0.84900  0.00000  0.50000  1.0000 -0.2090076205
N   N4        1.0  0.00000  0.84900  0.00000  1.0000 -0.2090076205
N   N5        1.0  0.15100  0.15100  0.00000  1.0000 -0.2090076205
N   N6        1.0  0.84900  0.00000  0.00000  1.0000 -0.2090076205
O   O1        1.0  0.66667  0.33333  0.75000  1.0000 -1.1123760041
O   O2        1.0  0.33333  0.66667  0.25000  1.0000 -1.1123760041
O   O3        1.0  0.88220  0.49010  0.64780  1.0000 -0.6016255416
O   O4        1.0  0.50990  0.39210  0.64780  1.0000 -0.6016255416
O   O5        1.0  0.60790  0.11780  0.64780  1.0000 -0.6016255416
O   O6        1.0  0.88220  0.49010  0.85220  1.0000 -0.6016255416
O   O7        1.0  0.50990  0.39210  0.85220  1.0000 -0.6016255416
O   O8        1.0  0.60790  0.11780  0.85220  1.0000 -0.6016255416
O   O9        1.0  0.49010  0.88220  0.35220  1.0000 -0.6016255416
O   O10       1.0  0.39210  0.50990  0.35220  1.0000 -0.6016255416
O   O11       1.0  0.11780  0.60790  0.35220  1.0000 -0.6016255416
O   O12       1.0  0.49010  0.88220  0.14780  1.0000 -0.6016255416
O   O13       1.0  0.39210  0.50990  0.14780  1.0000 -0.6016255416
O   O14       1.0  0.11780  0.60790  0.14780  1.0000 -0.6016255416
O   O15       1.0  0.76230  0.56510  0.65270  1.0000 -0.6016255416
O   O16       1.0  0.43490  0.19720  0.65270  1.0000 -0.6016255416
O   O17       1.0  0.80280  0.23770  0.65270  1.0000 -0.6016255416
O   O18       1.0  0.76230  0.56510  0.84730  1.0000 -0.6016255416
O   O19       1.0  0.43490  0.19720  0.84730  1.0000 -0.6016255416
O   O20       1.0  0.80280  0.23770  0.84730  1.0000 -0.6016255416
O   O21       1.0  0.56510  0.76230  0.34730  1.0000 -0.6016255416
O   O22       1.0  0.19720  0.43490  0.34730  1.0000 -0.6016255416
O   O23       1.0  0.23770  0.80280  0.34730  1.0000 -0.6016255416
O   O24       1.0  0.56510  0.76230  0.15270  1.0000 -0.6016255416
O   O25       1.0  0.19720  0.43490  0.15270  1.0000 -0.6016255416
O   O26       1.0  0.23770  0.80280  0.15270  1.0000 -0.6016255416
