# DDEC6 charges by PACMAN v1.1 (https://github.com/mtap-research/PACMAN-charge/)
data_2016[Cu][ssa]3[ASR]2
_chemical_formula_sum              "Cu12 H72 C126 N36 O48"
_cell_length_a       18.5653
_cell_length_b       18.5653
_cell_length_c       23.9636
_cell_angle_alpha    90
_cell_angle_beta     90
_cell_angle_gamma    120

_symmetry_space_group_name_H-M    "P 1"
_symmetry_Int_Tables_number       1

loop_
  _symmetry_equiv_pos_as_xyz
  'x, y, z'

loop_
  _atom_site_type_symbol
  _atom_site_label
  _atom_site_symmetry_multiplicity
  _atom_site_fract_x
  _atom_site_fract_y
  _atom_site_fract_z
  _atom_site_occupancy
  _atom_site_charge
Cu  Cu1       1.0  0.52377  0.47623  0.95469  1.0000 0.860268819
Cu  Cu2       1.0  0.04754  0.52377  0.45469  1.0000 0.860268819
Cu  Cu3       1.0  0.52377  0.04754  0.95469  1.0000 0.860268819
Cu  Cu4       1.0  0.47623  0.52377  0.45469  1.0000 0.860268819
Cu  Cu5       1.0  0.95246  0.47623  0.95469  1.0000 0.860268819
Cu  Cu6       1.0  0.47623  0.95246  0.45469  1.0000 0.860268819
Cu  Cu7       1.0  0.52377  0.47623  0.54531  1.0000 0.860268819
Cu  Cu8       1.0  0.04754  0.52377  0.04531  1.0000 0.860268819
Cu  Cu9       1.0  0.52377  0.04754  0.54531  1.0000 0.860268819
Cu  Cu10      1.0  0.47623  0.52377  0.04531  1.0000 0.860268819
Cu  Cu11      1.0  0.95246  0.47623  0.54531  1.0000 0.860268819
Cu  Cu12      1.0  0.47623  0.95246  0.04531  1.0000 0.860268819
H   H1        1.0  0.46030  0.28180  0.21810  1.0000 0.2356994654
H   H2        1.0  0.17850  0.46030  0.71810  1.0000 0.2348178503
H   H3        1.0  0.71820  0.17850  0.21810  1.0000 0.2356994654
H   H4        1.0  0.53970  0.71820  0.71810  1.0000 0.2356994654
H   H5        1.0  0.82150  0.53970  0.21810  1.0000 0.2356994654
H   H6        1.0  0.28180  0.82150  0.71810  1.0000 0.2356994654
H   H7        1.0  0.71820  0.53970  0.28190  1.0000 0.2356994654
H   H8        1.0  0.17850  0.71820  0.78190  1.0000 0.2356994654
H   H9        1.0  0.46030  0.17850  0.28190  1.0000 0.2348178503
H   H10       1.0  0.28180  0.46030  0.78190  1.0000 0.2356994654
H   H11       1.0  0.82150  0.28180  0.28190  1.0000 0.2356994654
H   H12       1.0  0.53970  0.82150  0.78190  1.0000 0.2356994654
H   H13       1.0  0.53970  0.71820  0.78190  1.0000 0.2356994654
H   H14       1.0  0.82150  0.53970  0.28190  1.0000 0.2356994654
H   H15       1.0  0.28180  0.82150  0.78190  1.0000 0.2356994654
H   H16       1.0  0.46030  0.28180  0.28190  1.0000 0.2348178503
H   H17       1.0  0.17850  0.46030  0.78190  1.0000 0.2356994654
H   H18       1.0  0.71820  0.17850  0.28190  1.0000 0.2356994654
H   H19       1.0  0.28180  0.46030  0.71810  1.0000 0.2356994654
H   H20       1.0  0.82150  0.28180  0.21810  1.0000 0.2356994654
H   H21       1.0  0.53970  0.82150  0.71810  1.0000 0.2356994654
H   H22       1.0  0.71820  0.53970  0.21810  1.0000 0.2356994654
H   H23       1.0  0.17850  0.71820  0.71810  1.0000 0.2356994654
H   H24       1.0  0.46030  0.17850  0.21810  1.0000 0.2356994654
H   H25       1.0  0.47010  0.23505  0.00920  1.0000 0.1462686238
H   H26       1.0  0.23505  0.47010  0.50920  1.0000 0.1462686238
H   H27       1.0  0.76495  0.23505  0.00920  1.0000 0.1462686238
H   H28       1.0  0.52990  0.76495  0.50920  1.0000 0.1462686238
H   H29       1.0  0.76495  0.52990  0.00920  1.0000 0.1462686238
H   H30       1.0  0.23505  0.76495  0.50920  1.0000 0.1462686238
H   H31       1.0  0.76495  0.52990  0.49080  1.0000 0.1462686238
H   H32       1.0  0.23505  0.76495  0.99080  1.0000 0.1462686238
H   H33       1.0  0.47010  0.23505  0.49080  1.0000 0.1462686238
H   H34       1.0  0.23505  0.47010  0.99080  1.0000 0.1462686238
H   H35       1.0  0.76495  0.23505  0.49080  1.0000 0.1462686238
H   H36       1.0  0.52990  0.76495  0.99080  1.0000 0.1462686238
H   H37       1.0  0.36760  0.29210  0.13650  1.0000 0.1209971286
H   H38       1.0  0.07550  0.36760  0.63650  1.0000 0.1209971286
H   H39       1.0  0.70790  0.07550  0.13650  1.0000 0.1209971286
H   H40       1.0  0.63240  0.70790  0.63650  1.0000 0.1209971286
H   H41       1.0  0.92450  0.63240  0.13650  1.0000 0.1209971286
H   H42       1.0  0.29210  0.92450  0.63650  1.0000 0.1209971286
H   H43       1.0  0.70790  0.63240  0.36350  1.0000 0.1209971286
H   H44       1.0  0.07550  0.70790  0.86350  1.0000 0.1209971286
H   H45       1.0  0.36760  0.07550  0.36350  1.0000 0.1209971286
H   H46       1.0  0.29210  0.36760  0.86350  1.0000 0.1209971286
H   H47       1.0  0.92450  0.29210  0.36350  1.0000 0.1209971286
H   H48       1.0  0.63240  0.92450  0.86350  1.0000 0.1209971286
H   H49       1.0  0.63240  0.70790  0.86350  1.0000 0.1209971286
H   H50       1.0  0.92450  0.63240  0.36350  1.0000 0.1209971286
H   H51       1.0  0.29210  0.92450  0.86350  1.0000 0.1209971286
H   H52       1.0  0.36760  0.29210  0.36350  1.0000 0.1209971286
H   H53       1.0  0.07550  0.36760  0.86350  1.0000 0.1209971286
H   H54       1.0  0.70790  0.07550  0.36350  1.0000 0.1209971286
H   H55       1.0  0.29210  0.36760  0.63650  1.0000 0.1209971286
H   H56       1.0  0.92450  0.29210  0.13650  1.0000 0.1209971286
H   H57       1.0  0.63240  0.92450  0.63650  1.0000 0.1209971286
H   H58       1.0  0.70790  0.63240  0.13650  1.0000 0.1209971286
H   H59       1.0  0.07550  0.70790  0.63650  1.0000 0.1209971286
H   H60       1.0  0.36760  0.07550  0.13650  1.0000 0.1209971286
H   H61       1.0  0.15400  0.01110  0.25000  1.0000 0.1099539426
H   H62       1.0  0.14290  0.15400  0.75000  1.0000 0.1099539426
H   H63       1.0  0.98890  0.14290  0.25000  1.0000 0.1099539426
H   H64       1.0  0.84600  0.98890  0.75000  1.0000 0.1099539426
H   H65       1.0  0.85710  0.84600  0.25000  1.0000 0.1099539426
H   H66       1.0  0.01110  0.85710  0.75000  1.0000 0.1099539426
H   H67       1.0  0.98890  0.84600  0.25000  1.0000 0.1099539426
H   H68       1.0  0.14290  0.98890  0.75000  1.0000 0.1099539426
H   H69       1.0  0.15400  0.14290  0.25000  1.0000 0.1099539426
H   H70       1.0  0.01110  0.15400  0.75000  1.0000 0.1099539426
H   H71       1.0  0.85710  0.01110  0.25000  1.0000 0.1099539426
H   H72       1.0  0.84600  0.85710  0.75000  1.0000 0.1099539426
C   C1        1.0  0.45000  0.35950  0.04287  1.0000 0.579034803
C   C2        1.0  0.09050  0.45000  0.54287  1.0000 0.579034803
C   C3        1.0  0.64050  0.09050  0.04287  1.0000 0.579034803
C   C4        1.0  0.55000  0.64050  0.54287  1.0000 0.579034803
C   C5        1.0  0.90950  0.55000  0.04287  1.0000 0.579034803
C   C6        1.0  0.35950  0.90950  0.54287  1.0000 0.579034803
C   C7        1.0  0.64050  0.55000  0.45713  1.0000 0.579034803
C   C8        1.0  0.09050  0.64050  0.95713  1.0000 0.579034803
C   C9        1.0  0.45000  0.09050  0.45713  1.0000 0.579034803
C   C10       1.0  0.35950  0.45000  0.95713  1.0000 0.579034803
C   C11       1.0  0.90950  0.35950  0.45713  1.0000 0.579034803
C   C12       1.0  0.55000  0.90950  0.95713  1.0000 0.579034803
C   C13       1.0  0.55000  0.64050  0.95713  1.0000 0.579034803
C   C14       1.0  0.90950  0.55000  0.45713  1.0000 0.579034803
C   C15       1.0  0.35950  0.90950  0.95713  1.0000 0.579034803
C   C16       1.0  0.45000  0.35950  0.45713  1.0000 0.579034803
C   C17       1.0  0.09050  0.45000  0.95713  1.0000 0.579034803
C   C18       1.0  0.64050  0.09050  0.45713  1.0000 0.579034803
C   C19       1.0  0.35950  0.45000  0.54287  1.0000 0.579034803
C   C20       1.0  0.90950  0.35950  0.04287  1.0000 0.579034803
C   C21       1.0  0.55000  0.90950  0.54287  1.0000 0.579034803
C   C22       1.0  0.64050  0.55000  0.04287  1.0000 0.579034803
C   C23       1.0  0.09050  0.64050  0.54287  1.0000 0.579034803
C   C24       1.0  0.45000  0.09050  0.04287  1.0000 0.579034803
C   C25       1.0  0.42250  0.27640  0.06923  1.0000 -0.0235603777
C   C26       1.0  0.14610  0.42250  0.56923  1.0000 -0.0235603777
C   C27       1.0  0.72360  0.14610  0.06923  1.0000 -0.0235603777
C   C28       1.0  0.57750  0.72360  0.56923  1.0000 -0.0235603777
C   C29       1.0  0.85390  0.57750  0.06923  1.0000 -0.0235603777
C   C30       1.0  0.27640  0.85390  0.56923  1.0000 -0.0235603777
C   C31       1.0  0.72360  0.57750  0.43077  1.0000 -0.0235603777
C   C32       1.0  0.14610  0.72360  0.93077  1.0000 -0.0235603777
C   C33       1.0  0.42250  0.14610  0.43077  1.0000 -0.0235603777
C   C34       1.0  0.27640  0.42250  0.93077  1.0000 -0.0235603777
C   C35       1.0  0.85390  0.27640  0.43077  1.0000 -0.0235603777
C   C36       1.0  0.57750  0.85390  0.93077  1.0000 -0.0235603777
C   C37       1.0  0.57750  0.72360  0.93077  1.0000 -0.0235603777
C   C38       1.0  0.85390  0.57750  0.43077  1.0000 -0.0235603777
C   C39       1.0  0.27640  0.85390  0.93077  1.0000 -0.0235603777
C   C40       1.0  0.42250  0.27640  0.43077  1.0000 -0.0235603777
C   C41       1.0  0.14610  0.42250  0.93077  1.0000 -0.0235603777
C   C42       1.0  0.72360  0.14610  0.43077  1.0000 -0.0235603777
C   C43       1.0  0.27640  0.42250  0.56923  1.0000 -0.0235603777
C   C44       1.0  0.85390  0.27640  0.06923  1.0000 -0.0235603777
C   C45       1.0  0.57750  0.85390  0.56923  1.0000 -0.0235603777
C   C46       1.0  0.72360  0.57750  0.06923  1.0000 -0.0235603777
C   C47       1.0  0.14610  0.72360  0.56923  1.0000 -0.0235603777
C   C48       1.0  0.42250  0.14610  0.06923  1.0000 -0.0235603777
C   C49       1.0  0.44290  0.22145  0.04350  1.0000 -0.1132137173
C   C50       1.0  0.22145  0.44290  0.54350  1.0000 -0.1132137173
C   C51       1.0  0.77855  0.22145  0.04350  1.0000 -0.1132137173
C   C52       1.0  0.55710  0.77855  0.54350  1.0000 -0.1132137173
C   C53       1.0  0.77855  0.55710  0.04350  1.0000 -0.1132137173
C   C54       1.0  0.22145  0.77855  0.54350  1.0000 -0.1132137173
C   C55       1.0  0.77855  0.55710  0.45650  1.0000 -0.1132137173
C   C56       1.0  0.22145  0.77855  0.95650  1.0000 -0.1151995408
C   C57       1.0  0.44290  0.22145  0.45650  1.0000 -0.1132137173
C   C58       1.0  0.22145  0.44290  0.95650  1.0000 -0.1132137173
C   C59       1.0  0.77855  0.22145  0.45650  1.0000 -0.1132137173
C   C60       1.0  0.55710  0.77855  0.95650  1.0000 -0.1132137173
C   C61       1.0  0.38140  0.25560  0.11950  1.0000 -0.1712792315
C   C62       1.0  0.12580  0.38140  0.61950  1.0000 -0.1712792315
C   C63       1.0  0.74440  0.12580  0.11950  1.0000 -0.1712792315
C   C64       1.0  0.61860  0.74440  0.61950  1.0000 -0.1712792315
C   C65       1.0  0.87420  0.61860  0.11950  1.0000 -0.1712792315
C   C66       1.0  0.25560  0.87420  0.61950  1.0000 -0.1712792315
C   C67       1.0  0.74440  0.61860  0.38050  1.0000 -0.1712792315
C   C68       1.0  0.12580  0.74440  0.88050  1.0000 -0.1712792315
C   C69       1.0  0.38140  0.12580  0.38050  1.0000 -0.1712792315
C   C70       1.0  0.25560  0.38140  0.88050  1.0000 -0.1712792315
C   C71       1.0  0.87420  0.25560  0.38050  1.0000 -0.1712792315
C   C72       1.0  0.61860  0.87420  0.88050  1.0000 -0.1712792315
C   C73       1.0  0.61860  0.74440  0.88050  1.0000 -0.1712792315
C   C74       1.0  0.87420  0.61860  0.38050  1.0000 -0.1712792315
C   C75       1.0  0.25560  0.87420  0.88050  1.0000 -0.1712792315
C   C76       1.0  0.38140  0.25560  0.38050  1.0000 -0.1712792315
C   C77       1.0  0.12580  0.38140  0.88050  1.0000 -0.1712792315
C   C78       1.0  0.74440  0.12580  0.38050  1.0000 -0.1712792315
C   C79       1.0  0.25560  0.38140  0.61950  1.0000 -0.1712792315
C   C80       1.0  0.87420  0.25560  0.11950  1.0000 -0.1712792315
C   C81       1.0  0.61860  0.87420  0.61950  1.0000 -0.1712792315
C   C82       1.0  0.74440  0.61860  0.11950  1.0000 -0.1712792315
C   C83       1.0  0.12580  0.74440  0.61950  1.0000 -0.1712792315
C   C84       1.0  0.38140  0.12580  0.11950  1.0000 -0.1712792315
C   C85       1.0  0.36030  0.18015  0.14520  1.0000 -0.0288636616
C   C86       1.0  0.18015  0.36030  0.64520  1.0000 -0.0288636616
C   C87       1.0  0.81985  0.18015  0.14520  1.0000 -0.0288636616
C   C88       1.0  0.63970  0.81985  0.64520  1.0000 -0.0288636616
C   C89       1.0  0.81985  0.63970  0.14520  1.0000 -0.0288636616
C   C90       1.0  0.18015  0.81985  0.64520  1.0000 -0.0288636616
C   C91       1.0  0.81985  0.63970  0.35480  1.0000 -0.0235603777
C   C92       1.0  0.18015  0.81985  0.85480  1.0000 -0.0235603777
C   C93       1.0  0.36030  0.18015  0.35480  1.0000 -0.0235603777
C   C94       1.0  0.18015  0.36030  0.85480  1.0000 -0.0288636616
C   C95       1.0  0.81985  0.18015  0.35480  1.0000 -0.0288636616
C   C96       1.0  0.63970  0.81985  0.85480  1.0000 -0.0235603777
C   C97       1.0  0.31670  0.15835  0.20050  1.0000 0.0965234813
C   C98       1.0  0.15835  0.31670  0.70050  1.0000 0.0965234813
C   C99       1.0  0.84165  0.15835  0.20050  1.0000 0.0965234813
C   C100      1.0  0.68330  0.84165  0.70050  1.0000 0.0965234813
C   C101      1.0  0.84165  0.68330  0.20050  1.0000 0.0965234813
C   C102      1.0  0.15835  0.84165  0.70050  1.0000 0.0965234813
C   C103      1.0  0.84165  0.68330  0.29950  1.0000 0.0965234813
C   C104      1.0  0.15835  0.84165  0.79950  1.0000 0.0965234813
C   C105      1.0  0.31670  0.15835  0.29950  1.0000 0.0965234813
C   C106      1.0  0.15835  0.31670  0.79950  1.0000 0.0965234813
C   C107      1.0  0.84165  0.15835  0.29950  1.0000 0.0965234813
C   C108      1.0  0.68330  0.84165  0.79950  1.0000 0.0965234813
C   C109      1.0  0.35760  0.17880  0.25000  1.0000 0.0744194341
C   C110      1.0  0.17880  0.35760  0.75000  1.0000 0.0744194341
C   C111      1.0  0.82120  0.17880  0.25000  1.0000 0.0755525631
C   C112      1.0  0.64240  0.82120  0.75000  1.0000 0.0755525631
C   C113      1.0  0.82120  0.64240  0.25000  1.0000 0.0755525631
C   C114      1.0  0.17880  0.82120  0.75000  1.0000 0.0744194341
C   C115      1.0  0.20730  0.05740  0.25000  1.0000 0.0369171341
C   C116      1.0  0.14990  0.20730  0.75000  1.0000 0.0369171341
C   C117      1.0  0.94260  0.14990  0.25000  1.0000 0.0369171341
C   C118      1.0  0.79270  0.94260  0.75000  1.0000 0.0369171341
C   C119      1.0  0.85010  0.79270  0.25000  1.0000 0.0369171341
C   C120      1.0  0.05740  0.85010  0.75000  1.0000 0.0369171341
C   C121      1.0  0.94260  0.79270  0.25000  1.0000 0.0369171341
C   C122      1.0  0.14990  0.94260  0.75000  1.0000 0.0369171341
C   C123      1.0  0.20730  0.14990  0.25000  1.0000 0.0369171341
C   C124      1.0  0.05740  0.20730  0.75000  1.0000 0.0369171341
C   C125      1.0  0.85010  0.05740  0.25000  1.0000 0.0369171341
C   C126      1.0  0.79270  0.85010  0.75000  1.0000 0.0369171341
N   N1        1.0  0.23890  0.08480  0.20070  1.0000 -0.1383211834
N   N2        1.0  0.15410  0.23890  0.70070  1.0000 -0.1383211834
N   N3        1.0  0.91520  0.15410  0.20070  1.0000 -0.1383211834
N   N4        1.0  0.76110  0.91520  0.70070  1.0000 -0.1383211834
N   N5        1.0  0.84590  0.76110  0.20070  1.0000 -0.1383211834
N   N6        1.0  0.08480  0.84590  0.70070  1.0000 -0.1383211834
N   N7        1.0  0.91520  0.76110  0.29930  1.0000 -0.1383211834
N   N8        1.0  0.15410  0.91520  0.79930  1.0000 -0.1383211834
N   N9        1.0  0.23890  0.15410  0.29930  1.0000 -0.1383211834
N   N10       1.0  0.08480  0.23890  0.79930  1.0000 -0.1383211834
N   N11       1.0  0.84590  0.08480  0.29930  1.0000 -0.1383211834
N   N12       1.0  0.76110  0.84590  0.79930  1.0000 -0.1383211834
N   N13       1.0  0.76110  0.91520  0.79930  1.0000 -0.1383211834
N   N14       1.0  0.84590  0.76110  0.29930  1.0000 -0.1383211834
N   N15       1.0  0.08480  0.84590  0.79930  1.0000 -0.1383211834
N   N16       1.0  0.23890  0.08480  0.29930  1.0000 -0.1383211834
N   N17       1.0  0.15410  0.23890  0.79930  1.0000 -0.1383211834
N   N18       1.0  0.91520  0.15410  0.29930  1.0000 -0.1383211834
N   N19       1.0  0.08480  0.23890  0.70070  1.0000 -0.1383211834
N   N20       1.0  0.84590  0.08480  0.20070  1.0000 -0.1383211834
N   N21       1.0  0.76110  0.84590  0.70070  1.0000 -0.1383211834
N   N22       1.0  0.91520  0.76110  0.20070  1.0000 -0.1383211834
N   N23       1.0  0.15410  0.91520  0.70070  1.0000 -0.1383211834
N   N24       1.0  0.23890  0.15410  0.20070  1.0000 -0.1383211834
N   N25       1.0  0.43590  0.25770  0.25000  1.0000 -0.2817967358
N   N26       1.0  0.17820  0.43590  0.75000  1.0000 -0.2817967358
N   N27       1.0  0.74230  0.17820  0.25000  1.0000 -0.2817967358
N   N28       1.0  0.56410  0.74230  0.75000  1.0000 -0.2817967358
N   N29       1.0  0.82180  0.56410  0.25000  1.0000 -0.2817967358
N   N30       1.0  0.25770  0.82180  0.75000  1.0000 -0.2817967358
N   N31       1.0  0.74230  0.56410  0.25000  1.0000 -0.2817967358
N   N32       1.0  0.17820  0.74230  0.75000  1.0000 -0.2817967358
N   N33       1.0  0.43590  0.17820  0.25000  1.0000 -0.2817967358
N   N34       1.0  0.25770  0.43590  0.75000  1.0000 -0.2817967358
N   N35       1.0  0.82180  0.25770  0.25000  1.0000 -0.2817967358
N   N36       1.0  0.56410  0.82180  0.75000  1.0000 -0.2817967358
O   O1        1.0  0.48134  0.37099  0.99451  1.0000 -0.5177651454
O   O2        1.0  0.11035  0.48134  0.49451  1.0000 -0.5177651454
O   O3        1.0  0.62901  0.11035  0.99451  1.0000 -0.5177651454
O   O4        1.0  0.51866  0.62901  0.49451  1.0000 -0.5177651454
O   O5        1.0  0.88965  0.51866  0.99451  1.0000 -0.5177651454
O   O6        1.0  0.37099  0.88965  0.49451  1.0000 -0.5177651454
O   O7        1.0  0.62901  0.51866  0.50549  1.0000 -0.5148052993
O   O8        1.0  0.11035  0.62901  0.00549  1.0000 -0.5177651454
O   O9        1.0  0.48134  0.11035  0.50549  1.0000 -0.5177651454
O   O10       1.0  0.37099  0.48134  0.00549  1.0000 -0.5177651454
O   O11       1.0  0.88965  0.37099  0.50549  1.0000 -0.5148052993
O   O12       1.0  0.51866  0.88965  0.00549  1.0000 -0.5177651454
O   O13       1.0  0.51866  0.62901  0.00549  1.0000 -0.5177651454
O   O14       1.0  0.88965  0.51866  0.50549  1.0000 -0.5148052993
O   O15       1.0  0.37099  0.88965  0.00549  1.0000 -0.5177651454
O   O16       1.0  0.48134  0.37099  0.50549  1.0000 -0.5148052993
O   O17       1.0  0.11035  0.48134  0.00549  1.0000 -0.5177651454
O   O18       1.0  0.62901  0.11035  0.50549  1.0000 -0.5177651454
O   O19       1.0  0.37099  0.48134  0.49451  1.0000 -0.5177651454
O   O20       1.0  0.88965  0.37099  0.99451  1.0000 -0.5177651454
O   O21       1.0  0.51866  0.88965  0.49451  1.0000 -0.5177651454
O   O22       1.0  0.62901  0.51866  0.99451  1.0000 -0.5177651454
O   O23       1.0  0.11035  0.62901  0.49451  1.0000 -0.5177651454
O   O24       1.0  0.48134  0.11035  0.99451  1.0000 -0.5177651454
O   O25       1.0  0.44018  0.41081  0.07120  1.0000 -0.5177651454
O   O26       1.0  0.02937  0.44018  0.57120  1.0000 -0.5177651454
O   O27       1.0  0.58919  0.02937  0.07120  1.0000 -0.5177651454
O   O28       1.0  0.55982  0.58919  0.57120  1.0000 -0.5177651454
O   O29       1.0  0.97063  0.55982  0.07120  1.0000 -0.5177651454
O   O30       1.0  0.41081  0.97063  0.57120  1.0000 -0.5177651454
O   O31       1.0  0.58919  0.55982  0.42880  1.0000 -0.5177651454
O   O32       1.0  0.02937  0.58919  0.92880  1.0000 -0.5177651454
O   O33       1.0  0.44018  0.02937  0.42880  1.0000 -0.5177651454
O   O34       1.0  0.41081  0.44018  0.92880  1.0000 -0.5177651454
O   O35       1.0  0.97063  0.41081  0.42880  1.0000 -0.5177651454
O   O36       1.0  0.55982  0.97063  0.92880  1.0000 -0.5177651454
O   O37       1.0  0.55982  0.58919  0.92880  1.0000 -0.5177651454
O   O38       1.0  0.97063  0.55982  0.42880  1.0000 -0.5177651454
O   O39       1.0  0.41081  0.97063  0.92880  1.0000 -0.5177651454
O   O40       1.0  0.44018  0.41081  0.42880  1.0000 -0.5177651454
O   O41       1.0  0.02937  0.44018  0.92880  1.0000 -0.5177651454
O   O42       1.0  0.58919  0.02937  0.42880  1.0000 -0.5177651454
O   O43       1.0  0.41081  0.44018  0.57120  1.0000 -0.5177651454
O   O44       1.0  0.97063  0.41081  0.07120  1.0000 -0.5177651454
O   O45       1.0  0.55982  0.97063  0.57120  1.0000 -0.5177651454
O   O46       1.0  0.58919  0.55982  0.07120  1.0000 -0.5177651454
O   O47       1.0  0.02937  0.58919  0.57120  1.0000 -0.5177651454
O   O48       1.0  0.44018  0.02937  0.07120  1.0000 -0.5177651454
