# DDEC6 charges by PACMAN v1.1 (https://github.com/mtap-research/PACMAN-charge/)
data_2016[Co][bbf]3[ASR]1
_chemical_formula_sum              "Co4 H84 C80 N16 O20"
_cell_length_a       8.0319
_cell_length_b       17.9407
_cell_length_c       17.9318
_cell_angle_alpha    90
_cell_angle_beta     108.644
_cell_angle_gamma    90

_symmetry_space_group_name_H-M    "P 1"
_symmetry_Int_Tables_number       1

loop_
  _symmetry_equiv_pos_as_xyz
  'x, y, z'

loop_
  _atom_site_type_symbol
  _atom_site_label
  _atom_site_symmetry_multiplicity
  _atom_site_fract_x
  _atom_site_fract_y
  _atom_site_fract_z
  _atom_site_occupancy
  _atom_site_charge
Co  Co1       1.0  0.87315  0.19002  0.76356  1.0000 0.7828684781
Co  Co2       1.0  0.12685  0.69002  0.73644  1.0000 0.7828684781
Co  Co3       1.0  0.12685  0.80998  0.23644  1.0000 0.7828684781
Co  Co4       1.0  0.87315  0.30998  0.26356  1.0000 0.7828684781
H   H1        1.0  0.79810  0.27970  0.48860  1.0000 0.1282982637
H   H2        1.0  0.20190  0.77970  0.01140  1.0000 0.1282982637
H   H3        1.0  0.20190  0.72030  0.51140  1.0000 0.1282982637
H   H4        1.0  0.79810  0.22030  0.98860  1.0000 0.1282982637
H   H5        1.0  0.38920  0.41500  0.38710  1.0000 0.1195043096
H   H6        1.0  0.61080  0.91500  0.11290  1.0000 0.1195043096
H   H7        1.0  0.61080  0.58500  0.61290  1.0000 0.1195043096
H   H8        1.0  0.38920  0.08500  0.88710  1.0000 0.1195043096
H   H9        1.0  0.46770  0.33850  0.60590  1.0000 0.1494103854
H   H10       1.0  0.53230  0.83850  0.89410  1.0000 0.1494103854
H   H11       1.0  0.53230  0.66150  0.39410  1.0000 0.1494103854
H   H12       1.0  0.46770  0.16150  0.10590  1.0000 0.1494103854
H   H13       1.0  0.13130  0.44380  0.39720  1.0000 0.077788945
H   H14       1.0  0.86870  0.94380  0.10280  1.0000 0.077788945
H   H15       1.0  0.86870  0.55620  0.60280  1.0000 0.077788945
H   H16       1.0  0.13130  0.05620  0.89720  1.0000 0.077788945
H   H17       1.0  0.21660  0.51300  0.45160  1.0000 0.0909477842
H   H18       1.0  0.78340  0.01300  0.04840  1.0000 0.0909477842
H   H19       1.0  0.78340  0.48700  0.54840  1.0000 0.0909477842
H   H20       1.0  0.21660  0.98700  0.95160  1.0000 0.0909477842
H   H21       1.0  0.15450  0.10420  0.71030  1.0000 0.1195043096
H   H22       1.0  0.84550  0.60420  0.78970  1.0000 0.1195043096
H   H23       1.0  0.84550  0.89580  0.28970  1.0000 0.1195043096
H   H24       1.0  0.15450  0.39580  0.21030  1.0000 0.1195043096
H   H25       1.0  0.95510  0.91320  0.74720  1.0000 0.1282982637
H   H26       1.0  0.04490  0.41320  0.75280  1.0000 0.1282982637
H   H27       1.0  0.04490  0.08680  0.25280  1.0000 0.1282982637
H   H28       1.0  0.95510  0.58680  0.24720  1.0000 0.1282982637
H   H29       1.0  0.78270  0.01570  0.77520  1.0000 0.1282982637
H   H30       1.0  0.21730  0.51570  0.72480  1.0000 0.1282982637
H   H31       1.0  0.21730  0.98430  0.22480  1.0000 0.1282982637
H   H32       1.0  0.78270  0.48430  0.27520  1.0000 0.1282982637
H   H33       1.0  0.25580  0.99010  0.64370  1.0000 0.1195043096
H   H34       1.0  0.74420  0.49010  0.85630  1.0000 0.1195043096
H   H35       1.0  0.74420  0.00990  0.35630  1.0000 0.1195043096
H   H36       1.0  0.25580  0.50990  0.14370  1.0000 0.1195043096
H   H37       1.0  0.16450  0.91300  0.64840  1.0000 0.1119908117
H   H38       1.0  0.83550  0.41300  0.85160  1.0000 0.1119908117
H   H39       1.0  0.83550  0.08700  0.35160  1.0000 0.1119908117
H   H40       1.0  0.16450  0.58700  0.14840  1.0000 0.1119908117
H   H41       1.0  0.40140  0.98130  0.77530  1.0000 0.1195043096
H   H42       1.0  0.59860  0.48130  0.72470  1.0000 0.1195043096
H   H43       1.0  0.59860  0.01870  0.22470  1.0000 0.1195043096
H   H44       1.0  0.40140  0.51870  0.27530  1.0000 0.1195043096
H   H45       1.0  0.32010  0.90170  0.77480  1.0000 0.1195043096
H   H46       1.0  0.67990  0.40170  0.72520  1.0000 0.1195043096
H   H47       1.0  0.67990  0.09830  0.22520  1.0000 0.1195043096
H   H48       1.0  0.32010  0.59830  0.27480  1.0000 0.1195043096
H   H49       1.0  0.77770  0.75150  0.76620  1.0000 0.1195043096
H   H50       1.0  0.22230  0.25150  0.73380  1.0000 0.1195043096
H   H51       1.0  0.22230  0.24850  0.23380  1.0000 0.1195043096
H   H52       1.0  0.77770  0.74850  0.26620  1.0000 0.1195043096
H   H53       1.0  0.91300  0.77620  0.57640  1.0000 0.1282982637
H   H54       1.0  0.08700  0.27620  0.92360  1.0000 0.1282982637
H   H55       1.0  0.08700  0.22380  0.42360  1.0000 0.1282982637
H   H56       1.0  0.91300  0.72380  0.07640  1.0000 0.1282982637
H   H57       1.0  0.62560  0.83500  0.55370  1.0000 0.1282982637
H   H58       1.0  0.37440  0.33500  0.94630  1.0000 0.1282982637
H   H59       1.0  0.37440  0.16500  0.44630  1.0000 0.1282982637
H   H60       1.0  0.62560  0.66500  0.05370  1.0000 0.1282982637
H   H61       1.0  0.45380  0.79520  0.71450  1.0000 0.1282982637
H   H62       1.0  0.54620  0.29520  0.78550  1.0000 0.1282982637
H   H63       1.0  0.54620  0.20480  0.28550  1.0000 0.1282982637
H   H64       1.0  0.45380  0.70480  0.21450  1.0000 0.1282982637
H   H65       1.0  0.39220  0.83350  0.63150  1.0000 0.1119908117
H   H66       1.0  0.60780  0.33350  0.86850  1.0000 0.1119908117
H   H67       1.0  0.60780  0.16650  0.36850  1.0000 0.1119908117
H   H68       1.0  0.39220  0.66650  0.13150  1.0000 0.1119908117
H   H69       1.0  0.61820  0.89860  0.76420  1.0000 0.1119908117
H   H70       1.0  0.38180  0.39860  0.73580  1.0000 0.1119908117
H   H71       1.0  0.38180  0.10140  0.23580  1.0000 0.1119908117
H   H72       1.0  0.61820  0.60140  0.26420  1.0000 0.1119908117
H   H73       1.0  0.54390  0.93660  0.68190  1.0000 0.0997775976
H   H74       1.0  0.45610  0.43660  0.81810  1.0000 0.0997775976
H   H75       1.0  0.45610  0.06340  0.31810  1.0000 0.0997775976
H   H76       1.0  0.54390  0.56340  0.18190  1.0000 0.0997775976
H   H77       1.0  0.86570  0.47310  0.43020  1.0000 0.0997775976
H   H78       1.0  0.13430  0.97310  0.06980  1.0000 0.0997775976
H   H79       1.0  0.13430  0.52690  0.56980  1.0000 0.0997775976
H   H80       1.0  0.86570  0.02690  0.93020  1.0000 0.0997775976
H   H81       1.0  0.98140  0.43310  0.51080  1.0000 0.1119908117
H   H82       1.0  0.01860  0.93310  0.98920  1.0000 0.1119908117
H   H83       1.0  0.01860  0.56690  0.48920  1.0000 0.1119908117
H   H84       1.0  0.98140  0.06690  0.01080  1.0000 0.1119908117
C   C1        1.0  0.65040  0.30270  0.55840  1.0000 -0.004800744
C   C2        1.0  0.34960  0.80270  0.94160  1.0000 -0.004800744
C   C3        1.0  0.34960  0.69730  0.44160  1.0000 -0.004800744
C   C4        1.0  0.65040  0.19730  0.05840  1.0000 -0.004800744
C   C5        1.0  0.69950  0.30570  0.49080  1.0000 -0.1568153169
C   C6        1.0  0.30050  0.80570  0.00920  1.0000 -0.1568153169
C   C7        1.0  0.30050  0.69430  0.50920  1.0000 -0.1568153169
C   C8        1.0  0.69950  0.19430  0.99080  1.0000 -0.1568153169
C   C9        1.0  0.60240  0.34700  0.42690  1.0000 -0.0150442285
C   C10       1.0  0.39760  0.84700  0.07310  1.0000 -0.0150442285
C   C11       1.0  0.39760  0.65300  0.57310  1.0000 -0.0150442285
C   C12       1.0  0.60240  0.15300  0.92690  1.0000 -0.0150442285
C   C13       1.0  0.45480  0.38680  0.43000  1.0000 -0.2482818778
C   C14       1.0  0.54520  0.88680  0.07000  1.0000 -0.2482818778
C   C15       1.0  0.54520  0.61320  0.57000  1.0000 -0.2482818778
C   C16       1.0  0.45480  0.11320  0.93000  1.0000 -0.2482818778
C   C17       1.0  0.40780  0.38340  0.49860  1.0000 0.2508612309
C   C18       1.0  0.59220  0.88340  0.00140  1.0000 0.2508612309
C   C19       1.0  0.59220  0.61660  0.50140  1.0000 0.2508612309
C   C20       1.0  0.40780  0.11660  0.99860  1.0000 0.2508612309
C   C21       1.0  0.50240  0.34130  0.56120  1.0000 -0.2482818778
C   C22       1.0  0.49760  0.84130  0.93880  1.0000 -0.2482818778
C   C23       1.0  0.49760  0.65870  0.43880  1.0000 -0.2482818778
C   C24       1.0  0.50240  0.15870  0.06120  1.0000 -0.2482818778
C   C25       1.0  0.16000  0.46490  0.44960  1.0000 -0.0116548361
C   C26       1.0  0.84000  0.96490  0.05040  1.0000 -0.0116548361
C   C27       1.0  0.84000  0.53510  0.55040  1.0000 -0.0116548361
C   C28       1.0  0.16000  0.03510  0.94960  1.0000 -0.0116548361
C   C29       1.0  0.07870  0.06960  0.72070  1.0000 0.1119908117
C   C30       1.0  0.92130  0.56960  0.77930  1.0000 0.1119908117
C   C31       1.0  0.92130  0.93040  0.27930  1.0000 0.1119908117
C   C32       1.0  0.07870  0.43040  0.22070  1.0000 0.1119908117
C   C33       1.0  0.97160  0.96390  0.74120  1.0000 -0.1154232289
C   C34       1.0  0.02840  0.46390  0.75880  1.0000 -0.1154232289
C   C35       1.0  0.02840  0.03610  0.25880  1.0000 -0.1154232289
C   C36       1.0  0.97160  0.53610  0.24120  1.0000 -0.1154232289
C   C37       1.0  0.87850  0.02080  0.75710  1.0000 -0.0464344251
C   C38       1.0  0.12150  0.52080  0.74290  1.0000 -0.0464344251
C   C39       1.0  0.12150  0.97920  0.24290  1.0000 -0.0464344251
C   C40       1.0  0.87850  0.47920  0.25710  1.0000 -0.0464344251
C   C41       1.0  0.21910  0.95680  0.67800  1.0000 -0.127739115
C   C42       1.0  0.78090  0.45680  0.82200  1.0000 -0.127739115
C   C43       1.0  0.78090  0.04320  0.32200  1.0000 -0.127739115
C   C44       1.0  0.21910  0.54320  0.17800  1.0000 -0.127739115
C   C45       1.0  0.35900  0.93740  0.74330  1.0000 -0.1821621026
C   C46       1.0  0.64100  0.43740  0.75670  1.0000 -0.1821621026
C   C47       1.0  0.64100  0.06260  0.25670  1.0000 -0.1821621026
C   C48       1.0  0.35900  0.56260  0.24330  1.0000 -0.1821621026
C   C49       1.0  0.77630  0.76480  0.71580  1.0000 0.0909477842
C   C50       1.0  0.22370  0.26480  0.78420  1.0000 0.0909477842
C   C51       1.0  0.22370  0.23520  0.28420  1.0000 0.0909477842
C   C52       1.0  0.77630  0.73520  0.21580  1.0000 0.0909477842
C   C53       1.0  0.85080  0.77810  0.61200  1.0000 -0.0418006594
C   C54       1.0  0.14920  0.27810  0.88800  1.0000 -0.0418006594
C   C55       1.0  0.14920  0.22190  0.38800  1.0000 -0.0418006594
C   C56       1.0  0.85080  0.72190  0.11200  1.0000 -0.0418006594
C   C57       1.0  0.69180  0.81090  0.59950  1.0000 -0.1064169037
C   C58       1.0  0.30820  0.31090  0.90050  1.0000 -0.1064169037
C   C59       1.0  0.30820  0.18910  0.40050  1.0000 -0.1064169037
C   C60       1.0  0.69180  0.68910  0.09950  1.0000 -0.1064169037
C   C61       1.0  0.48780  0.83030  0.68080  1.0000 -0.1353135224
C   C62       1.0  0.51220  0.33030  0.81920  1.0000 -0.1353135224
C   C63       1.0  0.51220  0.16970  0.31920  1.0000 -0.1353135224
C   C64       1.0  0.48780  0.66970  0.18080  1.0000 -0.1353135224
C   C65       1.0  0.51560  0.90200  0.71760  1.0000 -0.1821621026
C   C66       1.0  0.48440  0.40200  0.78240  1.0000 -0.1821621026
C   C67       1.0  0.48440  0.09800  0.28240  1.0000 -0.1821621026
C   C68       1.0  0.51560  0.59800  0.21760  1.0000 -0.1821621026
C   C69       1.0  0.65210  0.34960  0.35330  1.0000 0.5349371169
C   C70       1.0  0.34790  0.84960  0.14670  1.0000 0.5349371169
C   C71       1.0  0.34790  0.65040  0.64670  1.0000 0.5349371169
C   C72       1.0  0.65210  0.15040  0.85330  1.0000 0.5349371169
C   C73       1.0  0.75560  0.25850  0.62820  1.0000 0.5349371169
C   C74       1.0  0.24440  0.75850  0.87180  1.0000 0.5349371169
C   C75       1.0  0.24440  0.74150  0.37180  1.0000 0.5349371169
C   C76       1.0  0.75560  0.24150  0.12820  1.0000 0.5349371169
C   C77       1.0  0.97990  0.46920  0.47030  1.0000 -0.1998976397
C   C78       1.0  0.02010  0.96920  0.02970  1.0000 -0.1998976397
C   C79       1.0  0.02010  0.53080  0.52970  1.0000 -0.1998976397
C   C80       1.0  0.97990  0.03080  0.97030  1.0000 -0.1998976397
N   N1        1.0  0.94590  0.08660  0.74270  1.0000 -0.2961593534
N   N2        1.0  0.05410  0.58660  0.75730  1.0000 -0.2961593534
N   N3        1.0  0.05410  0.91340  0.25730  1.0000 -0.2961593534
N   N4        1.0  0.94590  0.41340  0.24270  1.0000 -0.2961593534
N   N5        1.0  0.09380  0.99610  0.71460  1.0000 0.0417677478
N   N6        1.0  0.90620  0.49610  0.78540  1.0000 0.0417677478
N   N7        1.0  0.90620  0.00390  0.28540  1.0000 0.0417677478
N   N8        1.0  0.09380  0.50390  0.21460  1.0000 0.0417677478
N   N9        1.0  0.90350  0.74840  0.68620  1.0000 -0.3211141493
N   N10       1.0  0.09650  0.24840  0.81380  1.0000 -0.3211141493
N   N11       1.0  0.09650  0.25160  0.31380  1.0000 -0.3211141493
N   N12       1.0  0.90350  0.75160  0.18620  1.0000 -0.3211141493
N   N13       1.0  0.64720  0.80230  0.66530  1.0000 0.0417677478
N   N14       1.0  0.35280  0.30230  0.83470  1.0000 0.0417677478
N   N15       1.0  0.35280  0.19770  0.33470  1.0000 0.0417677478
N   N16       1.0  0.64720  0.69770  0.16530  1.0000 0.0417677478
O   O1        1.0  0.69480  0.25060  0.68497  1.0000 -0.55252542
O   O2        1.0  0.30520  0.75060  0.81503  1.0000 -0.55252542
O   O3        1.0  0.30520  0.74940  0.31503  1.0000 -0.55252542
O   O4        1.0  0.69480  0.24940  0.18497  1.0000 -0.55252542
O   O5        1.0  0.89630  0.22880  0.63000  1.0000 -0.5675654079
O   O6        1.0  0.10370  0.72880  0.87000  1.0000 -0.5675654079
O   O7        1.0  0.10370  0.77120  0.37000  1.0000 -0.5675654079
O   O8        1.0  0.89630  0.27120  0.13000  1.0000 -0.5675654079
O   O9        1.0  0.26830  0.42010  0.50940  1.0000 -0.1710765924
O   O10       1.0  0.73170  0.92010  0.99060  1.0000 -0.1710765924
O   O11       1.0  0.73170  0.57990  0.49060  1.0000 -0.1710765924
O   O12       1.0  0.26830  0.07990  0.00940  1.0000 -0.1710765924
O   O13       1.0  0.79350  0.31546  0.35613  1.0000 -0.5593641068
O   O14       1.0  0.20650  0.81546  0.14387  1.0000 -0.5593641068
O   O15       1.0  0.20650  0.68454  0.64387  1.0000 -0.5593641068
O   O16       1.0  0.79350  0.18454  0.85613  1.0000 -0.5593641068
O   O17       1.0  0.55890  0.38290  0.29470  1.0000 -0.55252542
O   O18       1.0  0.44110  0.88290  0.20530  1.0000 -0.55252542
O   O19       1.0  0.44110  0.61710  0.70530  1.0000 -0.55252542
O   O20       1.0  0.55890  0.11710  0.79470  1.0000 -0.55252542
