# DDEC6 charges by PACMAN v1.1 (https://github.com/mtap-research/PACMAN-charge/)
data_2016[Zn][pcu]3[ASR]8
_chemical_formula_sum              "Zn8 H144 C248 N8 O32"
_cell_length_a       15.639
_cell_length_b       21.426
_cell_length_c       15.9981
_cell_angle_alpha    90
_cell_angle_beta     94.5887
_cell_angle_gamma    90

_symmetry_space_group_name_H-M    "P 1"
_symmetry_Int_Tables_number       1

loop_
  _symmetry_equiv_pos_as_xyz
  'x, y, z'

loop_
  _atom_site_type_symbol
  _atom_site_label
  _atom_site_symmetry_multiplicity
  _atom_site_fract_x
  _atom_site_fract_y
  _atom_site_fract_z
  _atom_site_occupancy
  _atom_site_charge
Zn  Zn1       1.0  0.80710  0.76332  0.94616  1.0000 0.8324195488
Zn  Zn2       1.0  0.19290  0.26332  0.55384  1.0000 0.8324195488
Zn  Zn3       1.0  0.32564  0.25657  0.43224  1.0000 0.8324195488
Zn  Zn4       1.0  0.67436  0.75657  0.06776  1.0000 0.8324195488
Zn  Zn5       1.0  0.19290  0.23668  0.05384  1.0000 0.8324195488
Zn  Zn6       1.0  0.80710  0.73668  0.44616  1.0000 0.8324195488
Zn  Zn7       1.0  0.67436  0.74343  0.56776  1.0000 0.8324195488
Zn  Zn8       1.0  0.32564  0.24343  0.93224  1.0000 0.8324195488
H   H1        1.0  0.98100  0.81970  0.94370  1.0000 0.112257536
H   H2        1.0  0.01900  0.31970  0.55630  1.0000 0.112257536
H   H3        1.0  0.08930  0.83150  0.85430  1.0000 0.138176168
H   H4        1.0  0.91070  0.33150  0.64570  1.0000 0.138176168
H   H5        1.0  0.93710  0.74390  0.67480  1.0000 0.138176168
H   H6        1.0  0.06290  0.24390  0.82520  1.0000 0.138176168
H   H7        1.0  0.83400  0.73350  0.77020  1.0000 0.1176502649
H   H8        1.0  0.16600  0.23350  0.72980  1.0000 0.1176502649
H   H9        1.0  0.17470  0.66540  0.65910  1.0000 0.112257536
H   H10       1.0  0.82530  0.16540  0.84090  1.0000 0.112257536
H   H11       1.0  0.24130  0.56990  0.63640  1.0000 0.112257536
H   H12       1.0  0.75870  0.06990  0.86360  1.0000 0.112257536
H   H13       1.0  0.33530  0.56010  0.53090  1.0000 0.112257536
H   H14       1.0  0.66470  0.06010  0.96910  1.0000 0.112257536
H   H15       1.0  0.36250  0.64620  0.44640  1.0000 0.1176502649
H   H16       1.0  0.63750  0.14620  0.05360  1.0000 0.1176502649
H   H17       1.0  0.04090  0.82660  0.52250  1.0000 0.1176502649
H   H18       1.0  0.95910  0.32660  0.97750  1.0000 0.1176502649
H   H19       1.0  0.99760  0.86270  0.38700  1.0000 0.112257536
H   H20       1.0  0.00240  0.36270  0.11300  1.0000 0.112257536
H   H21       1.0  0.08920  0.85330  0.28050  1.0000 0.0991311154
H   H22       1.0  0.91080  0.35330  0.21950  1.0000 0.0991311154
H   H23       1.0  0.22680  0.81120  0.30750  1.0000 0.112257536
H   H24       1.0  0.77320  0.31120  0.19250  1.0000 0.112257536
H   H25       1.0  0.26720  0.85970  0.70850  1.0000 0.1176502649
H   H26       1.0  0.73280  0.35970  0.79150  1.0000 0.1176502649
H   H27       1.0  0.39830  0.91220  0.71790  1.0000 0.112257536
H   H28       1.0  0.60170  0.41220  0.78210  1.0000 0.112257536
H   H29       1.0  0.49230  0.90010  0.61410  1.0000 0.112257536
H   H30       1.0  0.50770  0.40010  0.88590  1.0000 0.112257536
H   H31       1.0  0.45560  0.83630  0.49750  1.0000 0.1176502649
H   H32       1.0  0.54440  0.33630  0.00250  1.0000 0.1176502649
H   H33       1.0  0.55020  0.69740  0.33480  1.0000 0.1317986684
H   H34       1.0  0.44980  0.19740  0.16520  1.0000 0.1317986684
H   H35       1.0  0.64690  0.69570  0.23270  1.0000 0.1176502649
H   H36       1.0  0.35310  0.19570  0.26730  1.0000 0.1176502649
H   H37       1.0  0.49730  0.80280  0.08570  1.0000 0.112257536
H   H38       1.0  0.50270  0.30280  0.41430  1.0000 0.112257536
H   H39       1.0  0.39650  0.80880  0.18450  1.0000 0.1317986684
H   H40       1.0  0.60350  0.30880  0.31550  1.0000 0.1317986684
H   H41       1.0  0.68050  0.65270  0.74380  1.0000 0.1176502649
H   H42       1.0  0.31950  0.15270  0.75620  1.0000 0.1176502649
H   H43       1.0  0.60650  0.58050  0.65700  1.0000 0.1176502649
H   H44       1.0  0.39350  0.08050  0.84300  1.0000 0.1176502649
H   H45       1.0  0.46130  0.53500  0.84580  1.0000 0.112257536
H   H46       1.0  0.53870  0.03500  0.65420  1.0000 0.112257536
H   H47       1.0  0.53600  0.60610  0.93270  1.0000 0.1176502649
H   H48       1.0  0.46400  0.10610  0.56730  1.0000 0.1176502649
H   H49       1.0  0.56740  0.48600  0.60770  1.0000 0.1176502649
H   H50       1.0  0.43260  0.98600  0.89230  1.0000 0.1176502649
H   H51       1.0  0.49270  0.40840  0.53150  1.0000 0.1176502649
H   H52       1.0  0.50730  0.90840  0.96850  1.0000 0.1176502649
H   H53       1.0  0.29130  0.43170  0.67130  1.0000 0.1176502649
H   H54       1.0  0.70870  0.93170  0.82870  1.0000 0.1176502649
H   H55       1.0  0.36470  0.51040  0.74640  1.0000 0.1176502649
H   H56       1.0  0.63530  0.01040  0.75360  1.0000 0.1176502649
H   H57       1.0  0.06510  0.09030  0.47030  1.0000 0.1176502649
H   H58       1.0  0.93490  0.59030  0.02970  1.0000 0.1176502649
H   H59       1.0  0.98570  0.01270  0.39830  1.0000 0.1176502649
H   H60       1.0  0.01430  0.51270  0.10170  1.0000 0.1176502649
H   H61       1.0  0.10900  0.04850  0.19070  1.0000 0.112257536
H   H62       1.0  0.89100  0.54850  0.30930  1.0000 0.112257536
H   H63       1.0  0.19160  0.12360  0.26430  1.0000 0.1176502649
H   H64       1.0  0.80840  0.62360  0.23570  1.0000 0.1176502649
H   H65       1.0  0.87740  0.98550  0.30110  1.0000 0.1176502649
H   H66       1.0  0.12260  0.48550  0.19890  1.0000 0.1176502649
H   H67       1.0  0.79530  0.91030  0.22770  1.0000 0.1176502649
H   H68       1.0  0.20470  0.41030  0.27230  1.0000 0.1176502649
H   H69       1.0  0.99210  0.87510  0.08630  1.0000 0.1176502649
H   H70       1.0  0.00790  0.37510  0.41370  1.0000 0.1176502649
H   H71       1.0  0.07400  0.95010  0.16000  1.0000 0.112257536
H   H72       1.0  0.92600  0.45010  0.34000  1.0000 0.112257536
H   H73       1.0  0.01900  0.18030  0.05630  1.0000 0.112257536
H   H74       1.0  0.98100  0.68030  0.44370  1.0000 0.112257536
H   H75       1.0  0.91070  0.16850  0.14570  1.0000 0.138176168
H   H76       1.0  0.08930  0.66850  0.35430  1.0000 0.138176168
H   H77       1.0  0.06290  0.25610  0.32520  1.0000 0.138176168
H   H78       1.0  0.93710  0.75610  0.17480  1.0000 0.138176168
H   H79       1.0  0.16600  0.26650  0.22980  1.0000 0.1176502649
H   H80       1.0  0.83400  0.76650  0.27020  1.0000 0.1176502649
H   H81       1.0  0.82530  0.33460  0.34090  1.0000 0.112257536
H   H82       1.0  0.17470  0.83460  0.15910  1.0000 0.112257536
H   H83       1.0  0.75870  0.43010  0.36360  1.0000 0.112257536
H   H84       1.0  0.24130  0.93010  0.13640  1.0000 0.112257536
H   H85       1.0  0.66470  0.43990  0.46910  1.0000 0.112257536
H   H86       1.0  0.33530  0.93990  0.03090  1.0000 0.112257536
H   H87       1.0  0.63750  0.35380  0.55360  1.0000 0.1176502649
H   H88       1.0  0.36250  0.85380  0.94640  1.0000 0.1176502649
H   H89       1.0  0.95910  0.17340  0.47750  1.0000 0.1176502649
H   H90       1.0  0.04090  0.67340  0.02250  1.0000 0.1176502649
H   H91       1.0  0.00240  0.13730  0.61300  1.0000 0.112257536
H   H92       1.0  0.99760  0.63730  0.88700  1.0000 0.112257536
H   H93       1.0  0.91080  0.14670  0.71950  1.0000 0.0991311154
H   H94       1.0  0.08920  0.64670  0.78050  1.0000 0.0991311154
H   H95       1.0  0.77320  0.18880  0.69250  1.0000 0.112257536
H   H96       1.0  0.22680  0.68880  0.80750  1.0000 0.112257536
H   H97       1.0  0.73280  0.14030  0.29150  1.0000 0.1176502649
H   H98       1.0  0.26720  0.64030  0.20850  1.0000 0.1176502649
H   H99       1.0  0.60170  0.08780  0.28210  1.0000 0.112257536
H   H100      1.0  0.39830  0.58780  0.21790  1.0000 0.112257536
H   H101      1.0  0.50770  0.09990  0.38590  1.0000 0.112257536
H   H102      1.0  0.49230  0.59990  0.11410  1.0000 0.112257536
H   H103      1.0  0.54440  0.16370  0.50250  1.0000 0.1176502649
H   H104      1.0  0.45560  0.66370  0.99750  1.0000 0.1176502649
H   H105      1.0  0.44980  0.30260  0.66520  1.0000 0.1317986684
H   H106      1.0  0.55020  0.80260  0.83480  1.0000 0.1317986684
H   H107      1.0  0.35310  0.30430  0.76730  1.0000 0.1176502649
H   H108      1.0  0.64690  0.80430  0.73270  1.0000 0.1176502649
H   H109      1.0  0.50270  0.19720  0.91430  1.0000 0.112257536
H   H110      1.0  0.49730  0.69720  0.58570  1.0000 0.112257536
H   H111      1.0  0.60350  0.19120  0.81550  1.0000 0.1317986684
H   H112      1.0  0.39650  0.69120  0.68450  1.0000 0.1317986684
H   H113      1.0  0.31950  0.34730  0.25620  1.0000 0.1176502649
H   H114      1.0  0.68050  0.84730  0.24380  1.0000 0.1176502649
H   H115      1.0  0.39350  0.41950  0.34300  1.0000 0.1176502649
H   H116      1.0  0.60650  0.91950  0.15700  1.0000 0.1176502649
H   H117      1.0  0.53870  0.46500  0.15420  1.0000 0.112257536
H   H118      1.0  0.46130  0.96500  0.34580  1.0000 0.112257536
H   H119      1.0  0.46400  0.39390  0.06730  1.0000 0.1176502649
H   H120      1.0  0.53600  0.89390  0.43270  1.0000 0.1176502649
H   H121      1.0  0.43260  0.51400  0.39230  1.0000 0.1176502649
H   H122      1.0  0.56740  0.01400  0.10770  1.0000 0.1176502649
H   H123      1.0  0.50730  0.59160  0.46850  1.0000 0.1176502649
H   H124      1.0  0.49270  0.09160  0.03150  1.0000 0.1176502649
H   H125      1.0  0.70870  0.56830  0.32870  1.0000 0.1176502649
H   H126      1.0  0.29130  0.06830  0.17130  1.0000 0.1176502649
H   H127      1.0  0.63530  0.48960  0.25360  1.0000 0.1176502649
H   H128      1.0  0.36470  0.98960  0.24640  1.0000 0.1176502649
H   H129      1.0  0.93490  0.90970  0.52970  1.0000 0.1176502649
H   H130      1.0  0.06510  0.40970  0.97030  1.0000 0.1176502649
H   H131      1.0  0.01430  0.98730  0.60170  1.0000 0.1176502649
H   H132      1.0  0.98570  0.48730  0.89830  1.0000 0.1176502649
H   H133      1.0  0.89100  0.95150  0.80930  1.0000 0.112257536
H   H134      1.0  0.10900  0.45150  0.69070  1.0000 0.112257536
H   H135      1.0  0.80840  0.87640  0.73570  1.0000 0.1176502649
H   H136      1.0  0.19160  0.37640  0.76430  1.0000 0.1176502649
H   H137      1.0  0.12260  0.01450  0.69890  1.0000 0.1176502649
H   H138      1.0  0.87740  0.51450  0.80110  1.0000 0.1176502649
H   H139      1.0  0.20470  0.08970  0.77230  1.0000 0.1176502649
H   H140      1.0  0.79530  0.58970  0.72770  1.0000 0.1176502649
H   H141      1.0  0.00790  0.12490  0.91370  1.0000 0.1176502649
H   H142      1.0  0.99210  0.62490  0.58630  1.0000 0.1176502649
H   H143      1.0  0.92600  0.04990  0.84000  1.0000 0.112257536
H   H144      1.0  0.07400  0.54990  0.66000  1.0000 0.112257536
C   C1        1.0  0.97260  0.80366  0.88832  1.0000 0.090253987
C   C2        1.0  0.02740  0.30366  0.61168  1.0000 0.090253987
C   C3        1.0  0.03746  0.81092  0.83565  1.0000 -0.1805283905
C   C4        1.0  0.96254  0.31092  0.66435  1.0000 -0.1805283905
C   C5        1.0  0.02520  0.78759  0.75503  1.0000 0.1846314376
C   C6        1.0  0.97480  0.28759  0.74497  1.0000 0.1846314376
C   C7        1.0  0.94791  0.75929  0.73036  1.0000 -0.1739186068
C   C8        1.0  0.05209  0.25929  0.76964  1.0000 -0.1739186068
C   C9        1.0  0.88666  0.75361  0.78728  1.0000 0.090253987
C   C10       1.0  0.11334  0.25361  0.71272  1.0000 0.090253987
C   C11       1.0  0.09119  0.78875  0.69789  1.0000 -0.1295517379
C   C12       1.0  0.90881  0.28875  0.80211  1.0000 -0.1295517379
C   C13       1.0  0.14207  0.78514  0.64656  1.0000 -0.0728602739
C   C14       1.0  0.85793  0.28514  0.85344  1.0000 -0.0728602739
C   C15       1.0  0.20058  0.77962  0.58075  1.0000 0.0774538973
C   C16       1.0  0.79942  0.27962  0.91925  1.0000 0.0774538973
C   C17       1.0  0.23224  0.71287  0.56900  1.0000 0.0179190132
C   C18       1.0  0.76776  0.21287  0.93100  1.0000 0.0179190132
C   C19       1.0  0.21380  0.66175  0.61690  1.0000 -0.1498072897
C   C20       1.0  0.78620  0.16175  0.88310  1.0000 -0.1498072897
C   C21       1.0  0.25280  0.60500  0.60280  1.0000 -0.1067933571
C   C22       1.0  0.74720  0.10500  0.89720  1.0000 -0.1067933571
C   C23       1.0  0.30860  0.59910  0.54000  1.0000 -0.0977809382
C   C24       1.0  0.69140  0.09910  0.96000  1.0000 -0.0977809382
C   C25       1.0  0.32550  0.65034  0.49030  1.0000 -0.1498072897
C   C26       1.0  0.67450  0.15034  0.00970  1.0000 -0.1498072897
C   C27       1.0  0.28789  0.70719  0.50530  1.0000 0.0179190132
C   C28       1.0  0.71211  0.20719  0.99470  1.0000 0.0179190132
C   C29       1.0  0.30429  0.76906  0.46101  1.0000 0.0774538973
C   C30       1.0  0.69571  0.26906  0.03899  1.0000 0.0774538973
C   C31       1.0  0.21546  0.79546  0.43130  1.0000 0.0179190132
C   C32       1.0  0.78454  0.29546  0.06870  1.0000 0.0179190132
C   C33       1.0  0.16039  0.80074  0.49495  1.0000 0.0179190132
C   C34       1.0  0.83961  0.30074  0.00505  1.0000 0.0179190132
C   C35       1.0  0.07887  0.82435  0.47910  1.0000 -0.1381764903
C   C36       1.0  0.92113  0.32435  0.02090  1.0000 -0.1381764903
C   C37       1.0  0.05300  0.84496  0.39860  1.0000 -0.0940510379
C   C38       1.0  0.94700  0.34496  0.10140  1.0000 -0.0977809382
C   C39       1.0  0.10760  0.83970  0.33550  1.0000 -0.0977809382
C   C40       1.0  0.89240  0.33970  0.16450  1.0000 -0.0977809382
C   C41       1.0  0.18950  0.81477  0.35130  1.0000 -0.1498072897
C   C42       1.0  0.81050  0.31477  0.14870  1.0000 -0.1498072897
C   C43       1.0  0.28331  0.81843  0.59652  1.0000 0.0179190132
C   C44       1.0  0.71669  0.31843  0.90348  1.0000 0.0179190132
C   C45       1.0  0.30520  0.85541  0.66550  1.0000 -0.1381764903
C   C46       1.0  0.69480  0.35541  0.83450  1.0000 -0.1381764903
C   C47       1.0  0.38300  0.88607  0.67110  1.0000 -0.0977809382
C   C48       1.0  0.61700  0.38607  0.82890  1.0000 -0.0977809382
C   C49       1.0  0.43860  0.87914  0.60930  1.0000 -0.0940510379
C   C50       1.0  0.56140  0.37914  0.89070  1.0000 -0.0940510379
C   C51       1.0  0.41680  0.84158  0.53960  1.0000 -0.1295517379
C   C52       1.0  0.58320  0.34158  0.96040  1.0000 -0.1295517379
C   C53       1.0  0.33864  0.81242  0.53285  1.0000 0.0179190132
C   C54       1.0  0.66136  0.31242  0.96715  1.0000 0.0179190132
C   C55       1.0  0.36135  0.76342  0.39370  1.0000 -0.0773286255
C   C56       1.0  0.63865  0.26342  0.10630  1.0000 -0.0773286255
C   C57       1.0  0.40623  0.75932  0.33710  1.0000 -0.1191426491
C   C58       1.0  0.59377  0.25932  0.16290  1.0000 -0.1191426491
C   C59       1.0  0.46401  0.75493  0.27143  1.0000 0.1863339102
C   C60       1.0  0.53599  0.25493  0.22857  1.0000 0.1863339102
C   C61       1.0  0.53841  0.72021  0.28428  1.0000 -0.1739186068
C   C62       1.0  0.46159  0.22021  0.21572  1.0000 -0.1739186068
C   C63       1.0  0.59550  0.71908  0.22265  1.0000 0.0991311154
C   C64       1.0  0.40450  0.21908  0.27735  1.0000 0.0991311154
C   C65       1.0  0.50836  0.78147  0.13749  1.0000 0.0774538973
C   C66       1.0  0.49164  0.28147  0.36251  1.0000 0.0774538973
C   C67       1.0  0.44775  0.78556  0.19605  1.0000 -0.1739186068
C   C68       1.0  0.55225  0.28556  0.30395  1.0000 -0.1739186068
C   C69       1.0  0.66146  0.68536  0.90192  1.0000 0.5784823938
C   C70       1.0  0.33854  0.18536  0.59808  1.0000 0.5784823938
C   C71       1.0  0.61507  0.63752  0.84668  1.0000 -0.0321204843
C   C72       1.0  0.38493  0.13752  0.65332  1.0000 -0.0321204843
C   C73       1.0  0.63563  0.62890  0.76463  1.0000 -0.0977809382
C   C74       1.0  0.36437  0.12890  0.73537  1.0000 -0.0977809382
C   C75       1.0  0.59137  0.58593  0.71285  1.0000 -0.1381764903
C   C76       1.0  0.40863  0.08593  0.78715  1.0000 -0.1381764903
C   C77       1.0  0.52501  0.55055  0.74168  1.0000 0.065229532
C   C78       1.0  0.47499  0.05055  0.75832  1.0000 0.065229532
C   C79       1.0  0.50583  0.55901  0.82458  1.0000 -0.1498072897
C   C80       1.0  0.49417  0.05901  0.67542  1.0000 -0.1498072897
C   C81       1.0  0.55003  0.60147  0.87632  1.0000 -0.0977809382
C   C82       1.0  0.44997  0.10147  0.62368  1.0000 -0.0977809382
C   C83       1.0  0.47574  0.50444  0.68797  1.0000 0.0774538973
C   C84       1.0  0.52426  0.00444  0.81203  1.0000 0.0774538973
C   C85       1.0  0.51168  0.47446  0.62176  1.0000 -0.1575397309
C   C86       1.0  0.48832  0.97446  0.87824  1.0000 -0.1575397309
C   C87       1.0  0.46723  0.42824  0.57641  1.0000 -0.1067933571
C   C88       1.0  0.53277  0.92824  0.92359  1.0000 -0.1067933571
C   C89       1.0  0.38541  0.41046  0.59586  1.0000 -0.0390026415
C   C90       1.0  0.61459  0.91046  0.90414  1.0000 -0.0390026415
C   C91       1.0  0.34792  0.44210  0.65887  1.0000 -0.0977809382
C   C92       1.0  0.65208  0.94210  0.84113  1.0000 -0.0977809382
C   C93       1.0  0.39185  0.48874  0.70401  1.0000 -0.1575397309
C   C94       1.0  0.60815  0.98874  0.79599  1.0000 -0.1575397309
C   C95       1.0  0.34071  0.35569  0.55361  1.0000 0.5699703438
C   C96       1.0  0.65929  0.85569  0.94639  1.0000 0.5699703438
C   C97       1.0  0.18368  0.16713  0.41947  1.0000 0.5784823938
C   C98       1.0  0.81632  0.66713  0.08053  1.0000 0.5784823938
C   C99       1.0  0.13534  0.11526  0.37442  1.0000 -0.0321204843
C   C100      1.0  0.86466  0.61526  0.12558  1.0000 -0.0321204843
C   C101      1.0  0.07437  0.08177  0.41342  1.0000 -0.0977809382
C   C102      1.0  0.92563  0.58177  0.08658  1.0000 -0.0977809382
C   C103      1.0  0.02658  0.03587  0.37030  1.0000 -0.1575397309
C   C104      1.0  0.97342  0.53587  0.12970  1.0000 -0.1575397309
C   C105      1.0  0.03778  0.02334  0.28650  1.0000 0.0774538973
C   C106      1.0  0.96222  0.52334  0.21350  1.0000 0.0774538973
C   C107      1.0  0.09994  0.05671  0.24768  1.0000 -0.1498072897
C   C108      1.0  0.90006  0.55671  0.25232  1.0000 -0.1498072897
C   C109      1.0  0.14868  0.10173  0.29129  1.0000 -0.0977809382
C   C110      1.0  0.85132  0.60173  0.20871  1.0000 -0.0977809382
C   C111      1.0  0.98481  0.97587  0.23890  1.0000 0.0774538973
C   C112      1.0  0.01519  0.47587  0.26110  1.0000 0.0774538973
C   C113      1.0  0.90130  0.96300  0.25740  1.0000 -0.1498072897
C   C114      1.0  0.09870  0.46300  0.24260  1.0000 -0.1498072897
C   C115      1.0  0.85220  0.91830  0.21360  1.0000 -0.0940510379
C   C116      1.0  0.14780  0.41830  0.28640  1.0000 -0.0940510379
C   C117      1.0  0.88501  0.88511  0.14966  1.0000 -0.0321204843
C   C118      1.0  0.11499  0.38511  0.35034  1.0000 -0.0321204843
C   C119      1.0  0.96843  0.89755  0.13018  1.0000 -0.1067933571
C   C120      1.0  0.03157  0.39755  0.36982  1.0000 -0.1067933571
C   C121      1.0  0.01715  0.94224  0.17423  1.0000 -0.1498072897
C   C122      1.0  0.98285  0.44224  0.32577  1.0000 -0.1498072897
C   C123      1.0  0.83268  0.83679  0.10066  1.0000 0.5699703438
C   C124      1.0  0.16732  0.33679  0.39934  1.0000 0.5699703438
C   C125      1.0  0.02740  0.19634  0.11168  1.0000 0.090253987
C   C126      1.0  0.97260  0.69634  0.38832  1.0000 0.090253987
C   C127      1.0  0.96254  0.18908  0.16435  1.0000 -0.1805283905
C   C128      1.0  0.03746  0.68908  0.33565  1.0000 -0.1805283905
C   C129      1.0  0.97480  0.21241  0.24497  1.0000 0.1846314376
C   C130      1.0  0.02520  0.71241  0.25503  1.0000 0.1846314376
C   C131      1.0  0.05209  0.24071  0.26964  1.0000 -0.1739186068
C   C132      1.0  0.94791  0.74071  0.23036  1.0000 -0.1739186068
C   C133      1.0  0.11334  0.24639  0.21272  1.0000 0.090253987
C   C134      1.0  0.88666  0.74639  0.28728  1.0000 0.090253987
C   C135      1.0  0.90881  0.21125  0.30211  1.0000 -0.1295517379
C   C136      1.0  0.09119  0.71125  0.19789  1.0000 -0.1295517379
C   C137      1.0  0.85793  0.21486  0.35344  1.0000 -0.0728602739
C   C138      1.0  0.14207  0.71486  0.14656  1.0000 -0.0728602739
C   C139      1.0  0.79942  0.22038  0.41925  1.0000 0.0774538973
C   C140      1.0  0.20058  0.72038  0.08075  1.0000 0.0774538973
C   C141      1.0  0.76776  0.28713  0.43100  1.0000 0.0179190132
C   C142      1.0  0.23224  0.78713  0.06900  1.0000 0.0179190132
C   C143      1.0  0.78620  0.33825  0.38310  1.0000 -0.1498072897
C   C144      1.0  0.21380  0.83825  0.11690  1.0000 -0.1498072897
C   C145      1.0  0.74720  0.39500  0.39720  1.0000 -0.1067933571
C   C146      1.0  0.25280  0.89500  0.10280  1.0000 -0.1067933571
C   C147      1.0  0.69140  0.40090  0.46000  1.0000 -0.0977809382
C   C148      1.0  0.30860  0.90090  0.04000  1.0000 -0.0977809382
C   C149      1.0  0.67450  0.34966  0.50970  1.0000 -0.1498072897
C   C150      1.0  0.32550  0.84966  0.99030  1.0000 -0.1498072897
C   C151      1.0  0.71211  0.29281  0.49470  1.0000 0.0179190132
C   C152      1.0  0.28789  0.79281  0.00530  1.0000 0.0179190132
C   C153      1.0  0.69571  0.23094  0.53899  1.0000 0.0774538973
C   C154      1.0  0.30429  0.73094  0.96101  1.0000 0.0774538973
C   C155      1.0  0.78454  0.20454  0.56870  1.0000 0.0179190132
C   C156      1.0  0.21546  0.70454  0.93130  1.0000 0.0179190132
C   C157      1.0  0.83961  0.19926  0.50505  1.0000 0.0179190132
C   C158      1.0  0.16039  0.69926  0.99495  1.0000 0.0179190132
C   C159      1.0  0.92113  0.17565  0.52090  1.0000 -0.1381764903
C   C160      1.0  0.07887  0.67565  0.97910  1.0000 -0.1381764903
C   C161      1.0  0.94700  0.15504  0.60140  1.0000 -0.0940510379
C   C162      1.0  0.05300  0.65504  0.89860  1.0000 -0.0977809382
C   C163      1.0  0.89240  0.16030  0.66450  1.0000 -0.0977809382
C   C164      1.0  0.10760  0.66030  0.83550  1.0000 -0.0977809382
C   C165      1.0  0.81050  0.18523  0.64870  1.0000 -0.1498072897
C   C166      1.0  0.18950  0.68523  0.85130  1.0000 -0.1498072897
C   C167      1.0  0.71669  0.18157  0.40348  1.0000 0.0179190132
C   C168      1.0  0.28331  0.68157  0.09652  1.0000 0.0179190132
C   C169      1.0  0.69480  0.14459  0.33450  1.0000 -0.1381764903
C   C170      1.0  0.30520  0.64459  0.16550  1.0000 -0.1381764903
C   C171      1.0  0.61700  0.11393  0.32890  1.0000 -0.0977809382
C   C172      1.0  0.38300  0.61393  0.17110  1.0000 -0.0977809382
C   C173      1.0  0.56140  0.12086  0.39070  1.0000 -0.0940510379
C   C174      1.0  0.43860  0.62086  0.10930  1.0000 -0.0940510379
C   C175      1.0  0.58320  0.15842  0.46040  1.0000 -0.1295517379
C   C176      1.0  0.41680  0.65842  0.03960  1.0000 -0.1295517379
C   C177      1.0  0.66136  0.18758  0.46715  1.0000 0.0179190132
C   C178      1.0  0.33864  0.68758  0.03285  1.0000 0.0179190132
C   C179      1.0  0.63865  0.23658  0.60630  1.0000 -0.0773286255
C   C180      1.0  0.36135  0.73658  0.89370  1.0000 -0.0773286255
C   C181      1.0  0.59377  0.24068  0.66290  1.0000 -0.1191426491
C   C182      1.0  0.40623  0.74068  0.83710  1.0000 -0.1191426491
C   C183      1.0  0.53599  0.24507  0.72857  1.0000 0.1863339102
C   C184      1.0  0.46401  0.74507  0.77143  1.0000 0.1863339102
C   C185      1.0  0.46159  0.27979  0.71572  1.0000 -0.1739186068
C   C186      1.0  0.53841  0.77979  0.78428  1.0000 -0.1739186068
C   C187      1.0  0.40450  0.28092  0.77735  1.0000 0.0991311154
C   C188      1.0  0.59550  0.78092  0.72265  1.0000 0.0991311154
C   C189      1.0  0.49164  0.21853  0.86251  1.0000 0.0774538973
C   C190      1.0  0.50836  0.71853  0.63749  1.0000 0.0774538973
C   C191      1.0  0.55225  0.21444  0.80395  1.0000 -0.1739186068
C   C192      1.0  0.44775  0.71444  0.69605  1.0000 -0.1739186068
C   C193      1.0  0.33854  0.31464  0.09808  1.0000 0.5784823938
C   C194      1.0  0.66146  0.81464  0.40192  1.0000 0.5784823938
C   C195      1.0  0.38493  0.36248  0.15332  1.0000 -0.0321204843
C   C196      1.0  0.61507  0.86248  0.34668  1.0000 -0.0321204843
C   C197      1.0  0.36437  0.37110  0.23537  1.0000 -0.0977809382
C   C198      1.0  0.63563  0.87110  0.26463  1.0000 -0.0977809382
C   C199      1.0  0.40863  0.41407  0.28715  1.0000 -0.1381764903
C   C200      1.0  0.59137  0.91407  0.21285  1.0000 -0.1381764903
C   C201      1.0  0.47499  0.44945  0.25832  1.0000 0.065229532
C   C202      1.0  0.52501  0.94945  0.24168  1.0000 0.065229532
C   C203      1.0  0.49417  0.44099  0.17542  1.0000 -0.1498072897
C   C204      1.0  0.50583  0.94099  0.32458  1.0000 -0.1498072897
C   C205      1.0  0.44997  0.39853  0.12368  1.0000 -0.0977809382
C   C206      1.0  0.55003  0.89853  0.37632  1.0000 -0.0977809382
C   C207      1.0  0.52426  0.49556  0.31203  1.0000 0.0774538973
C   C208      1.0  0.47574  0.99556  0.18797  1.0000 0.0774538973
C   C209      1.0  0.48832  0.52554  0.37824  1.0000 -0.1575397309
C   C210      1.0  0.51168  0.02554  0.12176  1.0000 -0.1575397309
C   C211      1.0  0.53277  0.57176  0.42359  1.0000 -0.1067933571
C   C212      1.0  0.46723  0.07176  0.07641  1.0000 -0.1067933571
C   C213      1.0  0.61459  0.58954  0.40414  1.0000 -0.0390026415
C   C214      1.0  0.38541  0.08954  0.09586  1.0000 -0.0390026415
C   C215      1.0  0.65208  0.55790  0.34113  1.0000 -0.0977809382
C   C216      1.0  0.34792  0.05790  0.15887  1.0000 -0.0977809382
C   C217      1.0  0.60815  0.51126  0.29599  1.0000 -0.1575397309
C   C218      1.0  0.39185  0.01126  0.20401  1.0000 -0.1575397309
C   C219      1.0  0.65929  0.64431  0.44639  1.0000 0.5699703438
C   C220      1.0  0.34071  0.14431  0.05361  1.0000 0.5699703438
C   C221      1.0  0.81632  0.83287  0.58053  1.0000 0.5784823938
C   C222      1.0  0.18368  0.33287  0.91947  1.0000 0.5784823938
C   C223      1.0  0.86466  0.88474  0.62558  1.0000 -0.0321204843
C   C224      1.0  0.13534  0.38474  0.87442  1.0000 -0.0321204843
C   C225      1.0  0.92563  0.91823  0.58658  1.0000 -0.0977809382
C   C226      1.0  0.07437  0.41823  0.91342  1.0000 -0.0977809382
C   C227      1.0  0.97342  0.96413  0.62970  1.0000 -0.1575397309
C   C228      1.0  0.02658  0.46413  0.87030  1.0000 -0.1575397309
C   C229      1.0  0.96222  0.97666  0.71350  1.0000 0.0774538973
C   C230      1.0  0.03778  0.47666  0.78650  1.0000 0.0774538973
C   C231      1.0  0.90006  0.94329  0.75232  1.0000 -0.1498072897
C   C232      1.0  0.09994  0.44329  0.74768  1.0000 -0.1498072897
C   C233      1.0  0.85132  0.89827  0.70871  1.0000 -0.0977809382
C   C234      1.0  0.14868  0.39827  0.79129  1.0000 -0.0977809382
C   C235      1.0  0.01519  0.02413  0.76110  1.0000 0.0774538973
C   C236      1.0  0.98481  0.52413  0.73890  1.0000 0.0774538973
C   C237      1.0  0.09870  0.03700  0.74260  1.0000 -0.1498072897
C   C238      1.0  0.90130  0.53700  0.75740  1.0000 -0.1498072897
C   C239      1.0  0.14780  0.08170  0.78640  1.0000 -0.0940510379
C   C240      1.0  0.85220  0.58170  0.71360  1.0000 -0.0940510379
C   C241      1.0  0.11499  0.11489  0.85034  1.0000 -0.0321204843
C   C242      1.0  0.88501  0.61489  0.64966  1.0000 -0.0321204843
C   C243      1.0  0.03157  0.10245  0.86982  1.0000 -0.1067933571
C   C244      1.0  0.96843  0.60245  0.63018  1.0000 -0.1067933571
C   C245      1.0  0.98285  0.05776  0.82577  1.0000 -0.1498072897
C   C246      1.0  0.01715  0.55776  0.67423  1.0000 -0.1498072897
C   C247      1.0  0.16732  0.16321  0.89934  1.0000 0.5699703438
C   C248      1.0  0.83268  0.66321  0.60066  1.0000 0.5699703438
N   N1        1.0  0.89871  0.77527  0.86520  1.0000 -0.2185536878
N   N2        1.0  0.10129  0.27527  0.63480  1.0000 -0.2185536878
N   N3        1.0  0.58213  0.74895  0.15004  1.0000 -0.2284708427
N   N4        1.0  0.41787  0.24895  0.34996  1.0000 -0.2284708427
N   N5        1.0  0.10129  0.22473  0.13480  1.0000 -0.2185536878
N   N6        1.0  0.89871  0.72473  0.36520  1.0000 -0.2185536878
N   N7        1.0  0.41787  0.25105  0.84996  1.0000 -0.2284708427
N   N8        1.0  0.58213  0.75105  0.65004  1.0000 -0.2284708427
O   O1        1.0  0.72282  0.71338  0.87196  1.0000 -0.5391322294
O   O2        1.0  0.27718  0.21338  0.62804  1.0000 -0.5391322294
O   O3        1.0  0.63603  0.69417  0.97352  1.0000 -0.5485506412
O   O4        1.0  0.36397  0.19417  0.52648  1.0000 -0.5485506412
O   O5        1.0  0.38087  0.32679  0.50054  1.0000 -0.5391322294
O   O6        1.0  0.61913  0.82679  0.99946  1.0000 -0.5391322294
O   O7        1.0  0.26803  0.34162  0.57603  1.0000 -0.5391322294
O   O8        1.0  0.73197  0.84162  0.92397  1.0000 -0.5391322294
O   O9        1.0  0.24294  0.19222  0.38202  1.0000 -0.5485506412
O   O10       1.0  0.75706  0.69222  0.11798  1.0000 -0.5485506412
O   O11       1.0  0.16137  0.18214  0.49029  1.0000 -0.5391322294
O   O12       1.0  0.83863  0.68214  0.00971  1.0000 -0.5391322294
O   O13       1.0  0.86871  0.81049  0.04220  1.0000 -0.5485506412
O   O14       1.0  0.13129  0.31049  0.45780  1.0000 -0.5485506412
O   O15       1.0  0.75877  0.82513  0.12102  1.0000 -0.5336082237
O   O16       1.0  0.24123  0.32513  0.37898  1.0000 -0.5336082237
O   O17       1.0  0.27718  0.28662  0.12804  1.0000 -0.5391322294
O   O18       1.0  0.72282  0.78662  0.37196  1.0000 -0.5391322294
O   O19       1.0  0.36397  0.30583  0.02648  1.0000 -0.5485506412
O   O20       1.0  0.63603  0.80583  0.47352  1.0000 -0.5485506412
O   O21       1.0  0.61913  0.67321  0.49946  1.0000 -0.5391322294
O   O22       1.0  0.38087  0.17321  0.00054  1.0000 -0.5391322294
O   O23       1.0  0.73197  0.65838  0.42397  1.0000 -0.5391322294
O   O24       1.0  0.26803  0.15838  0.07603  1.0000 -0.5391322294
O   O25       1.0  0.75706  0.80778  0.61798  1.0000 -0.5485506412
O   O26       1.0  0.24294  0.30778  0.88202  1.0000 -0.5485506412
O   O27       1.0  0.83863  0.81786  0.50971  1.0000 -0.5391322294
O   O28       1.0  0.16137  0.31786  0.99029  1.0000 -0.5391322294
O   O29       1.0  0.13129  0.18951  0.95780  1.0000 -0.5485506412
O   O30       1.0  0.86871  0.68951  0.54220  1.0000 -0.5485506412
O   O31       1.0  0.24123  0.17487  0.87898  1.0000 -0.5336082237
O   O32       1.0  0.75877  0.67487  0.62102  1.0000 -0.5336082237
