# DDEC6 charges by PACMAN v1.1 (https://github.com/mtap-research/PACMAN-charge/)
data_2016[Zn][ssa]3[ASR]1
_chemical_formula_sum              "Zn12 H60 C132 N6 O48 F6"
_cell_length_a       18.557
_cell_length_b       18.557
_cell_length_c       24.189
_cell_angle_alpha    90
_cell_angle_beta     90
_cell_angle_gamma    120

_symmetry_space_group_name_H-M    "P 1"
_symmetry_Int_Tables_number       1

loop_
  _symmetry_equiv_pos_as_xyz
  'x, y, z'

loop_
  _atom_site_type_symbol
  _atom_site_label
  _atom_site_symmetry_multiplicity
  _atom_site_fract_x
  _atom_site_fract_y
  _atom_site_fract_z
  _atom_site_occupancy
  _atom_site_charge
Zn  Zn1       1.0  0.94603  0.47302  0.44975  1.0000 0.9501468019
Zn  Zn2       1.0  0.47302  0.94603  0.94975  1.0000 0.9501468019
Zn  Zn3       1.0  0.52699  0.47302  0.44975  1.0000 0.9501468019
Zn  Zn4       1.0  0.05397  0.52699  0.94975  1.0000 0.9501468019
Zn  Zn5       1.0  0.52699  0.05397  0.44975  1.0000 0.9501468019
Zn  Zn6       1.0  0.47302  0.52699  0.94975  1.0000 0.9501468019
Zn  Zn7       1.0  0.47302  0.52699  0.55025  1.0000 0.9501468019
Zn  Zn8       1.0  0.05397  0.52699  0.55025  1.0000 0.9501468019
Zn  Zn9       1.0  0.47302  0.94603  0.55025  1.0000 0.9501468019
Zn  Zn10      1.0  0.52699  0.05397  0.05025  1.0000 0.9501468019
Zn  Zn11      1.0  0.52699  0.47302  0.05025  1.0000 0.9501468019
Zn  Zn12      1.0  0.94603  0.47302  0.05025  1.0000 0.9501468019
H   H1        1.0  0.89805  0.79610  0.66390  1.0000 0.1408189506
H   H2        1.0  0.10195  0.89805  0.16390  1.0000 0.1408189506
H   H3        1.0  0.20390  0.10195  0.66390  1.0000 0.1408189506
H   H4        1.0  0.10195  0.20390  0.16390  1.0000 0.1408189506
H   H5        1.0  0.89805  0.10195  0.66390  1.0000 0.1408189506
H   H6        1.0  0.79610  0.89805  0.16390  1.0000 0.1408189506
H   H7        1.0  0.10195  0.20390  0.33610  1.0000 0.1408189506
H   H8        1.0  0.10195  0.89805  0.33610  1.0000 0.1408189506
H   H9        1.0  0.79610  0.89805  0.33610  1.0000 0.1408189506
H   H10       1.0  0.20390  0.10195  0.83610  1.0000 0.1408189506
H   H11       1.0  0.89805  0.79610  0.83610  1.0000 0.1408189506
H   H12       1.0  0.89805  0.10195  0.83610  1.0000 0.1408189506
H   H13       1.0  0.76500  0.53000  0.51050  1.0000 0.1408189506
H   H14       1.0  0.23500  0.76500  0.01050  1.0000 0.1408189506
H   H15       1.0  0.47000  0.23500  0.51050  1.0000 0.1408189506
H   H16       1.0  0.23500  0.47000  0.01050  1.0000 0.1408189506
H   H17       1.0  0.76500  0.23500  0.51050  1.0000 0.1408189506
H   H18       1.0  0.53000  0.76500  0.01050  1.0000 0.1408189506
H   H19       1.0  0.23500  0.47000  0.48950  1.0000 0.1408189506
H   H20       1.0  0.23500  0.76500  0.48950  1.0000 0.1408189506
H   H21       1.0  0.53000  0.76500  0.48950  1.0000 0.1408189506
H   H22       1.0  0.47000  0.23500  0.98950  1.0000 0.1408189506
H   H23       1.0  0.76500  0.53000  0.98950  1.0000 0.1408189506
H   H24       1.0  0.76500  0.23500  0.98950  1.0000 0.1408189506
H   H25       1.0  0.92520  0.63320  0.63840  1.0000 0.1320315116
H   H26       1.0  0.29200  0.92520  0.13840  1.0000 0.1320315116
H   H27       1.0  0.36680  0.29200  0.63840  1.0000 0.1320315116
H   H28       1.0  0.07480  0.36680  0.13840  1.0000 0.1320315116
H   H29       1.0  0.70800  0.07480  0.63840  1.0000 0.1320315116
H   H30       1.0  0.63320  0.70800  0.13840  1.0000 0.1320315116
H   H31       1.0  0.29200  0.36680  0.36160  1.0000 0.1320315116
H   H32       1.0  0.07480  0.70800  0.36160  1.0000 0.1320315116
H   H33       1.0  0.63320  0.92520  0.36160  1.0000 0.1320315116
H   H34       1.0  0.36680  0.07480  0.86160  1.0000 0.1320315116
H   H35       1.0  0.70800  0.63320  0.86160  1.0000 0.1320315116
H   H36       1.0  0.92520  0.29200  0.86160  1.0000 0.1320315116
H   H37       1.0  0.07480  0.36680  0.36160  1.0000 0.1320315116
H   H38       1.0  0.70800  0.07480  0.86160  1.0000 0.1320315116
H   H39       1.0  0.63320  0.70800  0.36160  1.0000 0.1320315116
H   H40       1.0  0.92520  0.63320  0.86160  1.0000 0.1320315116
H   H41       1.0  0.29200  0.92520  0.36160  1.0000 0.1320315116
H   H42       1.0  0.36680  0.29200  0.86160  1.0000 0.1320315116
H   H43       1.0  0.70800  0.63320  0.63840  1.0000 0.1320315116
H   H44       1.0  0.92520  0.29200  0.63840  1.0000 0.1320315116
H   H45       1.0  0.36680  0.07480  0.63840  1.0000 0.1320315116
H   H46       1.0  0.63320  0.92520  0.13840  1.0000 0.1320315116
H   H47       1.0  0.29200  0.36680  0.13840  1.0000 0.1320315116
H   H48       1.0  0.07480  0.70800  0.13840  1.0000 0.1320315116
H   H49       1.0  0.76565  0.53130  0.78150  1.0000 0.2861695862
H   H50       1.0  0.23435  0.76565  0.28150  1.0000 0.2861695862
H   H51       1.0  0.46870  0.23435  0.78150  1.0000 0.2861695862
H   H52       1.0  0.23435  0.46870  0.28150  1.0000 0.2861695862
H   H53       1.0  0.76565  0.23435  0.78150  1.0000 0.2861695862
H   H54       1.0  0.53130  0.76565  0.28150  1.0000 0.2861695862
H   H55       1.0  0.23435  0.46870  0.21850  1.0000 0.2861695862
H   H56       1.0  0.23435  0.76565  0.21850  1.0000 0.2861695862
H   H57       1.0  0.53130  0.76565  0.21850  1.0000 0.2861695862
H   H58       1.0  0.46870  0.23435  0.71850  1.0000 0.2861695862
H   H59       1.0  0.76565  0.53130  0.71850  1.0000 0.2861695862
H   H60       1.0  0.76565  0.23435  0.71850  1.0000 0.2861695862
C   C1        1.0  0.88320  0.76640  0.69790  1.0000 -0.2032987697
C   C2        1.0  0.11680  0.88320  0.19790  1.0000 -0.2032987697
C   C3        1.0  0.23360  0.11680  0.69790  1.0000 -0.2032987697
C   C4        1.0  0.11680  0.23360  0.19790  1.0000 -0.2032987697
C   C5        1.0  0.88320  0.11680  0.69790  1.0000 -0.2032987697
C   C6        1.0  0.76640  0.88320  0.19790  1.0000 -0.2032987697
C   C7        1.0  0.11680  0.23360  0.30210  1.0000 -0.2032987697
C   C8        1.0  0.11680  0.88320  0.30210  1.0000 -0.2032987697
C   C9        1.0  0.76640  0.88320  0.30210  1.0000 -0.2032987697
C   C10       1.0  0.23360  0.11680  0.80210  1.0000 -0.2032987697
C   C11       1.0  0.88320  0.76640  0.80210  1.0000 -0.2032987697
C   C12       1.0  0.88320  0.11680  0.80210  1.0000 -0.2032987697
C   C13       1.0  0.90880  0.55020  0.54520  1.0000 0.601054383
C   C14       1.0  0.35860  0.90880  0.04520  1.0000 0.601054383
C   C15       1.0  0.44980  0.35860  0.54520  1.0000 0.601054383
C   C16       1.0  0.09120  0.44980  0.04520  1.0000 0.601054383
C   C17       1.0  0.64140  0.09120  0.54520  1.0000 0.601054383
C   C18       1.0  0.55020  0.64140  0.04520  1.0000 0.601054383
C   C19       1.0  0.35860  0.44980  0.45480  1.0000 0.601054383
C   C20       1.0  0.09120  0.64140  0.45480  1.0000 0.601054383
C   C21       1.0  0.55020  0.90880  0.45480  1.0000 0.601054383
C   C22       1.0  0.44980  0.09120  0.95480  1.0000 0.601054383
C   C23       1.0  0.64140  0.55020  0.95480  1.0000 0.601054383
C   C24       1.0  0.90880  0.35860  0.95480  1.0000 0.601054383
C   C25       1.0  0.09120  0.44980  0.45480  1.0000 0.601054383
C   C26       1.0  0.64140  0.09120  0.95480  1.0000 0.601054383
C   C27       1.0  0.55020  0.64140  0.45480  1.0000 0.601054383
C   C28       1.0  0.90880  0.55020  0.95480  1.0000 0.601054383
C   C29       1.0  0.35860  0.90880  0.45480  1.0000 0.601054383
C   C30       1.0  0.44980  0.35860  0.95480  1.0000 0.601054383
C   C31       1.0  0.64140  0.55020  0.54520  1.0000 0.601054383
C   C32       1.0  0.90880  0.35860  0.54520  1.0000 0.601054383
C   C33       1.0  0.44980  0.09120  0.54520  1.0000 0.601054383
C   C34       1.0  0.55020  0.90880  0.04520  1.0000 0.601054383
C   C35       1.0  0.35860  0.44980  0.04520  1.0000 0.601054383
C   C36       1.0  0.09120  0.64140  0.04520  1.0000 0.601054383
C   C37       1.0  0.90335  0.80670  0.75000  1.0000 0.1787345535
C   C38       1.0  0.09665  0.90335  0.25000  1.0000 0.1725912717
C   C39       1.0  0.19330  0.09665  0.75000  1.0000 0.1787345535
C   C40       1.0  0.09665  0.19330  0.25000  1.0000 0.1725912717
C   C41       1.0  0.90335  0.09665  0.75000  1.0000 0.1787345535
C   C42       1.0  0.80670  0.90335  0.25000  1.0000 0.1725912717
C   C43       1.0  0.82375  0.64750  0.75000  1.0000 0.1085884597
C   C44       1.0  0.17625  0.82375  0.25000  1.0000 0.1085884597
C   C45       1.0  0.35250  0.17625  0.75000  1.0000 0.1085884597
C   C46       1.0  0.17625  0.35250  0.25000  1.0000 0.1085884597
C   C47       1.0  0.82375  0.17625  0.75000  1.0000 0.1085884597
C   C48       1.0  0.64750  0.82375  0.25000  1.0000 0.1085884597
C   C49       1.0  0.77860  0.55720  0.54530  1.0000 -0.1063183744
C   C50       1.0  0.22140  0.77860  0.04530  1.0000 -0.1063183744
C   C51       1.0  0.44280  0.22140  0.54530  1.0000 -0.1063183744
C   C52       1.0  0.22140  0.44280  0.04530  1.0000 -0.1063183744
C   C53       1.0  0.77860  0.22140  0.54530  1.0000 -0.1063183744
C   C54       1.0  0.55720  0.77860  0.04530  1.0000 -0.1063183744
C   C55       1.0  0.22140  0.44280  0.45470  1.0000 -0.1063183744
C   C56       1.0  0.22140  0.77860  0.45470  1.0000 -0.1063183744
C   C57       1.0  0.55720  0.77860  0.45470  1.0000 -0.1063183744
C   C58       1.0  0.44280  0.22140  0.95470  1.0000 -0.1063183744
C   C59       1.0  0.77860  0.55720  0.95470  1.0000 -0.1063183744
C   C60       1.0  0.77860  0.22140  0.95470  1.0000 -0.1063183744
C   C61       1.0  0.85410  0.57740  0.57125  1.0000 -0.0468543316
C   C62       1.0  0.27670  0.85410  0.07125  1.0000 -0.0468543316
C   C63       1.0  0.42260  0.27670  0.57125  1.0000 -0.0468543316
C   C64       1.0  0.14590  0.42260  0.07125  1.0000 -0.0468543316
C   C65       1.0  0.72330  0.14590  0.57125  1.0000 -0.0468543316
C   C66       1.0  0.57740  0.72330  0.07125  1.0000 -0.0468543316
C   C67       1.0  0.27670  0.42260  0.42875  1.0000 -0.0468543316
C   C68       1.0  0.14590  0.72330  0.42875  1.0000 -0.0468543316
C   C69       1.0  0.57740  0.85410  0.42875  1.0000 -0.0468543316
C   C70       1.0  0.42260  0.14590  0.92875  1.0000 -0.0468543316
C   C71       1.0  0.72330  0.57740  0.92875  1.0000 -0.0468543316
C   C72       1.0  0.85410  0.27670  0.92875  1.0000 -0.0468543316
C   C73       1.0  0.14590  0.42260  0.42875  1.0000 -0.0468543316
C   C74       1.0  0.72330  0.14590  0.92875  1.0000 -0.0468543316
C   C75       1.0  0.57740  0.72330  0.42875  1.0000 -0.0468543316
C   C76       1.0  0.85410  0.57740  0.92875  1.0000 -0.0468543316
C   C77       1.0  0.27670  0.85410  0.42875  1.0000 -0.0468543316
C   C78       1.0  0.42260  0.27670  0.92875  1.0000 -0.0468543316
C   C79       1.0  0.72330  0.57740  0.57125  1.0000 -0.0468543316
C   C80       1.0  0.85410  0.27670  0.57125  1.0000 -0.0468543316
C   C81       1.0  0.42260  0.14590  0.57125  1.0000 -0.0468543316
C   C82       1.0  0.57740  0.85410  0.07125  1.0000 -0.0468543316
C   C83       1.0  0.27670  0.42260  0.07125  1.0000 -0.0468543316
C   C84       1.0  0.14590  0.72330  0.07125  1.0000 -0.0468543316
C   C85       1.0  0.87410  0.61940  0.62090  1.0000 -0.134791158
C   C86       1.0  0.25470  0.87410  0.12090  1.0000 -0.1368859246
C   C87       1.0  0.38060  0.25470  0.62090  1.0000 -0.1368859246
C   C88       1.0  0.12590  0.38060  0.12090  1.0000 -0.134791158
C   C89       1.0  0.74530  0.12590  0.62090  1.0000 -0.1368859246
C   C90       1.0  0.61940  0.74530  0.12090  1.0000 -0.1368859246
C   C91       1.0  0.25470  0.38060  0.37910  1.0000 -0.1368859246
C   C92       1.0  0.12590  0.74530  0.37910  1.0000 -0.1368859246
C   C93       1.0  0.61940  0.87410  0.37910  1.0000 -0.1368859246
C   C94       1.0  0.38060  0.12590  0.87910  1.0000 -0.1368859246
C   C95       1.0  0.74530  0.61940  0.87910  1.0000 -0.1368859246
C   C96       1.0  0.87410  0.25470  0.87910  1.0000 -0.1368859246
C   C97       1.0  0.12590  0.38060  0.37910  1.0000 -0.134791158
C   C98       1.0  0.74530  0.12590  0.87910  1.0000 -0.1368859246
C   C99       1.0  0.61940  0.74530  0.37910  1.0000 -0.1368859246
C   C100      1.0  0.87410  0.61940  0.87910  1.0000 -0.134791158
C   C101      1.0  0.25470  0.87410  0.37910  1.0000 -0.1368859246
C   C102      1.0  0.38060  0.25470  0.87910  1.0000 -0.1368859246
C   C103      1.0  0.74530  0.61940  0.62090  1.0000 -0.134791158
C   C104      1.0  0.87410  0.25470  0.62090  1.0000 -0.1368859246
C   C105      1.0  0.38060  0.12590  0.62090  1.0000 -0.1368859246
C   C106      1.0  0.61940  0.87410  0.12090  1.0000 -0.1368859246
C   C107      1.0  0.25470  0.38060  0.12090  1.0000 -0.1368859246
C   C108      1.0  0.12590  0.74530  0.12090  1.0000 -0.1368859246
C   C109      1.0  0.84325  0.68650  0.70020  1.0000 -0.0094288688
C   C110      1.0  0.15675  0.84325  0.20020  1.0000 -0.0094288688
C   C111      1.0  0.31350  0.15675  0.70020  1.0000 -0.0094288688
C   C112      1.0  0.15675  0.31350  0.20020  1.0000 -0.0094288688
C   C113      1.0  0.84325  0.15675  0.70020  1.0000 -0.0094288688
C   C114      1.0  0.68650  0.84325  0.20020  1.0000 -0.0094288688
C   C115      1.0  0.15675  0.31350  0.29980  1.0000 -0.0094288688
C   C116      1.0  0.15675  0.84325  0.29980  1.0000 -0.0094288688
C   C117      1.0  0.68650  0.84325  0.29980  1.0000 -0.0094288688
C   C118      1.0  0.31350  0.15675  0.79980  1.0000 -0.0094288688
C   C119      1.0  0.84325  0.68650  0.79980  1.0000 -0.0094288688
C   C120      1.0  0.84325  0.15675  0.79980  1.0000 -0.0094288688
C   C121      1.0  0.82090  0.64180  0.64570  1.0000 0.0659921692
C   C122      1.0  0.17910  0.82090  0.14570  1.0000 0.0659921692
C   C123      1.0  0.35820  0.17910  0.64570  1.0000 0.0659921692
C   C124      1.0  0.17910  0.35820  0.14570  1.0000 0.0659921692
C   C125      1.0  0.82090  0.17910  0.64570  1.0000 0.0659921692
C   C126      1.0  0.64180  0.82090  0.14570  1.0000 0.0659921692
C   C127      1.0  0.17910  0.35820  0.35430  1.0000 0.0659921692
C   C128      1.0  0.17910  0.82090  0.35430  1.0000 0.0659921692
C   C129      1.0  0.64180  0.82090  0.35430  1.0000 0.0659921692
C   C130      1.0  0.35820  0.17910  0.85430  1.0000 0.0659921692
C   C131      1.0  0.82090  0.64180  0.85430  1.0000 0.0659921692
C   C132      1.0  0.82090  0.17910  0.85430  1.0000 0.0659921692
N   N1        1.0  0.77935  0.55870  0.75000  1.0000 -0.5636842354
N   N2        1.0  0.22065  0.77935  0.25000  1.0000 -0.5636842354
N   N3        1.0  0.44130  0.22065  0.75000  1.0000 -0.5636842354
N   N4        1.0  0.22065  0.44130  0.25000  1.0000 -0.5636842354
N   N5        1.0  0.77935  0.22065  0.75000  1.0000 -0.5636842354
N   N6        1.0  0.55870  0.77935  0.25000  1.0000 -0.5668776257
O   O1        1.0  0.89041  0.51930  0.49778  1.0000 -0.534432791
O   O2        1.0  0.37111  0.89041  0.99778  1.0000 -0.5407747073
O   O3        1.0  0.48070  0.37111  0.49778  1.0000 -0.534432791
O   O4        1.0  0.10959  0.48070  0.99778  1.0000 -0.534432791
O   O5        1.0  0.62889  0.10959  0.49778  1.0000 -0.534432791
O   O6        1.0  0.51930  0.62889  0.99778  1.0000 -0.534432791
O   O7        1.0  0.37111  0.48070  0.50222  1.0000 -0.534432791
O   O8        1.0  0.10959  0.62889  0.50222  1.0000 -0.5407747073
O   O9        1.0  0.51930  0.89041  0.50222  1.0000 -0.5407747073
O   O10       1.0  0.48070  0.10959  0.00222  1.0000 -0.534432791
O   O11       1.0  0.62889  0.51930  0.00222  1.0000 -0.534432791
O   O12       1.0  0.89041  0.37111  0.00222  1.0000 -0.534432791
O   O13       1.0  0.10959  0.48070  0.50222  1.0000 -0.534432791
O   O14       1.0  0.62889  0.10959  0.00222  1.0000 -0.534432791
O   O15       1.0  0.51930  0.62889  0.50222  1.0000 -0.534432791
O   O16       1.0  0.89041  0.51930  0.00222  1.0000 -0.534432791
O   O17       1.0  0.37111  0.89041  0.50222  1.0000 -0.5407747073
O   O18       1.0  0.48070  0.37111  0.00222  1.0000 -0.534432791
O   O19       1.0  0.62889  0.51930  0.49778  1.0000 -0.534432791
O   O20       1.0  0.89041  0.37111  0.49778  1.0000 -0.534432791
O   O21       1.0  0.48070  0.10959  0.49778  1.0000 -0.534432791
O   O22       1.0  0.51930  0.89041  0.99778  1.0000 -0.5407747073
O   O23       1.0  0.37111  0.48070  0.99778  1.0000 -0.534432791
O   O24       1.0  0.10959  0.62889  0.99778  1.0000 -0.5407747073
O   O25       1.0  0.97170  0.56260  0.57241  1.0000 -0.5407747073
O   O26       1.0  0.40910  0.97170  0.07241  1.0000 -0.5407747073
O   O27       1.0  0.43740  0.40910  0.57241  1.0000 -0.5407747073
O   O28       1.0  0.02830  0.43740  0.07241  1.0000 -0.5407747073
O   O29       1.0  0.59090  0.02830  0.57241  1.0000 -0.5407747073
O   O30       1.0  0.56260  0.59090  0.07241  1.0000 -0.5407747073
O   O31       1.0  0.40910  0.43740  0.42759  1.0000 -0.5407747073
O   O32       1.0  0.02830  0.59090  0.42759  1.0000 -0.5407747073
O   O33       1.0  0.56260  0.97170  0.42759  1.0000 -0.5407747073
O   O34       1.0  0.43740  0.02830  0.92759  1.0000 -0.5407747073
O   O35       1.0  0.59090  0.56260  0.92759  1.0000 -0.5407747073
O   O36       1.0  0.97170  0.40910  0.92759  1.0000 -0.5407747073
O   O37       1.0  0.02830  0.43740  0.42759  1.0000 -0.5407747073
O   O38       1.0  0.59090  0.02830  0.92759  1.0000 -0.5407747073
O   O39       1.0  0.56260  0.59090  0.42759  1.0000 -0.5407747073
O   O40       1.0  0.97170  0.56260  0.92759  1.0000 -0.5407747073
O   O41       1.0  0.40910  0.97170  0.42759  1.0000 -0.5407747073
O   O42       1.0  0.43740  0.40910  0.92759  1.0000 -0.5407747073
O   O43       1.0  0.59090  0.56260  0.57241  1.0000 -0.5407747073
O   O44       1.0  0.97170  0.40910  0.57241  1.0000 -0.5407747073
O   O45       1.0  0.43740  0.02830  0.57241  1.0000 -0.5407747073
O   O46       1.0  0.56260  0.97170  0.07241  1.0000 -0.5407747073
O   O47       1.0  0.40910  0.43740  0.07241  1.0000 -0.5407747073
O   O48       1.0  0.02830  0.59090  0.07241  1.0000 -0.5407747073
F   F1        1.0  0.94835  0.89670  0.75000  1.0000 -0.1368859246
F   F2        1.0  0.05165  0.94835  0.25000  1.0000 -0.1466982338
F   F3        1.0  0.10330  0.05165  0.75000  1.0000 -0.1466982338
F   F4        1.0  0.05165  0.10330  0.25000  1.0000 -0.1466982338
F   F5        1.0  0.94835  0.05165  0.75000  1.0000 -0.1368859246
F   F6        1.0  0.89670  0.94835  0.25000  1.0000 -0.1368859246
