# DDEC6 charges by PACMAN v1.1 (https://github.com/mtap-research/PACMAN-charge/)
data_2016[Zn][rtl]3[ASR]4
_chemical_formula_sum              "Zn8 H60 C108 O40"
_cell_length_a       12.2813
_cell_length_b       27.3205
_cell_length_c       16.465
_cell_angle_alpha    90
_cell_angle_beta     102.863
_cell_angle_gamma    90

_symmetry_space_group_name_H-M    "P 1"
_symmetry_Int_Tables_number       1

loop_
  _symmetry_equiv_pos_as_xyz
  'x, y, z'

loop_
  _atom_site_type_symbol
  _atom_site_label
  _atom_site_symmetry_multiplicity
  _atom_site_fract_x
  _atom_site_fract_y
  _atom_site_fract_z
  _atom_site_occupancy
  _atom_site_charge
Zn  Zn1       1.0  0.94288  0.44857  0.99728  1.0000 1.0847878186
Zn  Zn2       1.0  0.05712  0.94857  0.50272  1.0000 1.0847878186
Zn  Zn3       1.0  0.05712  0.55143  0.00272  1.0000 1.0847878186
Zn  Zn4       1.0  0.94288  0.05143  0.49728  1.0000 1.0847878186
Zn  Zn5       1.0  0.76868  0.53503  0.98713  1.0000 0.9768646388
Zn  Zn6       1.0  0.23132  0.03503  0.51287  1.0000 0.9768646388
Zn  Zn7       1.0  0.23132  0.46497  0.01287  1.0000 0.9768646388
Zn  Zn8       1.0  0.76868  0.96497  0.48713  1.0000 0.9768646388
H   H1        1.0  0.52480  0.45750  0.09560  1.0000 0.1405507386
H   H2        1.0  0.47520  0.95750  0.40440  1.0000 0.1405507386
H   H3        1.0  0.47520  0.54250  0.90440  1.0000 0.1405507386
H   H4        1.0  0.52480  0.04250  0.59560  1.0000 0.1405507386
H   H5        1.0  0.43280  0.41430  0.18330  1.0000 0.1480442761
H   H6        1.0  0.56720  0.91430  0.31670  1.0000 0.1480442761
H   H7        1.0  0.56720  0.58570  0.81670  1.0000 0.1480442761
H   H8        1.0  0.43280  0.08570  0.68330  1.0000 0.1480442761
H   H9        1.0  0.69590  0.32190  0.24440  1.0000 0.1405507386
H   H10       1.0  0.30410  0.82190  0.25560  1.0000 0.1405507386
H   H11       1.0  0.30410  0.67810  0.75560  1.0000 0.1405507386
H   H12       1.0  0.69590  0.17810  0.74440  1.0000 0.1405507386
H   H13       1.0  0.78720  0.36450  0.15560  1.0000 0.111236563
H   H14       1.0  0.21280  0.86450  0.34440  1.0000 0.111236563
H   H15       1.0  0.21280  0.63550  0.84440  1.0000 0.111236563
H   H16       1.0  0.78720  0.13550  0.65560  1.0000 0.111236563
H   H17       1.0  0.60170  0.52650  0.71940  1.0000 0.1197349421
H   H18       1.0  0.39830  0.02650  0.78060  1.0000 0.1197349421
H   H19       1.0  0.39830  0.47350  0.28060  1.0000 0.1197349421
H   H20       1.0  0.60170  0.97350  0.21940  1.0000 0.1197349421
H   H21       1.0  0.55340  0.51040  0.57620  1.0000 0.130025032
H   H22       1.0  0.44660  0.01040  0.92380  1.0000 0.130025032
H   H23       1.0  0.44660  0.48960  0.42380  1.0000 0.130025032
H   H24       1.0  0.55340  0.98960  0.07620  1.0000 0.130025032
H   H25       1.0  0.81650  0.41990  0.59750  1.0000 0.1405507386
H   H26       1.0  0.18350  0.91990  0.90250  1.0000 0.1405507386
H   H27       1.0  0.18350  0.58010  0.40250  1.0000 0.1405507386
H   H28       1.0  0.81650  0.08010  0.09750  1.0000 0.1405507386
H   H29       1.0  0.86490  0.43420  0.74120  1.0000 0.1405507386
H   H30       1.0  0.13510  0.93420  0.75880  1.0000 0.1405507386
H   H31       1.0  0.13510  0.56580  0.25880  1.0000 0.1405507386
H   H32       1.0  0.86490  0.06580  0.24120  1.0000 0.1405507386
H   H33       1.0  0.44510  0.16220  0.54710  1.0000 0.1197349421
H   H34       1.0  0.55490  0.66220  0.95290  1.0000 0.1197349421
H   H35       1.0  0.55490  0.83780  0.45290  1.0000 0.1197349421
H   H36       1.0  0.44510  0.33780  0.04710  1.0000 0.1197349421
H   H37       1.0  0.51850  0.24080  0.57690  1.0000 0.1405507386
H   H38       1.0  0.48150  0.74080  0.92310  1.0000 0.1405507386
H   H39       1.0  0.48150  0.75920  0.42310  1.0000 0.1405507386
H   H40       1.0  0.51850  0.25920  0.07690  1.0000 0.1405507386
H   H41       1.0  0.22240  0.29930  0.46230  1.0000 0.1405507386
H   H42       1.0  0.77760  0.79930  0.03770  1.0000 0.1405507386
H   H43       1.0  0.77760  0.70070  0.53770  1.0000 0.1405507386
H   H44       1.0  0.22240  0.20070  0.96230  1.0000 0.1405507386
H   H45       1.0  0.15210  0.22070  0.42500  1.0000 0.111236563
H   H46       1.0  0.84790  0.72070  0.07500  1.0000 0.111236563
H   H47       1.0  0.84790  0.77930  0.57500  1.0000 0.111236563
H   H48       1.0  0.15210  0.27930  0.92500  1.0000 0.111236563
H   H49       1.0  0.61560  0.41620  0.34790  1.0000 0.1624292984
H   H50       1.0  0.38440  0.91620  0.15210  1.0000 0.1624292984
H   H51       1.0  0.38440  0.58380  0.65210  1.0000 0.1624292984
H   H52       1.0  0.61560  0.08380  0.84790  1.0000 0.1624292984
H   H53       1.0  0.54110  0.39720  0.57490  1.0000 0.1624292984
H   H54       1.0  0.45890  0.89720  0.92510  1.0000 0.1624292984
H   H55       1.0  0.45890  0.60280  0.42510  1.0000 0.1624292984
H   H56       1.0  0.54110  0.10280  0.07490  1.0000 0.1624292984
H   H57       1.0  0.42120  0.30170  0.38650  1.0000 0.166412457
H   H58       1.0  0.57880  0.80170  0.11350  1.0000 0.166412457
H   H59       1.0  0.57880  0.69830  0.61350  1.0000 0.166412457
H   H60       1.0  0.42120  0.19830  0.88650  1.0000 0.166412457
C   C1        1.0  0.72720  0.44463  0.06520  1.0000 0.6037777393
C   C2        1.0  0.27280  0.94463  0.43480  1.0000 0.6037777393
C   C3        1.0  0.27280  0.55537  0.93480  1.0000 0.6037777393
C   C4        1.0  0.72720  0.05537  0.56520  1.0000 0.6037777393
C   C5        1.0  0.66590  0.41606  0.11900  1.0000 -0.0361588689
C   C6        1.0  0.33410  0.91606  0.38100  1.0000 -0.0361588689
C   C7        1.0  0.33410  0.58394  0.88100  1.0000 -0.0361588689
C   C8        1.0  0.66590  0.08394  0.61900  1.0000 -0.0361588689
C   C9        1.0  0.56000  0.43016  0.12630  1.0000 -0.0612474949
C   C10       1.0  0.44000  0.93016  0.37370  1.0000 -0.0612474949
C   C11       1.0  0.44000  0.56984  0.87370  1.0000 -0.0612474949
C   C12       1.0  0.56000  0.06984  0.62630  1.0000 -0.0612474949
C   C13       1.0  0.50530  0.40471  0.17830  1.0000 -0.1923194108
C   C14       1.0  0.49470  0.90471  0.32170  1.0000 -0.1923194108
C   C15       1.0  0.49470  0.59529  0.82170  1.0000 -0.1923194108
C   C16       1.0  0.50530  0.09529  0.67830  1.0000 -0.1923194108
C   C17       1.0  0.55810  0.36516  0.22240  1.0000 0.2397392917
C   C18       1.0  0.44190  0.86516  0.27760  1.0000 0.2397392917
C   C19       1.0  0.44190  0.63484  0.77760  1.0000 0.2397392917
C   C20       1.0  0.55810  0.13484  0.72240  1.0000 0.2397392917
C   C21       1.0  0.66180  0.34960  0.21440  1.0000 -0.2132801459
C   C22       1.0  0.33820  0.84960  0.28560  1.0000 -0.2132801459
C   C23       1.0  0.33820  0.65040  0.78560  1.0000 -0.2132801459
C   C24       1.0  0.66180  0.15040  0.71440  1.0000 -0.2132801459
C   C25       1.0  0.71590  0.37510  0.16210  1.0000 -0.0682139828
C   C26       1.0  0.28410  0.87510  0.33790  1.0000 -0.0682139828
C   C27       1.0  0.28410  0.62490  0.83790  1.0000 -0.0682139828
C   C28       1.0  0.71590  0.12490  0.66210  1.0000 -0.0682139828
C   C29       1.0  0.76950  0.48954  0.83730  1.0000 0.5865637689
C   C30       1.0  0.23050  0.98954  0.66270  1.0000 0.5865637689
C   C31       1.0  0.23050  0.51046  0.16270  1.0000 0.5865637689
C   C32       1.0  0.76950  0.01046  0.33730  1.0000 0.5865637689
C   C33       1.0  0.73840  0.48147  0.74480  1.0000 -0.0299965413
C   C34       1.0  0.26160  0.98147  0.75520  1.0000 -0.0299965413
C   C35       1.0  0.26160  0.51853  0.25520  1.0000 -0.0299965413
C   C36       1.0  0.73840  0.01853  0.24480  1.0000 -0.0299965413
C   C37       1.0  0.64530  0.50450  0.69510  1.0000 -0.0763114289
C   C38       1.0  0.35470  0.00450  0.80490  1.0000 -0.0763114289
C   C39       1.0  0.35470  0.49550  0.30490  1.0000 -0.0763114289
C   C40       1.0  0.64530  0.99550  0.19510  1.0000 -0.0763114289
C   C41       1.0  0.61670  0.49500  0.61030  1.0000 -0.1994957398
C   C42       1.0  0.38330  0.99500  0.88970  1.0000 -0.1994957398
C   C43       1.0  0.38330  0.50500  0.38970  1.0000 -0.1994957398
C   C44       1.0  0.61670  0.00500  0.11030  1.0000 -0.1994957398
C   C45       1.0  0.68070  0.46340  0.57610  1.0000 0.2397392917
C   C46       1.0  0.31930  0.96340  0.92390  1.0000 0.2397392917
C   C47       1.0  0.31930  0.53660  0.42390  1.0000 0.2397392917
C   C48       1.0  0.68070  0.03660  0.07610  1.0000 0.2397392917
C   C49       1.0  0.77260  0.44120  0.62280  1.0000 -0.1994957398
C   C50       1.0  0.22740  0.94120  0.87720  1.0000 -0.1994957398
C   C51       1.0  0.22740  0.55880  0.37720  1.0000 -0.1994957398
C   C52       1.0  0.77260  0.05880  0.12280  1.0000 -0.1994957398
C   C53       1.0  0.80140  0.44990  0.70800  1.0000 -0.0682139828
C   C54       1.0  0.19860  0.94990  0.79200  1.0000 -0.0682139828
C   C55       1.0  0.19860  0.55010  0.29200  1.0000 -0.0682139828
C   C56       1.0  0.80140  0.05010  0.20800  1.0000 -0.0682139828
C   C57       1.0  0.24270  0.13380  0.46350  1.0000 0.5656512905
C   C58       1.0  0.75730  0.63380  0.03650  1.0000 0.5656512905
C   C59       1.0  0.75730  0.86620  0.53650  1.0000 0.5632340639
C   C60       1.0  0.24270  0.36620  0.96350  1.0000 0.5656512905
C   C61       1.0  0.29130  0.18428  0.48350  1.0000 -0.0108689588
C   C62       1.0  0.70870  0.68428  0.01650  1.0000 -0.0108689588
C   C63       1.0  0.70870  0.81572  0.51650  1.0000 -0.0108689588
C   C64       1.0  0.29130  0.31572  0.98350  1.0000 -0.0108689588
C   C65       1.0  0.40020  0.19010  0.52870  1.0000 -0.0763114289
C   C66       1.0  0.59980  0.69010  0.97130  1.0000 -0.0763114289
C   C67       1.0  0.59980  0.80990  0.47130  1.0000 -0.0763114289
C   C68       1.0  0.40020  0.30990  0.02870  1.0000 -0.0763114289
C   C69       1.0  0.44340  0.23670  0.54710  1.0000 -0.1994957398
C   C70       1.0  0.55660  0.73670  0.95290  1.0000 -0.1994957398
C   C71       1.0  0.55660  0.76330  0.45290  1.0000 -0.1994957398
C   C72       1.0  0.44340  0.26330  0.04710  1.0000 -0.1994957398
C   C73       1.0  0.37770  0.27640  0.52210  1.0000 0.2397392917
C   C74       1.0  0.62230  0.77640  0.97790  1.0000 0.2397392917
C   C75       1.0  0.62230  0.72360  0.47790  1.0000 0.2397392917
C   C76       1.0  0.37770  0.22360  0.02210  1.0000 0.2397392917
C   C77       1.0  0.26800  0.27130  0.47800  1.0000 -0.1923194108
C   C78       1.0  0.73200  0.77130  0.02200  1.0000 -0.1923194108
C   C79       1.0  0.73200  0.72870  0.52200  1.0000 -0.1923194108
C   C80       1.0  0.26800  0.22870  0.97800  1.0000 -0.1923194108
C   C81       1.0  0.22590  0.22470  0.45730  1.0000 -0.0682139828
C   C82       1.0  0.77410  0.72470  0.04270  1.0000 -0.0682139828
C   C83       1.0  0.77410  0.77530  0.54270  1.0000 -0.0682139828
C   C84       1.0  0.22590  0.27530  0.95730  1.0000 -0.0682139828
C   C85       1.0  0.51670  0.35715  0.35530  1.0000 0.2990131407
C   C86       1.0  0.48330  0.85715  0.14470  1.0000 0.2990131407
C   C87       1.0  0.48330  0.64285  0.64470  1.0000 0.2990131407
C   C88       1.0  0.51670  0.14285  0.85530  1.0000 0.2990131407
C   C89       1.0  0.57930  0.39817  0.38360  1.0000 -0.3239241512
C   C90       1.0  0.42070  0.89817  0.11640  1.0000 -0.3239241512
C   C91       1.0  0.42070  0.60183  0.61640  1.0000 -0.3239241512
C   C92       1.0  0.57930  0.10183  0.88360  1.0000 -0.3239241512
C   C93       1.0  0.58780  0.41238  0.46600  1.0000 0.2990131407
C   C94       1.0  0.41220  0.91238  0.03400  1.0000 0.2990131407
C   C95       1.0  0.41220  0.58762  0.53400  1.0000 0.2990131407
C   C96       1.0  0.58780  0.08762  0.96600  1.0000 0.2990131407
C   C97       1.0  0.53500  0.38703  0.51890  1.0000 -0.3307998748
C   C98       1.0  0.46500  0.88703  0.98110  1.0000 -0.3307998748
C   C99       1.0  0.46500  0.61297  0.48110  1.0000 -0.3307998748
C   C100      1.0  0.53500  0.11297  0.01890  1.0000 -0.3307998748
C   C101      1.0  0.47240  0.34604  0.48710  1.0000 0.2938701837
C   C102      1.0  0.52760  0.84604  0.01290  1.0000 0.2938701837
C   C103      1.0  0.52760  0.65396  0.51290  1.0000 0.2938701837
C   C104      1.0  0.47240  0.15396  0.98710  1.0000 0.2938701837
C   C105      1.0  0.46300  0.33015  0.40650  1.0000 -0.3307998748
C   C106      1.0  0.53700  0.83015  0.09350  1.0000 -0.3307998748
C   C107      1.0  0.53700  0.66985  0.59350  1.0000 -0.3307998748
C   C108      1.0  0.46300  0.16985  0.90650  1.0000 -0.3307998748
O   O1        1.0  0.81300  0.42515  0.04980  1.0000 -0.5762378843
O   O2        1.0  0.18700  0.92515  0.45020  1.0000 -0.5762378843
O   O3        1.0  0.18700  0.57485  0.95020  1.0000 -0.5762378843
O   O4        1.0  0.81300  0.07485  0.54980  1.0000 -0.5762378843
O   O5        1.0  0.68730  0.48582  0.04040  1.0000 -0.5320229353
O   O6        1.0  0.31270  0.98582  0.45960  1.0000 -0.5320229353
O   O7        1.0  0.31270  0.51418  0.95960  1.0000 -0.5320229353
O   O8        1.0  0.68730  0.01418  0.54040  1.0000 -0.5320229353
O   O9        1.0  0.50390  0.33930  0.27540  1.0000 -0.2181451199
O   O10       1.0  0.49610  0.83930  0.22460  1.0000 -0.2181451199
O   O11       1.0  0.49610  0.66070  0.72460  1.0000 -0.2181451199
O   O12       1.0  0.50390  0.16070  0.77540  1.0000 -0.2181451199
O   O13       1.0  0.84510  0.46347  0.87810  1.0000 -0.5393474222
O   O14       1.0  0.15490  0.96347  0.62190  1.0000 -0.5393474222
O   O15       1.0  0.15490  0.53653  0.12190  1.0000 -0.5393474222
O   O16       1.0  0.84510  0.03653  0.37810  1.0000 -0.5393474222
O   O17       1.0  0.71580  0.52206  0.86660  1.0000 -0.5320229353
O   O18       1.0  0.28420  0.02206  0.63340  1.0000 -0.5320229353
O   O19       1.0  0.28420  0.47794  0.13340  1.0000 -0.5320229353
O   O20       1.0  0.71580  0.97794  0.36660  1.0000 -0.5320229353
O   O21       1.0  0.65090  0.45385  0.48990  1.0000 -0.2181451199
O   O22       1.0  0.34910  0.95385  0.01010  1.0000 -0.2181451199
O   O23       1.0  0.34910  0.54615  0.51010  1.0000 -0.2181451199
O   O24       1.0  0.65090  0.04615  0.98990  1.0000 -0.2181451199
O   O25       1.0  0.15460  0.12956  0.41030  1.0000 -0.5172020168
O   O26       1.0  0.84540  0.62956  0.08970  1.0000 -0.5172020168
O   O27       1.0  0.84540  0.87044  0.58970  1.0000 -0.5172020168
O   O28       1.0  0.15460  0.37044  0.91030  1.0000 -0.5172020168
O   O29       1.0  0.29710  0.09893  0.50490  1.0000 -0.5393474222
O   O30       1.0  0.70290  0.59893  0.99510  1.0000 -0.5393474222
O   O31       1.0  0.70290  0.90107  0.49510  1.0000 -0.5393474222
O   O32       1.0  0.29710  0.40107  0.00490  1.0000 -0.5393474222
O   O33       1.0  0.42040  0.32334  0.54300  1.0000 -0.2132801459
O   O34       1.0  0.57960  0.82334  0.95700  1.0000 -0.2132801459
O   O35       1.0  0.57960  0.67666  0.45700  1.0000 -0.2132801459
O   O36       1.0  0.42040  0.17666  0.04300  1.0000 -0.2132801459
O   O37       1.0  0.92270  0.52060  0.03935  1.0000 -0.9395253331
O   O38       1.0  0.07730  0.02060  0.46065  1.0000 -0.9395253331
O   O39       1.0  0.07730  0.47940  0.96065  1.0000 -0.9395253331
O   O40       1.0  0.92270  0.97940  0.53935  1.0000 -0.9395253331
