# DDEC6 charges by PACMAN v1.1 (https://github.com/mtap-research/PACMAN-charge/)
data_2016[Co][nan]3[ASR]12
_chemical_formula_sum              "Co6 H16 C28 N12 O12"
_cell_length_a       10.9638
_cell_length_b       10.9718
_cell_length_c       10.9814
_cell_angle_alpha    83.227
_cell_angle_beta     85.937
_cell_angle_gamma    81.093

_symmetry_space_group_name_H-M    "P 1"
_symmetry_Int_Tables_number       1

loop_
  _symmetry_equiv_pos_as_xyz
  'x, y, z'

loop_
  _atom_site_type_symbol
  _atom_site_label
  _atom_site_symmetry_multiplicity
  _atom_site_fract_x
  _atom_site_fract_y
  _atom_site_fract_z
  _atom_site_occupancy
  _atom_site_charge
Co  Co1       1.0  0.08070  0.90650  0.25070  1.0000 0.9093561186
Co  Co2       1.0  0.91930  0.09350  0.74930  1.0000 0.9093561186
Co  Co3       1.0  0.85550  0.99570  0.49000  1.0000 0.8181698932
Co  Co4       1.0  0.14450  0.00430  0.51000  1.0000 0.8147290362
Co  Co5       1.0  0.96480  0.85920  0.00480  1.0000 0.8181698932
Co  Co6       1.0  0.03520  0.14080  0.99520  1.0000 0.8181698932
H   H1        1.0  0.63200  0.88060  0.01380  1.0000 0.1387997358
H   H2        1.0  0.36800  0.11940  0.98620  1.0000 0.1387997358
H   H3        1.0  0.43220  0.88960  0.10240  1.0000 0.1189648925
H   H4        1.0  0.56780  0.11040  0.89760  1.0000 0.1189648925
H   H5        1.0  0.55130  0.94780  0.42570  1.0000 0.1387997358
H   H6        1.0  0.44870  0.05220  0.57430  1.0000 0.1387997358
H   H7        1.0  0.12400  0.33060  0.49370  1.0000 0.1387997358
H   H8        1.0  0.87600  0.66940  0.50630  1.0000 0.1387997358
H   H9        1.0  0.08670  0.53930  0.41540  1.0000 0.1189648925
H   H10       1.0  0.91330  0.46070  0.58460  1.0000 0.1189648925
H   H11       1.0  0.01710  0.44150  0.08860  1.0000 0.1387997358
H   H12       1.0  0.98290  0.55850  0.91140  1.0000 0.1387997358
H   H13       1.0  0.16900  0.88800  0.03500  1.0000 0.3839604272
H   H14       1.0  0.83100  0.11200  0.96500  1.0000 0.3839604272
H   H15       1.0  0.10200  0.84100  0.47600  1.0000 0.3705517961
H   H16       1.0  0.89800  0.15900  0.52400  1.0000 0.3705517961
C   C1        1.0  0.68850  0.91600  0.29400  1.0000 0.1189648925
C   C2        1.0  0.31150  0.08400  0.70600  1.0000 0.1189648925
C   C3        1.0  0.70970  0.90300  0.17040  1.0000 0.1189648925
C   C4        1.0  0.29030  0.09700  0.82960  1.0000 0.1189648925
C   C5        1.0  0.61580  0.89200  0.09640  1.0000 -0.1763452353
C   C6        1.0  0.38420  0.10800  0.90360  1.0000 -0.1763452353
C   C7        1.0  0.49730  0.89700  0.14960  1.0000 -0.1100725388
C   C8        1.0  0.50270  0.10300  0.85040  1.0000 -0.1100725388
C   C9        1.0  0.47490  0.91300  0.27320  1.0000 -0.0119550406
C   C10       1.0  0.52510  0.08700  0.72680  1.0000 -0.0119550406
C   C11       1.0  0.56840  0.92900  0.34530  1.0000 -0.1674555129
C   C12       1.0  0.43160  0.07100  0.65470  1.0000 -0.1674555129
C   C13       1.0  0.34340  0.91900  0.33280  1.0000 0.5722157372
C   C14       1.0  0.65660  0.08100  0.66720  1.0000 0.5722157372
C   C15       1.0  0.06470  0.29500  0.21320  1.0000 0.1266469969
C   C16       1.0  0.93530  0.70500  0.78680  1.0000 0.1266469969
C   C17       1.0  0.09310  0.26500  0.33580  1.0000 0.1189648925
C   C18       1.0  0.90690  0.73500  0.66420  1.0000 0.1189648925
C   C19       1.0  0.10350  0.35300  0.41260  1.0000 -0.1674555129
C   C20       1.0  0.89650  0.64700  0.58740  1.0000 -0.1674555129
C   C21       1.0  0.08260  0.47700  0.36530  1.0000 -0.1100725388
C   C22       1.0  0.91740  0.52300  0.63470  1.0000 -0.1100725388
C   C23       1.0  0.05560  0.50900  0.24260  1.0000 -0.0186149874
C   C24       1.0  0.94440  0.49100  0.75740  1.0000 -0.0186149874
C   C25       1.0  0.04180  0.41900  0.16840  1.0000 -0.1674555129
C   C26       1.0  0.95820  0.58100  0.83160  1.0000 -0.1674555129
C   C27       1.0  0.05040  0.64200  0.18910  1.0000 0.5818403973
C   C28       1.0  0.94960  0.35800  0.81090  1.0000 0.5818403973
N   N1        1.0  0.79850  0.92700  0.33750  1.0000 -0.208773701
N   N2        1.0  0.20150  0.07300  0.66250  1.0000 -0.208773701
N   N3        1.0  0.88100  0.91700  0.24460  1.0000 -0.0186149874
N   N4        1.0  0.11900  0.08300  0.75540  1.0000 -0.0186149874
N   N5        1.0  0.83060  0.90200  0.14190  1.0000 -0.22361113
N   N6        1.0  0.16940  0.09800  0.85810  1.0000 -0.22361113
N   N7        1.0  0.06180  0.18900  0.16600  1.0000 -0.2280497836
N   N8        1.0  0.93820  0.81100  0.83400  1.0000 -0.2280497836
N   N9        1.0  0.08940  0.10000  0.25570  1.0000 -0.0299694423
N   N10       1.0  0.91060  0.90000  0.74430  1.0000 -0.0299694423
N   N11       1.0  0.11120  0.14100  0.35910  1.0000 -0.2042148845
N   N12       1.0  0.88880  0.85900  0.64090  1.0000 -0.2042148845
O   O1        1.0  0.09430  0.93700  0.06430  1.0000 -0.8438093649
O   O2        1.0  0.90570  0.06300  0.93570  1.0000 -0.8438093649
O   O3        1.0  0.04000  0.89900  0.43200  1.0000 -0.8438093649
O   O4        1.0  0.96000  0.10100  0.56800  1.0000 -0.8438093649
O   O5        1.0  0.31780  0.95100  0.43400  1.0000 -0.5198619352
O   O6        1.0  0.68220  0.04900  0.56600  1.0000 -0.5198619352
O   O7        1.0  0.27240  0.86900  0.26670  1.0000 -0.5785849677
O   O8        1.0  0.72760  0.13100  0.73330  1.0000 -0.5785849677
O   O9        1.0  0.01190  0.67600  0.08220  1.0000 -0.5729815947
O   O10       1.0  0.98810  0.32400  0.91780  1.0000 -0.5729815947
O   O11       1.0  0.08190  0.71100  0.25810  1.0000 -0.5275062011
O   O12       1.0  0.91810  0.28900  0.74190  1.0000 -0.5275062011
