# DDEC6 charges by PACMAN v1.1 (https://github.com/mtap-research/PACMAN-charge/)
data_2016[Ho][nan]3[ASR]1
_chemical_formula_sum              "Ho4 H12 C36 O24"
_cell_length_a       10.255
_cell_length_b       10.255
_cell_length_c       14.494
_cell_angle_alpha    90
_cell_angle_beta     90
_cell_angle_gamma    90

_symmetry_space_group_name_H-M    "P 1"
_symmetry_Int_Tables_number       1

loop_
  _symmetry_equiv_pos_as_xyz
  'x, y, z'

loop_
  _atom_site_type_symbol
  _atom_site_label
  _atom_site_symmetry_multiplicity
  _atom_site_fract_x
  _atom_site_fract_y
  _atom_site_fract_z
  _atom_site_occupancy
  _atom_site_charge
Ho  Ho1       1.0  0.85022  0.84983  0.70535  1.0000 2.1024578276
Ho  Ho2       1.0  0.14978  0.15017  0.20535  1.0000 2.1024578276
Ho  Ho3       1.0  0.15017  0.85022  0.45535  1.0000 2.1024578276
Ho  Ho4       1.0  0.84983  0.14978  0.95535  1.0000 2.1024578276
H   H1        1.0  0.07560  0.43870  0.45290  1.0000 0.1370492863
H   H2        1.0  0.92440  0.56130  0.95290  1.0000 0.1370492863
H   H3        1.0  0.56130  0.07560  0.20290  1.0000 0.1370492863
H   H4        1.0  0.43870  0.92440  0.70290  1.0000 0.1370492863
H   H5        1.0  0.93040  0.43930  0.71020  1.0000 0.1370492863
H   H6        1.0  0.06960  0.56070  0.21020  1.0000 0.1370492863
H   H7        1.0  0.56070  0.93040  0.46020  1.0000 0.1370492863
H   H8        1.0  0.43930  0.06960  0.96020  1.0000 0.1370492863
H   H9        1.0  0.99660  0.10100  0.57890  1.0000 0.1090398568
H   H10       1.0  0.00340  0.89900  0.07890  1.0000 0.1090398568
H   H11       1.0  0.89900  0.99660  0.32890  1.0000 0.1090398568
H   H12       1.0  0.10100  0.00340  0.82890  1.0000 0.1090398568
C   C1        1.0  0.90900  0.18310  0.74060  1.0000 0.6416190329
C   C2        1.0  0.09100  0.81690  0.24060  1.0000 0.6416190329
C   C3        1.0  0.81690  0.90900  0.49060  1.0000 0.6416190329
C   C4        1.0  0.18310  0.09100  0.99060  1.0000 0.6416190329
C   C5        1.0  0.04470  0.39360  0.50400  1.0000 -0.0941191067
C   C6        1.0  0.95530  0.60640  0.00400  1.0000 -0.0941191067
C   C7        1.0  0.60640  0.04470  0.25400  1.0000 -0.0941191067
C   C8        1.0  0.39360  0.95530  0.75400  1.0000 -0.0941191067
C   C9        1.0  0.08440  0.18270  0.41990  1.0000 0.652084327
C   C10       1.0  0.91560  0.81730  0.91990  1.0000 0.652084327
C   C11       1.0  0.81730  0.08440  0.16990  1.0000 0.652084327
C   C12       1.0  0.18270  0.91560  0.66990  1.0000 0.652084327
C   C13       1.0  0.95820  0.39380  0.65830  1.0000 -0.096512073
C   C14       1.0  0.04180  0.60620  0.15830  1.0000 -0.096512073
C   C15       1.0  0.60620  0.95820  0.40830  1.0000 -0.096512073
C   C16       1.0  0.39380  0.04180  0.90830  1.0000 -0.096512073
C   C17       1.0  0.00200  0.46180  0.58140  1.0000 -0.0379423197
C   C18       1.0  0.99800  0.53820  0.08140  1.0000 -0.0379423197
C   C19       1.0  0.53820  0.00200  0.33140  1.0000 -0.0379423197
C   C20       1.0  0.46180  0.99800  0.83140  1.0000 -0.0379423197
C   C21       1.0  0.95580  0.25950  0.65830  1.0000 -0.0379423197
C   C22       1.0  0.04420  0.74050  0.15830  1.0000 -0.0379423197
C   C23       1.0  0.74050  0.95580  0.40830  1.0000 -0.0379423197
C   C24       1.0  0.25950  0.04420  0.90830  1.0000 -0.0379423197
C   C25       1.0  0.04120  0.26040  0.50320  1.0000 -0.0379423197
C   C26       1.0  0.95880  0.73960  0.00320  1.0000 -0.0379423197
C   C27       1.0  0.73960  0.04120  0.25320  1.0000 -0.0379423197
C   C28       1.0  0.26040  0.95880  0.75320  1.0000 -0.0379423197
C   C29       1.0  0.00360  0.61050  0.58290  1.0000 0.6675953927
C   C30       1.0  0.99640  0.38950  0.08290  1.0000 0.6675953927
C   C31       1.0  0.38950  0.00360  0.33290  1.0000 0.6675953927
C   C32       1.0  0.61050  0.99640  0.83290  1.0000 0.6675953927
C   C33       1.0  0.99780  0.19170  0.57970  1.0000 -0.1096647245
C   C34       1.0  0.00220  0.80830  0.07970  1.0000 -0.1096647245
C   C35       1.0  0.80830  0.99780  0.32970  1.0000 -0.1096647245
C   C36       1.0  0.19170  0.00220  0.82970  1.0000 -0.1096647245
O   O1        1.0  0.93390  0.66430  0.64080  1.0000 -0.6637926835
O   O2        1.0  0.06610  0.33570  0.14080  1.0000 -0.670417998
O   O3        1.0  0.33570  0.93390  0.39080  1.0000 -0.670417998
O   O4        1.0  0.66430  0.06610  0.89080  1.0000 -0.6637926835
O   O5        1.0  0.09430  0.24120  0.34430  1.0000 -0.6637926835
O   O6        1.0  0.90570  0.75880  0.84430  1.0000 -0.6637926835
O   O7        1.0  0.75880  0.09430  0.09430  1.0000 -0.6637926835
O   O8        1.0  0.24120  0.90570  0.59430  1.0000 -0.6637926835
O   O9        1.0  0.07890  0.66290  0.52510  1.0000 -0.6928059471
O   O10       1.0  0.92110  0.33710  0.02510  1.0000 -0.6928059471
O   O11       1.0  0.33710  0.07890  0.27510  1.0000 -0.6928059471
O   O12       1.0  0.66290  0.92110  0.77510  1.0000 -0.6928059471
O   O13       1.0  0.10820  0.06520  0.42960  1.0000 -0.6928059471
O   O14       1.0  0.89180  0.93480  0.92960  1.0000 -0.6928059471
O   O15       1.0  0.93480  0.10820  0.17960  1.0000 -0.6928059471
O   O16       1.0  0.06520  0.89180  0.67960  1.0000 -0.6928059471
O   O17       1.0  0.90530  0.23880  0.81620  1.0000 -0.6458442298
O   O18       1.0  0.09470  0.76120  0.31620  1.0000 -0.6458442298
O   O19       1.0  0.76120  0.90530  0.56620  1.0000 -0.6458442298
O   O20       1.0  0.23880  0.09470  0.06620  1.0000 -0.6458442298
O   O21       1.0  0.87980  0.06790  0.72970  1.0000 -0.670417998
O   O22       1.0  0.12020  0.93210  0.22970  1.0000 -0.670417998
O   O23       1.0  0.93210  0.87980  0.47970  1.0000 -0.670417998
O   O24       1.0  0.06790  0.12020  0.97970  1.0000 -0.670417998
