# DDEC6 charges by PACMAN v1.1 (https://github.com/mtap-research/PACMAN-charge/)
data_2016[Sc][nan]3[ASR]7
_chemical_formula_sum              "Sc16 H96 C192 O96"
_cell_length_a       8.779
_cell_length_b       20.742
_cell_length_c       34.287
_cell_angle_alpha    90
_cell_angle_beta     90
_cell_angle_gamma    90

_symmetry_space_group_name_H-M    "P 1"
_symmetry_Int_Tables_number       1

loop_
  _symmetry_equiv_pos_as_xyz
  'x, y, z'

loop_
  _atom_site_type_symbol
  _atom_site_label
  _atom_site_symmetry_multiplicity
  _atom_site_fract_x
  _atom_site_fract_y
  _atom_site_fract_z
  _atom_site_occupancy
  _atom_site_charge
Sc  Sc1       1.0  0.37500  0.37500  0.63645  1.0000 1.8371910937
Sc  Sc2       1.0  0.62500  0.62500  0.36355  1.0000 1.8371910937
Sc  Sc3       1.0  0.37500  0.37500  0.11355  1.0000 1.8371910937
Sc  Sc4       1.0  0.62500  0.62500  0.88645  1.0000 1.8371910937
Sc  Sc5       1.0  0.37500  0.87500  0.13645  1.0000 1.8371910937
Sc  Sc6       1.0  0.62500  0.12500  0.86355  1.0000 1.8371910937
Sc  Sc7       1.0  0.37500  0.87500  0.61355  1.0000 1.8371910937
Sc  Sc8       1.0  0.62500  0.12500  0.38645  1.0000 1.8371910937
Sc  Sc9       1.0  0.87500  0.37500  0.13645  1.0000 1.8371910937
Sc  Sc10      1.0  0.12500  0.62500  0.86355  1.0000 1.8371910937
Sc  Sc11      1.0  0.87500  0.37500  0.61355  1.0000 1.8371910937
Sc  Sc12      1.0  0.12500  0.62500  0.38645  1.0000 1.8371910937
Sc  Sc13      1.0  0.87500  0.87500  0.63645  1.0000 1.8371910937
Sc  Sc14      1.0  0.12500  0.12500  0.36355  1.0000 1.8371910937
Sc  Sc15      1.0  0.87500  0.87500  0.11355  1.0000 1.8371910937
Sc  Sc16      1.0  0.12500  0.12500  0.88645  1.0000 1.8371910937
H   H1        1.0  0.97319  0.27581  0.50842  1.0000 0.11856489
H   H2        1.0  0.02681  0.72419  0.49158  1.0000 0.11856489
H   H3        1.0  0.77681  0.47419  0.50842  1.0000 0.11856489
H   H4        1.0  0.22319  0.52581  0.49158  1.0000 0.11856489
H   H5        1.0  0.77681  0.27581  0.24158  1.0000 0.11856489
H   H6        1.0  0.22319  0.72419  0.75842  1.0000 0.11856489
H   H7        1.0  0.97319  0.47419  0.24158  1.0000 0.11856489
H   H8        1.0  0.02681  0.52581  0.75842  1.0000 0.11856489
H   H9        1.0  0.97319  0.77581  0.00842  1.0000 0.11856489
H   H10       1.0  0.02681  0.22419  0.99158  1.0000 0.11856489
H   H11       1.0  0.77681  0.97419  0.00842  1.0000 0.11856489
H   H12       1.0  0.22319  0.02581  0.99158  1.0000 0.11856489
H   H13       1.0  0.77681  0.77581  0.74158  1.0000 0.11856489
H   H14       1.0  0.22319  0.22419  0.25842  1.0000 0.11856489
H   H15       1.0  0.97319  0.97419  0.74158  1.0000 0.11856489
H   H16       1.0  0.02681  0.02581  0.25842  1.0000 0.11856489
H   H17       1.0  0.47319  0.27581  0.00842  1.0000 0.11856489
H   H18       1.0  0.52681  0.72419  0.99158  1.0000 0.11856489
H   H19       1.0  0.27681  0.47419  0.00842  1.0000 0.11856489
H   H20       1.0  0.72319  0.52581  0.99158  1.0000 0.11856489
H   H21       1.0  0.27681  0.27581  0.74158  1.0000 0.11856489
H   H22       1.0  0.72319  0.72419  0.25842  1.0000 0.11856489
H   H23       1.0  0.47319  0.47419  0.74158  1.0000 0.11856489
H   H24       1.0  0.52681  0.52581  0.25842  1.0000 0.11856489
H   H25       1.0  0.47319  0.77581  0.50842  1.0000 0.11856489
H   H26       1.0  0.52681  0.22419  0.49158  1.0000 0.11856489
H   H27       1.0  0.27681  0.97419  0.50842  1.0000 0.11856489
H   H28       1.0  0.72319  0.02581  0.49158  1.0000 0.11856489
H   H29       1.0  0.27681  0.77581  0.24158  1.0000 0.11856489
H   H30       1.0  0.72319  0.22419  0.75842  1.0000 0.11856489
H   H31       1.0  0.47319  0.97419  0.24158  1.0000 0.11856489
H   H32       1.0  0.52681  0.02581  0.75842  1.0000 0.11856489
H   H33       1.0  0.06452  0.21413  0.44910  1.0000 0.1087635224
H   H34       1.0  0.93548  0.78587  0.55090  1.0000 0.1087635224
H   H35       1.0  0.68548  0.53587  0.44910  1.0000 0.1087635224
H   H36       1.0  0.31452  0.46413  0.55090  1.0000 0.1087635224
H   H37       1.0  0.68548  0.21413  0.30090  1.0000 0.1087635224
H   H38       1.0  0.31452  0.78587  0.69910  1.0000 0.1087635224
H   H39       1.0  0.06452  0.53587  0.30090  1.0000 0.1087635224
H   H40       1.0  0.93548  0.46413  0.69910  1.0000 0.1087635224
H   H41       1.0  0.06452  0.71413  0.94910  1.0000 0.1087635224
H   H42       1.0  0.93548  0.28587  0.05090  1.0000 0.1087635224
H   H43       1.0  0.68548  0.03587  0.94910  1.0000 0.1087635224
H   H44       1.0  0.31452  0.96413  0.05090  1.0000 0.1087635224
H   H45       1.0  0.68548  0.71413  0.80090  1.0000 0.1087635224
H   H46       1.0  0.31452  0.28587  0.19910  1.0000 0.1087635224
H   H47       1.0  0.06452  0.03587  0.80090  1.0000 0.1087635224
H   H48       1.0  0.93548  0.96413  0.19910  1.0000 0.1087635224
H   H49       1.0  0.56452  0.21413  0.94910  1.0000 0.1087635224
H   H50       1.0  0.43548  0.78587  0.05090  1.0000 0.1087635224
H   H51       1.0  0.18548  0.53587  0.94910  1.0000 0.1087635224
H   H52       1.0  0.81452  0.46413  0.05090  1.0000 0.1087635224
H   H53       1.0  0.18548  0.21413  0.80090  1.0000 0.1087635224
H   H54       1.0  0.81452  0.78587  0.19910  1.0000 0.1087635224
H   H55       1.0  0.56452  0.53587  0.80090  1.0000 0.1087635224
H   H56       1.0  0.43548  0.46413  0.19910  1.0000 0.1087635224
H   H57       1.0  0.56452  0.71413  0.44910  1.0000 0.1087635224
H   H58       1.0  0.43548  0.28587  0.55090  1.0000 0.1087635224
H   H59       1.0  0.18548  0.03587  0.44910  1.0000 0.1087635224
H   H60       1.0  0.81452  0.96413  0.55090  1.0000 0.1087635224
H   H61       1.0  0.18548  0.71413  0.30090  1.0000 0.1087635224
H   H62       1.0  0.81452  0.28587  0.69910  1.0000 0.1087635224
H   H63       1.0  0.56452  0.03587  0.30090  1.0000 0.1087635224
H   H64       1.0  0.43548  0.96413  0.69910  1.0000 0.1087635224
H   H65       1.0  0.37048  0.56367  0.62782  1.0000 0.11856489
H   H66       1.0  0.62952  0.43633  0.37218  1.0000 0.11856489
H   H67       1.0  0.37952  0.18633  0.62782  1.0000 0.11856489
H   H68       1.0  0.62048  0.81367  0.37218  1.0000 0.11856489
H   H69       1.0  0.37952  0.56367  0.12218  1.0000 0.11856489
H   H70       1.0  0.62048  0.43633  0.87782  1.0000 0.11856489
H   H71       1.0  0.37048  0.18633  0.12218  1.0000 0.11856489
H   H72       1.0  0.62952  0.81367  0.87782  1.0000 0.11856489
H   H73       1.0  0.37048  0.06367  0.12782  1.0000 0.11856489
H   H74       1.0  0.62952  0.93633  0.87218  1.0000 0.11856489
H   H75       1.0  0.37952  0.68633  0.12782  1.0000 0.11856489
H   H76       1.0  0.62048  0.31367  0.87218  1.0000 0.11856489
H   H77       1.0  0.37952  0.06367  0.62218  1.0000 0.11856489
H   H78       1.0  0.62048  0.93633  0.37782  1.0000 0.11856489
H   H79       1.0  0.37048  0.68633  0.62218  1.0000 0.11856489
H   H80       1.0  0.62952  0.31367  0.37782  1.0000 0.11856489
H   H81       1.0  0.87048  0.56367  0.12782  1.0000 0.11856489
H   H82       1.0  0.12952  0.43633  0.87218  1.0000 0.11856489
H   H83       1.0  0.87952  0.18633  0.12782  1.0000 0.11856489
H   H84       1.0  0.12048  0.81367  0.87218  1.0000 0.11856489
H   H85       1.0  0.87952  0.56367  0.62218  1.0000 0.11856489
H   H86       1.0  0.12048  0.43633  0.37782  1.0000 0.11856489
H   H87       1.0  0.87048  0.18633  0.62218  1.0000 0.11856489
H   H88       1.0  0.12952  0.81367  0.37782  1.0000 0.11856489
H   H89       1.0  0.87048  0.06367  0.62782  1.0000 0.11856489
H   H90       1.0  0.12952  0.93633  0.37218  1.0000 0.11856489
H   H91       1.0  0.87952  0.68633  0.62782  1.0000 0.11856489
H   H92       1.0  0.12048  0.31367  0.37218  1.0000 0.11856489
H   H93       1.0  0.87952  0.06367  0.12218  1.0000 0.11856489
H   H94       1.0  0.12048  0.93633  0.87782  1.0000 0.11856489
H   H95       1.0  0.87048  0.68633  0.12218  1.0000 0.11856489
H   H96       1.0  0.12952  0.31367  0.87782  1.0000 0.11856489
C   C1        1.0  0.14600  0.31985  0.56715  1.0000 0.6657343358
C   C2        1.0  0.85400  0.68015  0.43285  1.0000 0.6657343358
C   C3        1.0  0.60400  0.43015  0.56715  1.0000 0.6657343358
C   C4        1.0  0.39600  0.56985  0.43285  1.0000 0.6657343358
C   C5        1.0  0.60400  0.31985  0.18285  1.0000 0.6657343358
C   C6        1.0  0.39600  0.68015  0.81715  1.0000 0.6657343358
C   C7        1.0  0.14600  0.43015  0.18285  1.0000 0.6657343358
C   C8        1.0  0.85400  0.56985  0.81715  1.0000 0.6657343358
C   C9        1.0  0.14600  0.81985  0.06715  1.0000 0.6657343358
C   C10       1.0  0.85400  0.18015  0.93285  1.0000 0.6657343358
C   C11       1.0  0.60400  0.93015  0.06715  1.0000 0.6657343358
C   C12       1.0  0.39600  0.06985  0.93285  1.0000 0.6657343358
C   C13       1.0  0.60400  0.81985  0.68285  1.0000 0.6657343358
C   C14       1.0  0.39600  0.18015  0.31715  1.0000 0.6657343358
C   C15       1.0  0.14600  0.93015  0.68285  1.0000 0.6657343358
C   C16       1.0  0.85400  0.06985  0.31715  1.0000 0.6657343358
C   C17       1.0  0.64600  0.31985  0.06715  1.0000 0.6657343358
C   C18       1.0  0.35400  0.68015  0.93285  1.0000 0.6657343358
C   C19       1.0  0.10400  0.43015  0.06715  1.0000 0.6657343358
C   C20       1.0  0.89600  0.56985  0.93285  1.0000 0.6657343358
C   C21       1.0  0.10400  0.31985  0.68285  1.0000 0.6657343358
C   C22       1.0  0.89600  0.68015  0.31715  1.0000 0.6657343358
C   C23       1.0  0.64600  0.43015  0.68285  1.0000 0.6657343358
C   C24       1.0  0.35400  0.56985  0.31715  1.0000 0.6657343358
C   C25       1.0  0.64600  0.81985  0.56715  1.0000 0.6657343358
C   C26       1.0  0.35400  0.18015  0.43285  1.0000 0.6657343358
C   C27       1.0  0.10400  0.93015  0.56715  1.0000 0.6657343358
C   C28       1.0  0.89600  0.06985  0.43285  1.0000 0.6657343358
C   C29       1.0  0.10400  0.81985  0.18285  1.0000 0.6657343358
C   C30       1.0  0.89600  0.18015  0.81715  1.0000 0.6657343358
C   C31       1.0  0.64600  0.93015  0.18285  1.0000 0.6657343358
C   C32       1.0  0.35400  0.06985  0.81715  1.0000 0.6657343358
C   C33       1.0  0.20017  0.28364  0.53243  1.0000 -0.0418672663
C   C34       1.0  0.79983  0.71636  0.46757  1.0000 -0.0418672663
C   C35       1.0  0.54983  0.46636  0.53243  1.0000 -0.0418672663
C   C36       1.0  0.45017  0.53364  0.46757  1.0000 -0.0418672663
C   C37       1.0  0.54983  0.28364  0.21757  1.0000 -0.0418672663
C   C38       1.0  0.45017  0.71636  0.78243  1.0000 -0.0418672663
C   C39       1.0  0.20017  0.46636  0.21757  1.0000 -0.0418672663
C   C40       1.0  0.79983  0.53364  0.78243  1.0000 -0.0418672663
C   C41       1.0  0.20017  0.78364  0.03243  1.0000 -0.0418672663
C   C42       1.0  0.79983  0.21636  0.96757  1.0000 -0.0418672663
C   C43       1.0  0.54983  0.96636  0.03243  1.0000 -0.0418672663
C   C44       1.0  0.45017  0.03364  0.96757  1.0000 -0.0418672663
C   C45       1.0  0.54983  0.78364  0.71757  1.0000 -0.0418672663
C   C46       1.0  0.45017  0.21636  0.28243  1.0000 -0.0418672663
C   C47       1.0  0.20017  0.96636  0.71757  1.0000 -0.0418672663
C   C48       1.0  0.79983  0.03364  0.28243  1.0000 -0.0418672663
C   C49       1.0  0.70017  0.28364  0.03243  1.0000 -0.0418672663
C   C50       1.0  0.29983  0.71636  0.96757  1.0000 -0.0418672663
C   C51       1.0  0.04983  0.46636  0.03243  1.0000 -0.0418672663
C   C52       1.0  0.95017  0.53364  0.96757  1.0000 -0.0418672663
C   C53       1.0  0.04983  0.28364  0.71757  1.0000 -0.0418672663
C   C54       1.0  0.95017  0.71636  0.28243  1.0000 -0.0418672663
C   C55       1.0  0.70017  0.46636  0.71757  1.0000 -0.0418672663
C   C56       1.0  0.29983  0.53364  0.28243  1.0000 -0.0418672663
C   C57       1.0  0.70017  0.78364  0.53243  1.0000 -0.0418672663
C   C58       1.0  0.29983  0.21636  0.46757  1.0000 -0.0418672663
C   C59       1.0  0.04983  0.96636  0.53243  1.0000 -0.0418672663
C   C60       1.0  0.95017  0.03364  0.46757  1.0000 -0.0418672663
C   C61       1.0  0.04983  0.78364  0.21757  1.0000 -0.0418672663
C   C62       1.0  0.95017  0.21636  0.78243  1.0000 -0.0418672663
C   C63       1.0  0.70017  0.96636  0.21757  1.0000 -0.0418672663
C   C64       1.0  0.29983  0.03364  0.78243  1.0000 -0.0418672663
C   C65       1.0  0.09377  0.26411  0.50422  1.0000 -0.0874668532
C   C66       1.0  0.90623  0.73589  0.49578  1.0000 -0.0874668532
C   C67       1.0  0.65623  0.48589  0.50422  1.0000 -0.0874668532
C   C68       1.0  0.34377  0.51411  0.49578  1.0000 -0.0874668532
C   C69       1.0  0.65623  0.26411  0.24578  1.0000 -0.0874668532
C   C70       1.0  0.34377  0.73589  0.75422  1.0000 -0.0874668532
C   C71       1.0  0.09377  0.48589  0.24578  1.0000 -0.0874668532
C   C72       1.0  0.90623  0.51411  0.75422  1.0000 -0.0874668532
C   C73       1.0  0.09377  0.76411  0.00422  1.0000 -0.0874668532
C   C74       1.0  0.90623  0.23589  0.99578  1.0000 -0.0874668532
C   C75       1.0  0.65623  0.98589  0.00422  1.0000 -0.0874668532
C   C76       1.0  0.34377  0.01411  0.99578  1.0000 -0.0874668532
C   C77       1.0  0.65623  0.76411  0.74578  1.0000 -0.0874668532
C   C78       1.0  0.34377  0.23589  0.25422  1.0000 -0.0874668532
C   C79       1.0  0.09377  0.98589  0.74578  1.0000 -0.0874668532
C   C80       1.0  0.90623  0.01411  0.25422  1.0000 -0.0874668532
C   C81       1.0  0.59377  0.26411  0.00422  1.0000 -0.0874668532
C   C82       1.0  0.40623  0.73589  0.99578  1.0000 -0.0874668532
C   C83       1.0  0.15623  0.48589  0.00422  1.0000 -0.0874668532
C   C84       1.0  0.84377  0.51411  0.99578  1.0000 -0.0874668532
C   C85       1.0  0.15623  0.26411  0.74578  1.0000 -0.0874668532
C   C86       1.0  0.84377  0.73589  0.25422  1.0000 -0.0874668532
C   C87       1.0  0.59377  0.48589  0.74578  1.0000 -0.0874668532
C   C88       1.0  0.40623  0.51411  0.25422  1.0000 -0.0874668532
C   C89       1.0  0.59377  0.76411  0.50422  1.0000 -0.0874668532
C   C90       1.0  0.40623  0.23589  0.49578  1.0000 -0.0874668532
C   C91       1.0  0.15623  0.98589  0.50422  1.0000 -0.0874668532
C   C92       1.0  0.84377  0.01411  0.49578  1.0000 -0.0874668532
C   C93       1.0  0.15623  0.76411  0.24578  1.0000 -0.0874668532
C   C94       1.0  0.84377  0.23589  0.75422  1.0000 -0.0874668532
C   C95       1.0  0.59377  0.98589  0.24578  1.0000 -0.0874668532
C   C96       1.0  0.40623  0.01411  0.75422  1.0000 -0.0874668532
C   C97       1.0  0.14404  0.23029  0.47165  1.0000 -0.0847137831
C   C98       1.0  0.85596  0.76971  0.52835  1.0000 -0.0847137831
C   C99       1.0  0.60596  0.51971  0.47165  1.0000 -0.0847137831
C   C100      1.0  0.39404  0.48029  0.52835  1.0000 -0.0847137831
C   C101      1.0  0.60596  0.23029  0.27835  1.0000 -0.0847137831
C   C102      1.0  0.39404  0.76971  0.72165  1.0000 -0.0847137831
C   C103      1.0  0.14404  0.51971  0.27835  1.0000 -0.0847137831
C   C104      1.0  0.85596  0.48029  0.72165  1.0000 -0.0847137831
C   C105      1.0  0.14404  0.73029  0.97165  1.0000 -0.0847137831
C   C106      1.0  0.85596  0.26971  0.02835  1.0000 -0.0847137831
C   C107      1.0  0.60596  0.01971  0.97165  1.0000 -0.0847137831
C   C108      1.0  0.39404  0.98029  0.02835  1.0000 -0.0847137831
C   C109      1.0  0.60596  0.73029  0.77835  1.0000 -0.0847137831
C   C110      1.0  0.39404  0.26971  0.22165  1.0000 -0.0847137831
C   C111      1.0  0.14404  0.01971  0.77835  1.0000 -0.0847137831
C   C112      1.0  0.85596  0.98029  0.22165  1.0000 -0.0847137831
C   C113      1.0  0.64404  0.23029  0.97165  1.0000 -0.0847137831
C   C114      1.0  0.35596  0.76971  0.02835  1.0000 -0.0847137831
C   C115      1.0  0.10596  0.51971  0.97165  1.0000 -0.0847137831
C   C116      1.0  0.89404  0.48029  0.02835  1.0000 -0.0847137831
C   C117      1.0  0.10596  0.23029  0.77835  1.0000 -0.0847137831
C   C118      1.0  0.89404  0.76971  0.22165  1.0000 -0.0847137831
C   C119      1.0  0.64404  0.51971  0.77835  1.0000 -0.0847137831
C   C120      1.0  0.35596  0.48029  0.22165  1.0000 -0.0847137831
C   C121      1.0  0.64404  0.73029  0.47165  1.0000 -0.0847137831
C   C122      1.0  0.35596  0.26971  0.52835  1.0000 -0.0847137831
C   C123      1.0  0.10596  0.01971  0.47165  1.0000 -0.0847137831
C   C124      1.0  0.89404  0.98029  0.52835  1.0000 -0.0847137831
C   C125      1.0  0.10596  0.73029  0.27835  1.0000 -0.0847137831
C   C126      1.0  0.89404  0.26971  0.72165  1.0000 -0.0847137831
C   C127      1.0  0.64404  0.01971  0.27835  1.0000 -0.0847137831
C   C128      1.0  0.35596  0.98029  0.72165  1.0000 -0.0847137831
C   C129      1.0  0.12500  0.48688  0.62500  1.0000 0.6589286141
C   C130      1.0  0.87500  0.51312  0.37500  1.0000 0.6589286141
C   C131      1.0  0.62500  0.26312  0.62500  1.0000 0.6589286141
C   C132      1.0  0.37500  0.73688  0.37500  1.0000 0.6589286141
C   C133      1.0  0.62500  0.48688  0.12500  1.0000 0.6589286141
C   C134      1.0  0.37500  0.51312  0.87500  1.0000 0.6589286141
C   C135      1.0  0.12500  0.26312  0.12500  1.0000 0.6589286141
C   C136      1.0  0.87500  0.73688  0.87500  1.0000 0.6589286141
C   C137      1.0  0.12500  0.98688  0.12500  1.0000 0.6589286141
C   C138      1.0  0.87500  0.01312  0.87500  1.0000 0.6589286141
C   C139      1.0  0.62500  0.76312  0.12500  1.0000 0.6589286141
C   C140      1.0  0.37500  0.23688  0.87500  1.0000 0.6589286141
C   C141      1.0  0.62500  0.98688  0.62500  1.0000 0.6589286141
C   C142      1.0  0.37500  0.01312  0.37500  1.0000 0.6589286141
C   C143      1.0  0.12500  0.76312  0.62500  1.0000 0.6589286141
C   C144      1.0  0.87500  0.23688  0.37500  1.0000 0.6589286141
C   C145      1.0  0.12500  0.55848  0.62500  1.0000 -0.0418672663
C   C146      1.0  0.87500  0.44152  0.37500  1.0000 -0.0418672663
C   C147      1.0  0.62500  0.19152  0.62500  1.0000 -0.0418672663
C   C148      1.0  0.37500  0.80848  0.37500  1.0000 -0.0418672663
C   C149      1.0  0.62500  0.55848  0.12500  1.0000 -0.0418672663
C   C150      1.0  0.37500  0.44152  0.87500  1.0000 -0.0418672663
C   C151      1.0  0.12500  0.19152  0.12500  1.0000 -0.0418672663
C   C152      1.0  0.87500  0.80848  0.87500  1.0000 -0.0418672663
C   C153      1.0  0.12500  0.05848  0.12500  1.0000 -0.0418672663
C   C154      1.0  0.87500  0.94152  0.87500  1.0000 -0.0418672663
C   C155      1.0  0.62500  0.69152  0.12500  1.0000 -0.0418672663
C   C156      1.0  0.37500  0.30848  0.87500  1.0000 -0.0418672663
C   C157      1.0  0.62500  0.05848  0.62500  1.0000 -0.0418672663
C   C158      1.0  0.37500  0.94152  0.37500  1.0000 -0.0418672663
C   C159      1.0  0.12500  0.69152  0.62500  1.0000 -0.0418672663
C   C160      1.0  0.87500  0.30848  0.37500  1.0000 -0.0418672663
C   C161      1.0  0.26474  0.59156  0.62609  1.0000 -0.0874668532
C   C162      1.0  0.73526  0.40844  0.37391  1.0000 -0.0874668532
C   C163      1.0  0.48526  0.15844  0.62609  1.0000 -0.0874668532
C   C164      1.0  0.51474  0.84156  0.37391  1.0000 -0.0874668532
C   C165      1.0  0.48526  0.59156  0.12391  1.0000 -0.0874668532
C   C166      1.0  0.51474  0.40844  0.87609  1.0000 -0.0874668532
C   C167      1.0  0.26474  0.15844  0.12391  1.0000 -0.0874668532
C   C168      1.0  0.73526  0.84156  0.87609  1.0000 -0.0874668532
C   C169      1.0  0.26474  0.09156  0.12609  1.0000 -0.0874668532
C   C170      1.0  0.73526  0.90844  0.87391  1.0000 -0.0874668532
C   C171      1.0  0.48526  0.65844  0.12609  1.0000 -0.0874668532
C   C172      1.0  0.51474  0.34156  0.87391  1.0000 -0.0874668532
C   C173      1.0  0.48526  0.09156  0.62391  1.0000 -0.0874668532
C   C174      1.0  0.51474  0.90844  0.37609  1.0000 -0.0874668532
C   C175      1.0  0.26474  0.65844  0.62391  1.0000 -0.0874668532
C   C176      1.0  0.73526  0.34156  0.37609  1.0000 -0.0874668532
C   C177      1.0  0.76474  0.59156  0.12609  1.0000 -0.0874668532
C   C178      1.0  0.23526  0.40844  0.87391  1.0000 -0.0874668532
C   C179      1.0  0.98526  0.15844  0.12609  1.0000 -0.0874668532
C   C180      1.0  0.01474  0.84156  0.87391  1.0000 -0.0874668532
C   C181      1.0  0.98526  0.59156  0.62391  1.0000 -0.0874668532
C   C182      1.0  0.01474  0.40844  0.37609  1.0000 -0.0874668532
C   C183      1.0  0.76474  0.15844  0.62391  1.0000 -0.0874668532
C   C184      1.0  0.23526  0.84156  0.37609  1.0000 -0.0874668532
C   C185      1.0  0.76474  0.09156  0.62609  1.0000 -0.0874668532
C   C186      1.0  0.23526  0.90844  0.37391  1.0000 -0.0874668532
C   C187      1.0  0.98526  0.65844  0.62609  1.0000 -0.0874668532
C   C188      1.0  0.01474  0.34156  0.37391  1.0000 -0.0874668532
C   C189      1.0  0.98526  0.09156  0.12391  1.0000 -0.0874668532
C   C190      1.0  0.01474  0.90844  0.87609  1.0000 -0.0874668532
C   C191      1.0  0.76474  0.65844  0.12391  1.0000 -0.0874668532
C   C192      1.0  0.23526  0.34156  0.87609  1.0000 -0.0874668532
O   O1        1.0  0.24337  0.33449  0.59341  1.0000 -0.6787886023
O   O2        1.0  0.75663  0.66551  0.40659  1.0000 -0.6787886023
O   O3        1.0  0.50663  0.41551  0.59341  1.0000 -0.6787886023
O   O4        1.0  0.49337  0.58449  0.40659  1.0000 -0.6787886023
O   O5        1.0  0.50663  0.33449  0.15659  1.0000 -0.6787886023
O   O6        1.0  0.49337  0.66551  0.84341  1.0000 -0.6787886023
O   O7        1.0  0.24337  0.41551  0.15659  1.0000 -0.6787886023
O   O8        1.0  0.75663  0.58449  0.84341  1.0000 -0.6787886023
O   O9        1.0  0.24337  0.83449  0.09341  1.0000 -0.6787886023
O   O10       1.0  0.75663  0.16551  0.90659  1.0000 -0.6787886023
O   O11       1.0  0.50663  0.91551  0.09341  1.0000 -0.6787886023
O   O12       1.0  0.49337  0.08449  0.90659  1.0000 -0.6787886023
O   O13       1.0  0.50663  0.83449  0.65659  1.0000 -0.6787886023
O   O14       1.0  0.49337  0.16551  0.34341  1.0000 -0.6787886023
O   O15       1.0  0.24337  0.91551  0.65659  1.0000 -0.6787886023
O   O16       1.0  0.75663  0.08449  0.34341  1.0000 -0.6787886023
O   O17       1.0  0.74337  0.33449  0.09341  1.0000 -0.6787886023
O   O18       1.0  0.25663  0.66551  0.90659  1.0000 -0.6787886023
O   O19       1.0  0.00663  0.41551  0.09341  1.0000 -0.6787886023
O   O20       1.0  0.99337  0.58449  0.90659  1.0000 -0.6787886023
O   O21       1.0  0.00663  0.33449  0.65659  1.0000 -0.6787886023
O   O22       1.0  0.99337  0.66551  0.34341  1.0000 -0.6787886023
O   O23       1.0  0.74337  0.41551  0.65659  1.0000 -0.6787886023
O   O24       1.0  0.25663  0.58449  0.34341  1.0000 -0.6787886023
O   O25       1.0  0.74337  0.83449  0.59341  1.0000 -0.6787886023
O   O26       1.0  0.25663  0.16551  0.40659  1.0000 -0.6787886023
O   O27       1.0  0.00663  0.91551  0.59341  1.0000 -0.6787886023
O   O28       1.0  0.99337  0.08449  0.40659  1.0000 -0.6787886023
O   O29       1.0  0.00663  0.83449  0.15659  1.0000 -0.6787886023
O   O30       1.0  0.99337  0.16551  0.84341  1.0000 -0.6787886023
O   O31       1.0  0.74337  0.91551  0.15659  1.0000 -0.6787886023
O   O32       1.0  0.25663  0.08449  0.84341  1.0000 -0.6787886023
O   O33       1.0  0.00484  0.33402  0.56871  1.0000 -0.6157557331
O   O34       1.0  0.99516  0.66598  0.43129  1.0000 -0.6157557331
O   O35       1.0  0.74516  0.41598  0.56871  1.0000 -0.6157557331
O   O36       1.0  0.25484  0.58402  0.43129  1.0000 -0.6157557331
O   O37       1.0  0.74516  0.33402  0.18129  1.0000 -0.6157557331
O   O38       1.0  0.25484  0.66598  0.81871  1.0000 -0.6157557331
O   O39       1.0  0.00484  0.41598  0.18129  1.0000 -0.6157557331
O   O40       1.0  0.99516  0.58402  0.81871  1.0000 -0.6157557331
O   O41       1.0  0.00484  0.83402  0.06871  1.0000 -0.6157557331
O   O42       1.0  0.99516  0.16598  0.93129  1.0000 -0.6157557331
O   O43       1.0  0.74516  0.91598  0.06871  1.0000 -0.6157557331
O   O44       1.0  0.25484  0.08402  0.93129  1.0000 -0.6157557331
O   O45       1.0  0.74516  0.83402  0.68129  1.0000 -0.6157557331
O   O46       1.0  0.25484  0.16598  0.31871  1.0000 -0.6157557331
O   O47       1.0  0.00484  0.91598  0.68129  1.0000 -0.6157557331
O   O48       1.0  0.99516  0.08402  0.31871  1.0000 -0.6157557331
O   O49       1.0  0.50484  0.33402  0.06871  1.0000 -0.6157557331
O   O50       1.0  0.49516  0.66598  0.93129  1.0000 -0.6157557331
O   O51       1.0  0.24516  0.41598  0.06871  1.0000 -0.6157557331
O   O52       1.0  0.75484  0.58402  0.93129  1.0000 -0.6157557331
O   O53       1.0  0.24516  0.33402  0.68129  1.0000 -0.6157557331
O   O54       1.0  0.75484  0.66598  0.31871  1.0000 -0.6157557331
O   O55       1.0  0.50484  0.41598  0.68129  1.0000 -0.6157557331
O   O56       1.0  0.49516  0.58402  0.31871  1.0000 -0.6157557331
O   O57       1.0  0.50484  0.83402  0.56871  1.0000 -0.6157557331
O   O58       1.0  0.49516  0.16598  0.43129  1.0000 -0.6157557331
O   O59       1.0  0.24516  0.91598  0.56871  1.0000 -0.6157557331
O   O60       1.0  0.75484  0.08402  0.43129  1.0000 -0.6157557331
O   O61       1.0  0.24516  0.83402  0.18129  1.0000 -0.6157557331
O   O62       1.0  0.75484  0.16598  0.81871  1.0000 -0.6157557331
O   O63       1.0  0.50484  0.91598  0.18129  1.0000 -0.6157557331
O   O64       1.0  0.49516  0.08402  0.81871  1.0000 -0.6157557331
O   O65       1.0  0.24157  0.45865  0.63917  1.0000 -0.6426947676
O   O66       1.0  0.75843  0.54135  0.36083  1.0000 -0.6426947676
O   O67       1.0  0.50843  0.29135  0.63917  1.0000 -0.6426947676
O   O68       1.0  0.49157  0.70865  0.36083  1.0000 -0.6426947676
O   O69       1.0  0.50843  0.45865  0.11083  1.0000 -0.6426947676
O   O70       1.0  0.49157  0.54135  0.88917  1.0000 -0.6426947676
O   O71       1.0  0.24157  0.29135  0.11083  1.0000 -0.6426947676
O   O72       1.0  0.75843  0.70865  0.88917  1.0000 -0.6426947676
O   O73       1.0  0.24157  0.95865  0.13917  1.0000 -0.6426947676
O   O74       1.0  0.75843  0.04135  0.86083  1.0000 -0.6426947676
O   O75       1.0  0.50843  0.79135  0.13917  1.0000 -0.6426947676
O   O76       1.0  0.49157  0.20865  0.86083  1.0000 -0.6426947676
O   O77       1.0  0.50843  0.95865  0.61083  1.0000 -0.6426947676
O   O78       1.0  0.49157  0.04135  0.38917  1.0000 -0.6426947676
O   O79       1.0  0.24157  0.79135  0.61083  1.0000 -0.6426947676
O   O80       1.0  0.75843  0.20865  0.38917  1.0000 -0.6426947676
O   O81       1.0  0.74157  0.45865  0.13917  1.0000 -0.6426947676
O   O82       1.0  0.25843  0.54135  0.86083  1.0000 -0.6426947676
O   O83       1.0  0.00843  0.29135  0.13917  1.0000 -0.6426947676
O   O84       1.0  0.99157  0.70865  0.86083  1.0000 -0.6426947676
O   O85       1.0  0.00843  0.45865  0.61083  1.0000 -0.6426947676
O   O86       1.0  0.99157  0.54135  0.38917  1.0000 -0.6426947676
O   O87       1.0  0.74157  0.29135  0.61083  1.0000 -0.6426947676
O   O88       1.0  0.25843  0.70865  0.38917  1.0000 -0.6426947676
O   O89       1.0  0.74157  0.95865  0.63917  1.0000 -0.6426947676
O   O90       1.0  0.25843  0.04135  0.36083  1.0000 -0.6426947676
O   O91       1.0  0.00843  0.79135  0.63917  1.0000 -0.6426947676
O   O92       1.0  0.99157  0.20865  0.36083  1.0000 -0.6426947676
O   O93       1.0  0.00843  0.95865  0.11083  1.0000 -0.6426947676
O   O94       1.0  0.99157  0.04135  0.88917  1.0000 -0.6426947676
O   O95       1.0  0.74157  0.79135  0.11083  1.0000 -0.6426947676
O   O96       1.0  0.25843  0.20865  0.88917  1.0000 -0.6426947676
