# DDEC6 charges by PACMAN v1.1 (https://github.com/mtap-research/PACMAN-charge/)
data_2016[Mn][rtl]3[ASR]1
_chemical_formula_sum              "Mn6 H56 C96 N12 O24 F16"
_cell_length_a       10.8336
_cell_length_b       18.2867
_cell_length_c       15.1258
_cell_angle_alpha    90
_cell_angle_beta     111.208
_cell_angle_gamma    90

_symmetry_space_group_name_H-M    "P 1"
_symmetry_Int_Tables_number       1

loop_
  _symmetry_equiv_pos_as_xyz
  'x, y, z'

loop_
  _atom_site_type_symbol
  _atom_site_label
  _atom_site_symmetry_multiplicity
  _atom_site_fract_x
  _atom_site_fract_y
  _atom_site_fract_z
  _atom_site_occupancy
  _atom_site_charge
Mn  Mn1       1.0  0.82830  0.98858  0.83229  1.0000 0.9178934793
Mn  Mn2       1.0  0.17170  0.48858  0.66771  1.0000 0.9178934793
Mn  Mn3       1.0  0.17170  0.01142  0.16771  1.0000 0.9178934793
Mn  Mn4       1.0  0.82830  0.51142  0.33229  1.0000 0.9178934793
Mn  Mn5       1.0  0.50000  0.50000  0.00000  1.0000 0.9178934793
Mn  Mn6       1.0  0.50000  0.00000  0.50000  1.0000 0.9178934793
H   H1        1.0  0.95530  0.11260  0.71100  1.0000 0.1405995005
H   H2        1.0  0.04470  0.61260  0.78900  1.0000 0.1405995005
H   H3        1.0  0.04470  0.88740  0.28900  1.0000 0.1405995005
H   H4        1.0  0.95530  0.38740  0.21100  1.0000 0.1405995005
H   H5        1.0  0.90000  0.41180  0.55070  1.0000 0.1405995005
H   H6        1.0  0.10000  0.91180  0.94930  1.0000 0.1405995005
H   H7        1.0  0.10000  0.58820  0.44930  1.0000 0.1405995005
H   H8        1.0  0.90000  0.08820  0.05070  1.0000 0.1405995005
H   H9        1.0  0.78640  0.17160  0.54480  1.0000 0.1187085245
H   H10       1.0  0.21360  0.67160  0.95520  1.0000 0.1187085245
H   H11       1.0  0.21360  0.82840  0.45520  1.0000 0.1187085245
H   H12       1.0  0.78640  0.32840  0.04480  1.0000 0.1187085245
H   H13       1.0  0.85060  0.70810  0.06100  1.0000 0.1301729283
H   H14       1.0  0.14940  0.20810  0.43900  1.0000 0.1301729283
H   H15       1.0  0.14940  0.29190  0.93900  1.0000 0.1301729283
H   H16       1.0  0.85060  0.79190  0.56100  1.0000 0.1301729283
H   H17       1.0  0.13260  0.66490  0.65690  1.0000 0.1028556229
H   H18       1.0  0.86740  0.16490  0.84310  1.0000 0.1028556229
H   H19       1.0  0.86740  0.33510  0.34310  1.0000 0.1028556229
H   H20       1.0  0.13260  0.83510  0.15690  1.0000 0.1028556229
H   H21       1.0  0.58820  0.79560  0.75910  1.0000 0.1187085245
H   H22       1.0  0.41180  0.29560  0.74090  1.0000 0.1187085245
H   H23       1.0  0.41180  0.20440  0.24090  1.0000 0.1187085245
H   H24       1.0  0.58820  0.70440  0.25910  1.0000 0.1187085245
H   H25       1.0  0.24350  0.77330  0.67570  1.0000 0.1405995005
H   H26       1.0  0.75650  0.27330  0.82430  1.0000 0.1405995005
H   H27       1.0  0.75650  0.22670  0.32430  1.0000 0.1405995005
H   H28       1.0  0.24350  0.72670  0.17570  1.0000 0.1405995005
H   H29       1.0  0.37930  0.86600  0.62760  1.0000 0.1405995005
H   H30       1.0  0.62070  0.36600  0.87240  1.0000 0.1405995005
H   H31       1.0  0.62070  0.13400  0.37240  1.0000 0.1405995005
H   H32       1.0  0.37930  0.63400  0.12760  1.0000 0.1405995005
H   H33       1.0  0.20250  0.32530  0.74950  1.0000 0.1301729283
H   H34       1.0  0.79750  0.82530  0.75050  1.0000 0.1301729283
H   H35       1.0  0.79750  0.67470  0.25050  1.0000 0.1301729283
H   H36       1.0  0.20250  0.17470  0.24950  1.0000 0.1301729283
H   H37       1.0  0.88780  0.82640  0.09450  1.0000 0.1187085245
H   H38       1.0  0.11220  0.32640  0.40550  1.0000 0.1187085245
H   H39       1.0  0.11220  0.17360  0.90550  1.0000 0.1187085245
H   H40       1.0  0.88780  0.67360  0.59450  1.0000 0.1187085245
H   H41       1.0  0.41030  0.66130  0.91490  1.0000 0.1187085245
H   H42       1.0  0.58970  0.16130  0.58510  1.0000 0.1187085245
H   H43       1.0  0.58970  0.33870  0.08510  1.0000 0.1187085245
H   H44       1.0  0.41030  0.83870  0.41490  1.0000 0.1187085245
H   H45       1.0  0.67770  0.86420  0.93580  1.0000 0.1301729283
H   H46       1.0  0.32230  0.36420  0.56420  1.0000 0.1301729283
H   H47       1.0  0.32230  0.13580  0.06420  1.0000 0.1301729283
H   H48       1.0  0.67770  0.63580  0.43580  1.0000 0.1301729283
H   H49       1.0  0.76530  0.59440  0.06410  1.0000 0.1142770873
H   H50       1.0  0.23470  0.09440  0.43590  1.0000 0.1142770873
H   H51       1.0  0.23470  0.40560  0.93590  1.0000 0.1142770873
H   H52       1.0  0.76530  0.90560  0.56410  1.0000 0.1142770873
H   H53       1.0  0.45350  0.55480  0.69450  1.0000 0.1405995005
H   H54       1.0  0.54650  0.05480  0.80550  1.0000 0.1405995005
H   H55       1.0  0.54650  0.44520  0.30550  1.0000 0.1405995005
H   H56       1.0  0.45350  0.94520  0.19450  1.0000 0.1405995005
C   C1        1.0  0.79210  0.04854  0.62870  1.0000 0.6231326536
C   C2        1.0  0.20790  0.54854  0.87130  1.0000 0.6231326536
C   C3        1.0  0.20790  0.95146  0.37130  1.0000 0.6231326536
C   C4        1.0  0.79210  0.45146  0.12870  1.0000 0.6231326536
C   C5        1.0  0.89160  0.93331  0.04550  1.0000 0.6254622639
C   C6        1.0  0.10840  0.43331  0.45450  1.0000 0.6254622639
C   C7        1.0  0.10840  0.06669  0.95450  1.0000 0.6254622639
C   C8        1.0  0.89160  0.56669  0.54550  1.0000 0.6254622639
C   C9        1.0  0.55000  0.92886  0.70110  1.0000 0.6231326536
C   C10       1.0  0.45000  0.42886  0.79890  1.0000 0.6231326536
C   C11       1.0  0.45000  0.07114  0.29890  1.0000 0.6231326536
C   C12       1.0  0.55000  0.57114  0.20110  1.0000 0.6231326536
C   C13       1.0  0.42310  0.73083  0.69720  1.0000 0.0331107342
C   C14       1.0  0.57690  0.23083  0.80280  1.0000 0.0331107342
C   C15       1.0  0.57690  0.26917  0.30280  1.0000 0.0331107342
C   C16       1.0  0.42310  0.76917  0.19720  1.0000 0.0331107342
C   C17       1.0  0.93150  0.24282  0.62180  1.0000 -0.0896694784
C   C18       1.0  0.06850  0.74282  0.87820  1.0000 -0.0896694784
C   C19       1.0  0.06850  0.75718  0.37820  1.0000 -0.0896694784
C   C20       1.0  0.93150  0.25718  0.12180  1.0000 -0.0896694784
C   C21       1.0  0.88130  0.11393  0.65530  1.0000 -0.238741435
C   C22       1.0  0.11870  0.61393  0.84470  1.0000 -0.238741435
C   C23       1.0  0.11870  0.88607  0.34470  1.0000 -0.238741435
C   C24       1.0  0.88130  0.38607  0.15530  1.0000 -0.238741435
C   C25       1.0  0.94080  0.37149  0.58690  1.0000 -0.0784112019
C   C26       1.0  0.05920  0.87149  0.91310  1.0000 -0.0784112019
C   C27       1.0  0.05920  0.62851  0.41310  1.0000 -0.0784112019
C   C28       1.0  0.94080  0.12851  0.08690  1.0000 -0.0784112019
C   C29       1.0  0.05700  0.25346  0.68900  1.0000 0.2178688348
C   C30       1.0  0.94300  0.75346  0.81100  1.0000 0.2178688348
C   C31       1.0  0.94300  0.74654  0.31100  1.0000 0.2178688348
C   C32       1.0  0.05700  0.24654  0.18900  1.0000 0.2178688348
C   C33       1.0  0.85810  0.17383  0.60190  1.0000 -0.0784112019
C   C34       1.0  0.14190  0.67383  0.89810  1.0000 -0.0784112019
C   C35       1.0  0.14190  0.82617  0.39810  1.0000 -0.0784112019
C   C36       1.0  0.85810  0.32617  0.10190  1.0000 -0.0784112019
C   C37       1.0  0.67770  0.75864  0.98690  1.0000 0.0379823261
C   C38       1.0  0.32230  0.25864  0.51310  1.0000 0.0379823261
C   C39       1.0  0.32230  0.24136  0.01310  1.0000 0.0379823261
C   C40       1.0  0.67770  0.74136  0.48690  1.0000 0.0379823261
C   C41       1.0  0.76000  0.70047  0.03170  1.0000 -0.1890645374
C   C42       1.0  0.24000  0.20047  0.46830  1.0000 -0.1890645374
C   C43       1.0  0.24000  0.29953  0.96830  1.0000 -0.1890645374
C   C44       1.0  0.76000  0.79953  0.53170  1.0000 -0.1890645374
C   C45       1.0  0.54630  0.74053  0.94570  1.0000 0.1726518572
C   C46       1.0  0.45370  0.24053  0.55430  1.0000 0.1726518572
C   C47       1.0  0.45370  0.25947  0.05430  1.0000 0.1726518572
C   C48       1.0  0.54630  0.75947  0.44570  1.0000 0.1726518572
C   C49       1.0  0.22310  0.66378  0.66910  1.0000 0.0502496819
C   C50       1.0  0.77690  0.16378  0.83090  1.0000 0.0502496819
C   C51       1.0  0.77690  0.33622  0.33090  1.0000 0.0502496819
C   C52       1.0  0.22310  0.83622  0.16910  1.0000 0.0502496819
C   C53       1.0  0.50230  0.79833  0.71490  1.0000 -0.1010976172
C   C54       1.0  0.49770  0.29833  0.78510  1.0000 -0.1010976172
C   C55       1.0  0.49770  0.20167  0.28510  1.0000 -0.1010976172
C   C56       1.0  0.50230  0.70167  0.21490  1.0000 -0.1010976172
C   C57       1.0  0.28930  0.72965  0.68000  1.0000 -0.1890645374
C   C58       1.0  0.71070  0.22965  0.82000  1.0000 -0.1890645374
C   C59       1.0  0.71070  0.27035  0.32000  1.0000 -0.1890645374
C   C60       1.0  0.28930  0.77035  0.18000  1.0000 -0.1890645374
C   C61       1.0  0.46310  0.86206  0.67430  1.0000 -0.2161858975
C   C62       1.0  0.53690  0.36206  0.82570  1.0000 -0.2161858975
C   C63       1.0  0.53690  0.13794  0.32570  1.0000 -0.2161858975
C   C64       1.0  0.46310  0.63794  0.17430  1.0000 -0.2161858975
C   C65       1.0  0.11860  0.32073  0.70310  1.0000 -0.0896694784
C   C66       1.0  0.88140  0.82073  0.79690  1.0000 -0.0896694784
C   C67       1.0  0.88140  0.67927  0.29690  1.0000 -0.0896694784
C   C68       1.0  0.11860  0.17927  0.20310  1.0000 -0.0896694784
C   C69       1.0  0.87310  0.30543  0.57070  1.0000 0.2338031568
C   C70       1.0  0.12690  0.80543  0.92930  1.0000 0.2338031568
C   C71       1.0  0.12690  0.69457  0.42930  1.0000 0.2338031568
C   C72       1.0  0.87310  0.19457  0.07070  1.0000 0.2338031568
C   C73       1.0  0.83860  0.85795  0.04640  1.0000 -0.2329631968
C   C74       1.0  0.16140  0.35795  0.45360  1.0000 -0.2329631968
C   C75       1.0  0.16140  0.14205  0.95360  1.0000 -0.2329631968
C   C76       1.0  0.83860  0.64205  0.54640  1.0000 -0.2329631968
C   C77       1.0  0.49990  0.67073  0.94650  1.0000 -0.055106122
C   C78       1.0  0.50010  0.17073  0.55350  1.0000 -0.0548088252
C   C79       1.0  0.50010  0.32927  0.05350  1.0000 -0.055106122
C   C80       1.0  0.49990  0.82927  0.44650  1.0000 -0.055106122
C   C81       1.0  0.72750  0.83308  0.98420  1.0000 -0.0896694784
C   C82       1.0  0.27250  0.33308  0.51580  1.0000 -0.0896694784
C   C83       1.0  0.27250  0.16692  0.01580  1.0000 -0.0896694784
C   C84       1.0  0.72750  0.66692  0.48420  1.0000 -0.0896694784
C   C85       1.0  0.70780  0.63175  0.03270  1.0000 0.0741327667
C   C86       1.0  0.29220  0.13175  0.46730  1.0000 0.0741327667
C   C87       1.0  0.29220  0.36825  0.96730  1.0000 0.0741327667
C   C88       1.0  0.70780  0.86825  0.53270  1.0000 0.0741327667
C   C89       1.0  0.40980  0.59911  0.69080  1.0000 -0.0367037904
C   C90       1.0  0.59020  0.09911  0.80920  1.0000 -0.0367037904
C   C91       1.0  0.59020  0.40089  0.30920  1.0000 -0.0367037904
C   C92       1.0  0.40980  0.90089  0.19080  1.0000 -0.0367037904
C   C93       1.0  0.48060  0.66306  0.70180  1.0000 0.1857213826
C   C94       1.0  0.51940  0.16306  0.79820  1.0000 0.1857213826
C   C95       1.0  0.51940  0.33694  0.29820  1.0000 0.1857213826
C   C96       1.0  0.48060  0.83694  0.20180  1.0000 0.1857213826
N   N1        1.0  0.28070  0.59874  0.67504  1.0000 -0.1966598927
N   N2        1.0  0.71930  0.09874  0.82496  1.0000 -0.1966598927
N   N3        1.0  0.71930  0.40126  0.32496  1.0000 -0.1966598927
N   N4        1.0  0.28070  0.90126  0.17504  1.0000 -0.1966598927
N   N5        1.0  0.06160  0.37960  0.65201  1.0000 -0.1592710837
N   N6        1.0  0.93840  0.87960  0.84799  1.0000 -0.1592710837
N   N7        1.0  0.93840  0.62040  0.34799  1.0000 -0.1592710837
N   N8        1.0  0.06160  0.12040  0.15201  1.0000 -0.1592710837
N   N9        1.0  0.57970  0.61600  0.99135  1.0000 -0.1890645374
N   N10       1.0  0.42030  0.11600  0.50865  1.0000 -0.1890645374
N   N11       1.0  0.42030  0.38400  0.00865  1.0000 -0.1890645374
N   N12       1.0  0.57970  0.88400  0.49135  1.0000 -0.1890645374
O   O1        1.0  0.83490  0.97466  0.97599  1.0000 -0.5518309175
O   O2        1.0  0.16510  0.47466  0.52401  1.0000 -0.5518309175
O   O3        1.0  0.16510  0.02534  0.02401  1.0000 -0.5518309175
O   O4        1.0  0.83490  0.52534  0.47599  1.0000 -0.5518309175
O   O5        1.0  0.51810  0.98222  0.64411  1.0000 -0.5587232112
O   O6        1.0  0.48190  0.48222  0.85589  1.0000 -0.5587232112
O   O7        1.0  0.48190  0.01778  0.35589  1.0000 -0.5587232112
O   O8        1.0  0.51810  0.51778  0.14411  1.0000 -0.5587232112
O   O9        1.0  0.81960  0.99722  0.68856  1.0000 -0.5587232112
O   O10       1.0  0.18040  0.49722  0.81144  1.0000 -0.5587232112
O   O11       1.0  0.18040  0.00278  0.31144  1.0000 -0.5587232112
O   O12       1.0  0.81960  0.50278  0.18856  1.0000 -0.5587232112
O   O13       1.0  0.98920  0.95002  0.11742  1.0000 -0.5587232112
O   O14       1.0  0.01080  0.45002  0.38258  1.0000 -0.5587232112
O   O15       1.0  0.01080  0.04998  0.88258  1.0000 -0.5587232112
O   O16       1.0  0.98920  0.54998  0.61742  1.0000 -0.5587232112
O   O17       1.0  0.64510  0.92752  0.77861  1.0000 -0.5518309175
O   O18       1.0  0.35490  0.42752  0.72139  1.0000 -0.5518309175
O   O19       1.0  0.35490  0.07248  0.22139  1.0000 -0.5518309175
O   O20       1.0  0.64510  0.57248  0.27861  1.0000 -0.5518309175
O   O21       1.0  0.69840  0.04864  0.54987  1.0000 -0.5587232112
O   O22       1.0  0.30160  0.54864  0.95013  1.0000 -0.5587232112
O   O23       1.0  0.30160  0.95136  0.45013  1.0000 -0.5587232112
O   O24       1.0  0.69840  0.45136  0.04987  1.0000 -0.5587232112
F   F1        1.0  0.45650  0.79303  0.90215  1.0000 -0.1200666141
F   F2        1.0  0.54350  0.29303  0.59785  1.0000 -0.1200666141
F   F3        1.0  0.54350  0.20697  0.09785  1.0000 -0.1200666141
F   F4        1.0  0.45650  0.70697  0.40215  1.0000 -0.1200666141
F   F5        1.0  0.12240  0.19891  0.74430  1.0000 -0.1111379414
F   F6        1.0  0.87760  0.69891  0.75570  1.0000 -0.1111379414
F   F7        1.0  0.87760  0.80109  0.25570  1.0000 -0.1111379414
F   F8        1.0  0.12240  0.30109  0.24430  1.0000 -0.1111379414
F   F9        1.0  0.61070  0.65900  0.71740  1.0000 -0.1200666141
F   F10       1.0  0.38930  0.15900  0.78260  1.0000 -0.1200666141
F   F11       1.0  0.38930  0.34100  0.28260  1.0000 -0.1200666141
F   F12       1.0  0.61070  0.84100  0.21740  1.0000 -0.1200666141
F   F13       1.0  0.74870  0.30500  0.51730  1.0000 -0.1200666141
F   F14       1.0  0.25130  0.80500  0.98270  1.0000 -0.1200666141
F   F15       1.0  0.25130  0.69500  0.48270  1.0000 -0.1200666141
F   F16       1.0  0.74870  0.19500  0.01730  1.0000 -0.1200666141
