# DDEC6 charges by PACMAN v1.1 (https://github.com/mtap-research/PACMAN-charge/)
data_2016[Zn][pcu]3[ASR]20
_chemical_formula_sum              "Zn4 H40 C44 N4 O16"
_cell_length_a       13.966
_cell_length_b       16.692
_cell_length_c       9.6406
_cell_angle_alpha    90
_cell_angle_beta     90
_cell_angle_gamma    90

_symmetry_space_group_name_H-M    "P 1"
_symmetry_Int_Tables_number       1

loop_
  _symmetry_equiv_pos_as_xyz
  'x, y, z'

loop_
  _atom_site_type_symbol
  _atom_site_label
  _atom_site_symmetry_multiplicity
  _atom_site_fract_x
  _atom_site_fract_y
  _atom_site_fract_z
  _atom_site_occupancy
  _atom_site_charge
Zn  Zn1       1.0  0.00000  0.99997  0.35037  1.0000 0.8231273929
Zn  Zn2       1.0  0.50000  0.50003  0.35037  1.0000 0.8231273929
Zn  Zn3       1.0  0.00000  0.99997  0.64963  1.0000 0.8231273929
Zn  Zn4       1.0  0.50000  0.50003  0.64963  1.0000 0.8231273929
H   H1        1.0  0.06385  0.11461  0.12298  1.0000 0.1001902047
H   H2        1.0  0.19517  0.18975  0.27598  1.0000 0.1001902047
H   H3        1.0  0.58689  0.60257  0.12274  1.0000 0.1001902047
H   H4        1.0  0.65014  0.51008  0.12287  1.0000 0.1001902047
H   H5        1.0  0.69519  0.68975  0.27599  1.0000 0.1001902047
H   H6        1.0  0.91311  0.89743  0.12274  1.0000 0.1001902047
H   H7        1.0  0.84986  0.98992  0.12287  1.0000 0.1001902047
H   H8        1.0  0.80481  0.81025  0.27599  1.0000 0.1001902047
H   H9        1.0  0.43615  0.38539  0.12298  1.0000 0.1001902047
H   H10       1.0  0.30483  0.31025  0.27598  1.0000 0.1001902047
H   H11       1.0  0.93615  0.11461  0.87702  1.0000 0.1001902047
H   H12       1.0  0.80483  0.18975  0.72402  1.0000 0.1001902047
H   H13       1.0  0.41311  0.60257  0.87726  1.0000 0.1001902047
H   H14       1.0  0.34986  0.51008  0.87713  1.0000 0.1001902047
H   H15       1.0  0.30481  0.68975  0.72401  1.0000 0.1001902047
H   H16       1.0  0.08689  0.89743  0.87726  1.0000 0.1001902047
H   H17       1.0  0.15014  0.98992  0.87713  1.0000 0.1001902047
H   H18       1.0  0.19519  0.81025  0.72401  1.0000 0.1001902047
H   H19       1.0  0.56385  0.38539  0.87702  1.0000 0.1001902047
H   H20       1.0  0.69517  0.31025  0.72402  1.0000 0.1001902047
H   H21       1.0  0.91311  0.89743  0.87726  1.0000 0.1001902047
H   H22       1.0  0.84986  0.98992  0.87713  1.0000 0.1001902047
H   H23       1.0  0.80481  0.81025  0.72401  1.0000 0.1001902047
H   H24       1.0  0.43615  0.38539  0.87702  1.0000 0.1001902047
H   H25       1.0  0.30483  0.31025  0.72402  1.0000 0.1001902047
H   H26       1.0  0.06385  0.11461  0.87702  1.0000 0.1001902047
H   H27       1.0  0.19517  0.18975  0.72402  1.0000 0.1001902047
H   H28       1.0  0.58689  0.60257  0.87726  1.0000 0.1001902047
H   H29       1.0  0.65014  0.51008  0.87713  1.0000 0.1001902047
H   H30       1.0  0.69519  0.68975  0.72401  1.0000 0.1001902047
H   H31       1.0  0.08689  0.89743  0.12274  1.0000 0.1001902047
H   H32       1.0  0.15014  0.98992  0.12287  1.0000 0.1001902047
H   H33       1.0  0.19519  0.81025  0.27599  1.0000 0.1001902047
H   H34       1.0  0.56385  0.38539  0.12298  1.0000 0.1001902047
H   H35       1.0  0.69517  0.31025  0.27598  1.0000 0.1001902047
H   H36       1.0  0.93615  0.11461  0.12298  1.0000 0.1001902047
H   H37       1.0  0.80483  0.18975  0.27598  1.0000 0.1001902047
H   H38       1.0  0.41311  0.60257  0.12274  1.0000 0.1001902047
H   H39       1.0  0.34986  0.51008  0.12287  1.0000 0.1001902047
H   H40       1.0  0.30481  0.68975  0.27599  1.0000 0.1001902047
C   C1        1.0  0.21993  0.21683  0.37328  1.0000 -0.0951299256
C   C2        1.0  0.58710  0.54134  0.07997  1.0000 -0.084253568
C   C3        1.0  0.71992  0.71684  0.37329  1.0000 -0.0951299256
C   C4        1.0  0.91290  0.95866  0.07997  1.0000 -0.084253568
C   C5        1.0  0.78008  0.78316  0.37329  1.0000 -0.0951299256
C   C6        1.0  0.28007  0.28317  0.37328  1.0000 -0.0951299256
C   C7        1.0  0.78007  0.21683  0.62672  1.0000 -0.0951299256
C   C8        1.0  0.41290  0.54134  0.92003  1.0000 -0.0858903265
C   C9        1.0  0.28008  0.71684  0.62671  1.0000 -0.0951299256
C   C10       1.0  0.08710  0.95866  0.92003  1.0000 -0.0858903265
C   C11       1.0  0.21992  0.78316  0.62671  1.0000 -0.0951299256
C   C12       1.0  0.71993  0.28317  0.62672  1.0000 -0.0951299256
C   C13       1.0  0.91290  0.95866  0.92003  1.0000 -0.0858903265
C   C14       1.0  0.78008  0.78316  0.62671  1.0000 -0.0951299256
C   C15       1.0  0.28007  0.28317  0.62672  1.0000 -0.0951299256
C   C16       1.0  0.21993  0.21683  0.62672  1.0000 -0.0951299256
C   C17       1.0  0.58710  0.54134  0.92003  1.0000 -0.0858903265
C   C18       1.0  0.71992  0.71684  0.62671  1.0000 -0.0951299256
C   C19       1.0  0.08710  0.95866  0.07997  1.0000 -0.084253568
C   C20       1.0  0.21992  0.78316  0.37329  1.0000 -0.0951299256
C   C21       1.0  0.71993  0.28317  0.37328  1.0000 -0.0951299256
C   C22       1.0  0.78007  0.21683  0.37328  1.0000 -0.0951299256
C   C23       1.0  0.41290  0.54134  0.07997  1.0000 -0.084253568
C   C24       1.0  0.28008  0.71684  0.37329  1.0000 -0.0951299256
C   C25       1.0  0.12613  0.11260  0.50000  1.0000 0.5941780696
C   C26       1.0  0.19030  0.18352  0.50000  1.0000 -0.0321349542
C   C27       1.0  0.62590  0.61276  0.50000  1.0000 0.5941780696
C   C28       1.0  0.69025  0.68356  0.50000  1.0000 -0.0321349542
C   C29       1.0  0.87410  0.88724  0.50000  1.0000 0.5941780696
C   C30       1.0  0.80975  0.81644  0.50000  1.0000 -0.0321349542
C   C31       1.0  0.37387  0.38740  0.50000  1.0000 0.5941780696
C   C32       1.0  0.30970  0.31648  0.50000  1.0000 -0.0321349542
C   C33       1.0  0.87387  0.11260  0.50000  1.0000 0.5941780696
C   C34       1.0  0.80970  0.18352  0.50000  1.0000 -0.0321349542
C   C35       1.0  0.37410  0.61276  0.50000  1.0000 0.5941780696
C   C36       1.0  0.30975  0.68356  0.50000  1.0000 -0.0321349542
C   C37       1.0  0.12590  0.88724  0.50000  1.0000 0.5941780696
C   C38       1.0  0.19025  0.81644  0.50000  1.0000 -0.0321349542
C   C39       1.0  0.62613  0.38740  0.50000  1.0000 0.5941780696
C   C40       1.0  0.69030  0.31648  0.50000  1.0000 -0.0321349542
C   C41       1.0  0.00000  0.08459  0.08013  1.0000 -0.0858903265
C   C42       1.0  0.50000  0.41541  0.08013  1.0000 -0.0858903265
C   C43       1.0  0.00000  0.08459  0.91987  1.0000 -0.0858903265
C   C44       1.0  0.50000  0.41541  0.91987  1.0000 -0.0858903265
N   N1        1.0  0.00000  0.00047  0.13330  1.0000 -0.108596457
N   N2        1.0  0.50000  0.49953  0.13330  1.0000 -0.108596457
N   N3        1.0  0.00000  0.00047  0.86670  1.0000 -0.108596457
N   N4        1.0  0.50000  0.49953  0.86670  1.0000 -0.108596457
O   O1        1.0  0.10105  0.08529  0.38125  1.0000 -0.5509913227
O   O2        1.0  0.60077  0.58548  0.38138  1.0000 -0.5509913227
O   O3        1.0  0.89923  0.91452  0.38138  1.0000 -0.5509913227
O   O4        1.0  0.39895  0.41471  0.38125  1.0000 -0.5509913227
O   O5        1.0  0.89895  0.08529  0.61875  1.0000 -0.5509913227
O   O6        1.0  0.39923  0.58548  0.61862  1.0000 -0.5509913227
O   O7        1.0  0.10077  0.91452  0.61862  1.0000 -0.5509913227
O   O8        1.0  0.60105  0.41471  0.61875  1.0000 -0.5509913227
O   O9        1.0  0.89923  0.91452  0.61862  1.0000 -0.5509913227
O   O10       1.0  0.39895  0.41471  0.61875  1.0000 -0.5509913227
O   O11       1.0  0.10105  0.08529  0.61875  1.0000 -0.5509913227
O   O12       1.0  0.60077  0.58548  0.61862  1.0000 -0.5509913227
O   O13       1.0  0.10077  0.91452  0.38138  1.0000 -0.5509913227
O   O14       1.0  0.60105  0.41471  0.38125  1.0000 -0.5509913227
O   O15       1.0  0.89895  0.08529  0.38125  1.0000 -0.5509913227
O   O16       1.0  0.39923  0.58548  0.38138  1.0000 -0.5509913227
