# DDEC6 charges by PACMAN v1.1 (https://github.com/mtap-research/PACMAN-charge/)
data_2016[Cu][mmm]3[ASR]1
_chemical_formula_sum              "Cu16 H24 C56 I8 N8 O32"
_cell_length_a       19.1501
_cell_length_b       19.1501
_cell_length_c       11.119
_cell_angle_alpha    90
_cell_angle_beta     90
_cell_angle_gamma    90

_symmetry_space_group_name_H-M    "P 1"
_symmetry_Int_Tables_number       1

loop_
  _symmetry_equiv_pos_as_xyz
  'x, y, z'

loop_
  _atom_site_type_symbol
  _atom_site_label
  _atom_site_symmetry_multiplicity
  _atom_site_fract_x
  _atom_site_fract_y
  _atom_site_fract_z
  _atom_site_occupancy
  _atom_site_charge
Cu  Cu1       1.0  0.28090  0.78090  0.09340  1.0000 0.854739242
Cu  Cu2       1.0  0.28090  0.21910  0.09340  1.0000 0.8555752737
Cu  Cu3       1.0  0.71910  0.21910  0.09340  1.0000 0.8555752737
Cu  Cu4       1.0  0.71910  0.78090  0.09340  1.0000 0.8555752737
Cu  Cu5       1.0  0.21910  0.28090  0.90660  1.0000 0.8555752737
Cu  Cu6       1.0  0.78090  0.71910  0.90660  1.0000 0.8555752737
Cu  Cu7       1.0  0.78090  0.28090  0.90660  1.0000 0.8555752737
Cu  Cu8       1.0  0.21910  0.71910  0.90660  1.0000 0.8555752737
Cu  Cu9       1.0  0.00000  0.93080  0.41440  1.0000 0.1566961042
Cu  Cu10      1.0  0.43080  0.50000  0.41440  1.0000 0.1566961042
Cu  Cu11      1.0  0.00000  0.06920  0.41440  1.0000 0.1566961042
Cu  Cu12      1.0  0.56920  0.50000  0.41440  1.0000 0.1566961042
Cu  Cu13      1.0  0.50000  0.43080  0.58560  1.0000 0.1566961042
Cu  Cu14      1.0  0.50000  0.56920  0.58560  1.0000 0.1566961042
Cu  Cu15      1.0  0.93080  0.00000  0.58560  1.0000 0.1566961042
Cu  Cu16      1.0  0.06920  0.00000  0.58560  1.0000 0.1566961042
H   H1        1.0  0.10110  0.84410  0.27590  1.0000 0.1245048276
H   H2        1.0  0.34410  0.39890  0.27590  1.0000 0.1245048276
H   H3        1.0  0.89890  0.15590  0.27590  1.0000 0.1245048276
H   H4        1.0  0.65590  0.60110  0.27590  1.0000 0.1245048276
H   H5        1.0  0.39890  0.34410  0.72410  1.0000 0.1245048276
H   H6        1.0  0.60110  0.65590  0.72410  1.0000 0.1245048276
H   H7        1.0  0.84410  0.10110  0.72410  1.0000 0.1245048276
H   H8        1.0  0.15590  0.89890  0.72410  1.0000 0.1245048276
H   H9        1.0  0.39890  0.65590  0.72410  1.0000 0.1245048276
H   H10       1.0  0.15590  0.10110  0.72410  1.0000 0.1245048276
H   H11       1.0  0.60110  0.34410  0.72410  1.0000 0.1245048276
H   H12       1.0  0.84410  0.89890  0.72410  1.0000 0.1245048276
H   H13       1.0  0.10110  0.15590  0.27590  1.0000 0.1245048276
H   H14       1.0  0.89890  0.84410  0.27590  1.0000 0.1245048276
H   H15       1.0  0.65590  0.39890  0.27590  1.0000 0.1245048276
H   H16       1.0  0.34410  0.60110  0.27590  1.0000 0.1245048276
H   H17       1.0  0.00000  0.73190  0.02970  1.0000 0.1454351626
H   H18       1.0  0.23190  0.50000  0.02970  1.0000 0.1454351626
H   H19       1.0  0.00000  0.26810  0.02970  1.0000 0.1454351626
H   H20       1.0  0.76810  0.50000  0.02970  1.0000 0.1454351626
H   H21       1.0  0.50000  0.23190  0.97030  1.0000 0.1454351626
H   H22       1.0  0.50000  0.76810  0.97030  1.0000 0.1454351626
H   H23       1.0  0.73190  0.00000  0.97030  1.0000 0.1454351626
H   H24       1.0  0.26810  0.00000  0.97030  1.0000 0.1454351626
C   C1        1.0  0.05920  0.82920  0.24230  1.0000 0.0758503235
C   C2        1.0  0.32920  0.44080  0.24230  1.0000 0.0744164518
C   C3        1.0  0.94080  0.17080  0.24230  1.0000 0.0744164518
C   C4        1.0  0.67080  0.55920  0.24230  1.0000 0.0744164518
C   C5        1.0  0.44080  0.32920  0.75770  1.0000 0.0744164518
C   C6        1.0  0.55920  0.67080  0.75770  1.0000 0.0744164518
C   C7        1.0  0.82920  0.05920  0.75770  1.0000 0.0758503235
C   C8        1.0  0.17080  0.94080  0.75770  1.0000 0.0744164518
C   C9        1.0  0.44080  0.67080  0.75770  1.0000 0.0744164518
C   C10       1.0  0.17080  0.05920  0.75770  1.0000 0.0744164518
C   C11       1.0  0.55920  0.32920  0.75770  1.0000 0.0744164518
C   C12       1.0  0.82920  0.94080  0.75770  1.0000 0.0758503235
C   C13       1.0  0.05920  0.17080  0.24230  1.0000 0.0744164518
C   C14       1.0  0.94080  0.82920  0.24230  1.0000 0.0758503235
C   C15       1.0  0.67080  0.44080  0.24230  1.0000 0.0744164518
C   C16       1.0  0.32920  0.55920  0.24230  1.0000 0.0744164518
C   C17       1.0  0.06190  0.78430  0.14580  1.0000 -0.0695796141
C   C18       1.0  0.28430  0.43810  0.14580  1.0000 -0.0695796141
C   C19       1.0  0.93810  0.21570  0.14580  1.0000 -0.0695796141
C   C20       1.0  0.71570  0.56190  0.14580  1.0000 -0.0695796141
C   C21       1.0  0.43810  0.28430  0.85420  1.0000 -0.0695796141
C   C22       1.0  0.56190  0.71570  0.85420  1.0000 -0.0695796141
C   C23       1.0  0.78430  0.06190  0.85420  1.0000 -0.0695796141
C   C24       1.0  0.21570  0.93810  0.85420  1.0000 -0.0695796141
C   C25       1.0  0.43810  0.71570  0.85420  1.0000 -0.0695796141
C   C26       1.0  0.21570  0.06190  0.85420  1.0000 -0.0695796141
C   C27       1.0  0.56190  0.28430  0.85420  1.0000 -0.0695796141
C   C28       1.0  0.78430  0.93810  0.85420  1.0000 -0.0695796141
C   C29       1.0  0.06190  0.21570  0.14580  1.0000 -0.0695796141
C   C30       1.0  0.93810  0.78430  0.14580  1.0000 -0.0695796141
C   C31       1.0  0.71570  0.43810  0.14580  1.0000 -0.0695796141
C   C32       1.0  0.28430  0.56190  0.14580  1.0000 -0.0695796141
C   C33       1.0  0.00000  0.76170  0.09580  1.0000 -0.0431099844
C   C34       1.0  0.26170  0.50000  0.09580  1.0000 -0.0431099844
C   C35       1.0  0.00000  0.23830  0.09580  1.0000 -0.0431099844
C   C36       1.0  0.73830  0.50000  0.09580  1.0000 -0.0431099844
C   C37       1.0  0.50000  0.26170  0.90420  1.0000 -0.0431099844
C   C38       1.0  0.50000  0.73830  0.90420  1.0000 -0.0431099844
C   C39       1.0  0.76170  0.00000  0.90420  1.0000 -0.0431099844
C   C40       1.0  0.23830  0.00000  0.90420  1.0000 -0.0431099844
C   C41       1.0  0.13160  0.76590  0.09210  1.0000 0.5867330327
C   C42       1.0  0.26590  0.36840  0.09210  1.0000 0.5867330327
C   C43       1.0  0.86840  0.23410  0.09210  1.0000 0.5867330327
C   C44       1.0  0.73410  0.63160  0.09210  1.0000 0.5867330327
C   C45       1.0  0.36840  0.26590  0.90790  1.0000 0.5867330327
C   C46       1.0  0.63160  0.73410  0.90790  1.0000 0.5867330327
C   C47       1.0  0.76590  0.13160  0.90790  1.0000 0.5867330327
C   C48       1.0  0.23410  0.86840  0.90790  1.0000 0.5867330327
C   C49       1.0  0.36840  0.73410  0.90790  1.0000 0.5867330327
C   C50       1.0  0.23410  0.13160  0.90790  1.0000 0.5867330327
C   C51       1.0  0.63160  0.26590  0.90790  1.0000 0.5867330327
C   C52       1.0  0.76590  0.86840  0.90790  1.0000 0.5867330327
C   C53       1.0  0.13160  0.23410  0.09210  1.0000 0.5867330327
C   C54       1.0  0.86840  0.76590  0.09210  1.0000 0.5867330327
C   C55       1.0  0.73410  0.36840  0.09210  1.0000 0.5867330327
C   C56       1.0  0.26590  0.63160  0.09210  1.0000 0.5867330327
I   I1        1.0  0.00000  0.87920  0.63430  1.0000 -0.2953391739
I   I2        1.0  0.37920  0.50000  0.63430  1.0000 -0.2953391739
I   I3        1.0  0.00000  0.12080  0.63430  1.0000 -0.2953391739
I   I4        1.0  0.62080  0.50000  0.63430  1.0000 -0.2953391739
I   I5        1.0  0.50000  0.37920  0.36570  1.0000 -0.2953391739
I   I6        1.0  0.50000  0.62080  0.36570  1.0000 -0.2953391739
I   I7        1.0  0.87920  0.00000  0.36570  1.0000 -0.2948338755
I   I8        1.0  0.12080  0.00000  0.36570  1.0000 -0.2953391739
N   N1        1.0  0.00000  0.85240  0.29030  1.0000 -0.16054671
N   N2        1.0  0.35240  0.50000  0.29030  1.0000 -0.16054671
N   N3        1.0  0.00000  0.14760  0.29030  1.0000 -0.16054671
N   N4        1.0  0.64760  0.50000  0.29030  1.0000 -0.16054671
N   N5        1.0  0.50000  0.35240  0.70970  1.0000 -0.16054671
N   N6        1.0  0.50000  0.64760  0.70970  1.0000 -0.16054671
N   N7        1.0  0.85240  0.00000  0.70970  1.0000 -0.16054671
N   N8        1.0  0.14760  0.00000  0.70970  1.0000 -0.16054671
O   O1        1.0  0.13150  0.73380  0.99430  1.0000 -0.5135481462
O   O2        1.0  0.23380  0.36850  0.99430  1.0000 -0.5135481462
O   O3        1.0  0.86850  0.26620  0.99430  1.0000 -0.5135481462
O   O4        1.0  0.76620  0.63150  0.99430  1.0000 -0.5135481462
O   O5        1.0  0.36850  0.23380  0.00570  1.0000 -0.5135481462
O   O6        1.0  0.63150  0.76620  0.00570  1.0000 -0.5135481462
O   O7        1.0  0.73380  0.13150  0.00570  1.0000 -0.5135481462
O   O8        1.0  0.26620  0.86850  0.00570  1.0000 -0.5135481462
O   O9        1.0  0.36850  0.76620  0.00570  1.0000 -0.5135481462
O   O10       1.0  0.26620  0.13150  0.00570  1.0000 -0.5135481462
O   O11       1.0  0.63150  0.23380  0.00570  1.0000 -0.5135481462
O   O12       1.0  0.73380  0.86850  0.00570  1.0000 -0.5135481462
O   O13       1.0  0.13150  0.26620  0.99430  1.0000 -0.5135481462
O   O14       1.0  0.86850  0.73380  0.99430  1.0000 -0.5135481462
O   O15       1.0  0.76620  0.36850  0.99430  1.0000 -0.5135481462
O   O16       1.0  0.23380  0.63150  0.99430  1.0000 -0.5135481462
O   O17       1.0  0.18400  0.78640  0.14980  1.0000 -0.5322196849
O   O18       1.0  0.28640  0.31600  0.14980  1.0000 -0.5322196849
O   O19       1.0  0.81600  0.21360  0.14980  1.0000 -0.5322196849
O   O20       1.0  0.71360  0.68400  0.14980  1.0000 -0.5322196849
O   O21       1.0  0.31600  0.28640  0.85020  1.0000 -0.5322196849
O   O22       1.0  0.68400  0.71360  0.85020  1.0000 -0.5322196849
O   O23       1.0  0.78640  0.18400  0.85020  1.0000 -0.5322196849
O   O24       1.0  0.21360  0.81600  0.85020  1.0000 -0.5322196849
O   O25       1.0  0.31600  0.71360  0.85020  1.0000 -0.5322196849
O   O26       1.0  0.21360  0.18400  0.85020  1.0000 -0.5322196849
O   O27       1.0  0.68400  0.28640  0.85020  1.0000 -0.5322196849
O   O28       1.0  0.78640  0.81600  0.85020  1.0000 -0.5322196849
O   O29       1.0  0.18400  0.21360  0.14980  1.0000 -0.5322196849
O   O30       1.0  0.81600  0.78640  0.14980  1.0000 -0.5322196849
O   O31       1.0  0.71360  0.31600  0.14980  1.0000 -0.5322196849
O   O32       1.0  0.28640  0.68400  0.14980  1.0000 -0.5322196849
