# DDEC6 charges by PACMAN v1.1 (https://github.com/mtap-research/PACMAN-charge/)
data_2016[Th][gfy]3[ASR]1
_chemical_formula_sum              "Th6 H18 C54 O38"
_cell_length_a       18.4448
_cell_length_b       18.4448
_cell_length_c       9.8084
_cell_angle_alpha    90
_cell_angle_beta     90
_cell_angle_gamma    120

_symmetry_space_group_name_H-M    "P 1"
_symmetry_Int_Tables_number       1

loop_
  _symmetry_equiv_pos_as_xyz
  'x, y, z'

loop_
  _atom_site_type_symbol
  _atom_site_label
  _atom_site_symmetry_multiplicity
  _atom_site_fract_x
  _atom_site_fract_y
  _atom_site_fract_z
  _atom_site_occupancy
  _atom_site_charge
Th  Th1       1.0  0.64617  0.20201  0.25000  1.0000 2.1887762939
Th  Th2       1.0  0.79799  0.44416  0.25000  1.0000 2.1887762939
Th  Th3       1.0  0.55584  0.35383  0.25000  1.0000 2.1887762939
Th  Th4       1.0  0.35383  0.79799  0.75000  1.0000 2.1887762939
Th  Th5       1.0  0.20201  0.55584  0.75000  1.0000 2.1887762939
Th  Th6       1.0  0.44416  0.64617  0.75000  1.0000 2.1887762939
H   H1        1.0  0.45810  0.70700  0.25000  1.0000 0.1246934131
H   H2        1.0  0.29300  0.75110  0.25000  1.0000 0.1246934131
H   H3        1.0  0.24890  0.54190  0.25000  1.0000 0.1246934131
H   H4        1.0  0.54190  0.29300  0.75000  1.0000 0.1246934131
H   H5        1.0  0.70700  0.24890  0.75000  1.0000 0.1246934131
H   H6        1.0  0.75110  0.45810  0.75000  1.0000 0.1246934131
H   H7        1.0  0.51500  0.91680  0.45550  1.0000 0.1355333522
H   H8        1.0  0.08320  0.59820  0.45550  1.0000 0.1355333522
H   H9        1.0  0.40180  0.48500  0.45550  1.0000 0.1355333522
H   H10       1.0  0.48500  0.08320  0.95550  1.0000 0.1355333522
H   H11       1.0  0.91680  0.40180  0.95550  1.0000 0.1355333522
H   H12       1.0  0.59820  0.51500  0.95550  1.0000 0.1355333522
H   H13       1.0  0.48500  0.08320  0.54450  1.0000 0.1355333522
H   H14       1.0  0.91680  0.40180  0.54450  1.0000 0.1355333522
H   H15       1.0  0.59820  0.51500  0.54450  1.0000 0.1355333522
H   H16       1.0  0.51500  0.91680  0.04450  1.0000 0.1355333522
H   H17       1.0  0.08320  0.59820  0.04450  1.0000 0.1355333522
H   H18       1.0  0.40180  0.48500  0.04450  1.0000 0.1355333522
C   C1        1.0  0.47020  0.75940  0.50450  1.0000 0.5909835294
C   C2        1.0  0.24060  0.71080  0.50450  1.0000 0.5909835294
C   C3        1.0  0.28920  0.52980  0.50450  1.0000 0.5909835294
C   C4        1.0  0.52980  0.24060  0.00450  1.0000 0.5909835294
C   C5        1.0  0.75940  0.28920  0.00450  1.0000 0.5909835294
C   C6        1.0  0.71080  0.47020  0.00450  1.0000 0.5909835294
C   C7        1.0  0.52980  0.24060  0.49550  1.0000 0.5909835294
C   C8        1.0  0.75940  0.28920  0.49550  1.0000 0.5909835294
C   C9        1.0  0.71080  0.47020  0.49550  1.0000 0.5909835294
C   C10       1.0  0.47020  0.75940  0.99550  1.0000 0.5909835294
C   C11       1.0  0.24060  0.71080  0.99550  1.0000 0.5909835294
C   C12       1.0  0.28920  0.52980  0.99550  1.0000 0.5909835294
C   C13       1.0  0.52320  0.93240  0.25000  1.0000 -0.0407295466
C   C14       1.0  0.06760  0.59080  0.25000  1.0000 -0.0407295466
C   C15       1.0  0.40920  0.47680  0.25000  1.0000 -0.0407295466
C   C16       1.0  0.47680  0.06760  0.75000  1.0000 -0.0407295466
C   C17       1.0  0.93240  0.40920  0.75000  1.0000 -0.0407295466
C   C18       1.0  0.59080  0.52320  0.75000  1.0000 -0.0407295466
C   C19       1.0  0.55380  0.02280  0.25000  1.0000 0.53642861
C   C20       1.0  0.97720  0.53100  0.25000  1.0000 0.53642861
C   C21       1.0  0.46900  0.44620  0.25000  1.0000 0.53642861
C   C22       1.0  0.44620  0.97720  0.75000  1.0000 0.53642861
C   C23       1.0  0.02280  0.46900  0.75000  1.0000 0.53642861
C   C24       1.0  0.53100  0.55380  0.75000  1.0000 0.53642861
C   C25       1.0  0.48480  0.80520  0.37290  1.0000 -0.0407295466
C   C26       1.0  0.19480  0.67960  0.37290  1.0000 -0.0407295466
C   C27       1.0  0.32040  0.51520  0.37290  1.0000 -0.0407295466
C   C28       1.0  0.51520  0.19480  0.87290  1.0000 -0.0407295466
C   C29       1.0  0.80520  0.32040  0.87290  1.0000 -0.0407295466
C   C30       1.0  0.67960  0.48480  0.87290  1.0000 -0.0407295466
C   C31       1.0  0.51520  0.19480  0.62710  1.0000 -0.0407295466
C   C32       1.0  0.80520  0.32040  0.62710  1.0000 -0.0407295466
C   C33       1.0  0.67960  0.48480  0.62710  1.0000 -0.0407295466
C   C34       1.0  0.48480  0.80520  0.12710  1.0000 -0.0407295466
C   C35       1.0  0.19480  0.67960  0.12710  1.0000 -0.0407295466
C   C36       1.0  0.32040  0.51520  0.12710  1.0000 -0.0407295466
C   C37       1.0  0.47340  0.76330  0.25000  1.0000 -0.1018740788
C   C38       1.0  0.23670  0.71010  0.25000  1.0000 -0.1018740788
C   C39       1.0  0.28990  0.52660  0.25000  1.0000 -0.1018740788
C   C40       1.0  0.52660  0.23670  0.75000  1.0000 -0.1018740788
C   C41       1.0  0.76330  0.28990  0.75000  1.0000 -0.1018740788
C   C42       1.0  0.71010  0.47340  0.75000  1.0000 -0.1018740788
C   C43       1.0  0.50860  0.88910  0.37330  1.0000 -0.0877884489
C   C44       1.0  0.11090  0.61950  0.37330  1.0000 -0.0877884489
C   C45       1.0  0.38050  0.49140  0.37330  1.0000 -0.0877884489
C   C46       1.0  0.49140  0.11090  0.87330  1.0000 -0.0877884489
C   C47       1.0  0.88910  0.38050  0.87330  1.0000 -0.0877884489
C   C48       1.0  0.61950  0.50860  0.87330  1.0000 -0.0877884489
C   C49       1.0  0.49140  0.11090  0.62670  1.0000 -0.0877884489
C   C50       1.0  0.88910  0.38050  0.62670  1.0000 -0.0877884489
C   C51       1.0  0.61950  0.50860  0.62670  1.0000 -0.0877884489
C   C52       1.0  0.50860  0.88910  0.12670  1.0000 -0.0877884489
C   C53       1.0  0.11090  0.61950  0.12670  1.0000 -0.0877884489
C   C54       1.0  0.38050  0.49140  0.12670  1.0000 -0.0877884489
O   O1        1.0  0.56860  0.06230  0.36100  1.0000 -0.570827651
O   O2        1.0  0.93770  0.50630  0.36100  1.0000 -0.570827651
O   O3        1.0  0.49370  0.43140  0.36100  1.0000 -0.570827651
O   O4        1.0  0.43140  0.93770  0.86100  1.0000 -0.570827651
O   O5        1.0  0.06230  0.49370  0.86100  1.0000 -0.570827651
O   O6        1.0  0.50630  0.56860  0.86100  1.0000 -0.570827651
O   O7        1.0  0.43140  0.93770  0.63900  1.0000 -0.570827651
O   O8        1.0  0.06230  0.49370  0.63900  1.0000 -0.570827651
O   O9        1.0  0.50630  0.56860  0.63900  1.0000 -0.570827651
O   O10       1.0  0.56860  0.06230  0.13900  1.0000 -0.570827651
O   O11       1.0  0.93770  0.50630  0.13900  1.0000 -0.570827651
O   O12       1.0  0.49370  0.43140  0.13900  1.0000 -0.570827651
O   O13       1.0  0.66667  0.33333  0.25000  1.0000 -1.1210246489
O   O14       1.0  0.33333  0.66667  0.75000  1.0000 -1.1210246489
O   O15       1.0  0.46160  0.68780  0.50440  1.0000 -0.570827651
O   O16       1.0  0.31220  0.77380  0.50440  1.0000 -0.570827651
O   O17       1.0  0.22620  0.53840  0.50440  1.0000 -0.570827651
O   O18       1.0  0.53840  0.31220  0.00440  1.0000 -0.570827651
O   O19       1.0  0.68780  0.22620  0.00440  1.0000 -0.570827651
O   O20       1.0  0.77380  0.46160  0.00440  1.0000 -0.570827651
O   O21       1.0  0.53840  0.31220  0.49560  1.0000 -0.570827651
O   O22       1.0  0.68780  0.22620  0.49560  1.0000 -0.570827651
O   O23       1.0  0.77380  0.46160  0.49560  1.0000 -0.570827651
O   O24       1.0  0.46160  0.68780  0.99560  1.0000 -0.570827651
O   O25       1.0  0.31220  0.77380  0.99560  1.0000 -0.570827651
O   O26       1.0  0.22620  0.53840  0.99560  1.0000 -0.570827651
O   O27       1.0  0.46710  0.79390  0.61410  1.0000 -0.6231534883
O   O28       1.0  0.20610  0.67320  0.61410  1.0000 -0.6231534883
O   O29       1.0  0.32680  0.53290  0.61410  1.0000 -0.6231534883
O   O30       1.0  0.53290  0.20610  0.11410  1.0000 -0.6231534883
O   O31       1.0  0.79390  0.32680  0.11410  1.0000 -0.6231534883
O   O32       1.0  0.67320  0.46710  0.11410  1.0000 -0.6231534883
O   O33       1.0  0.53290  0.20610  0.38590  1.0000 -0.6231534883
O   O34       1.0  0.79390  0.32680  0.38590  1.0000 -0.6231534883
O   O35       1.0  0.67320  0.46710  0.38590  1.0000 -0.6231534883
O   O36       1.0  0.46710  0.79390  0.88590  1.0000 -0.6231534883
O   O37       1.0  0.20610  0.67320  0.88590  1.0000 -0.6231534883
O   O38       1.0  0.32680  0.53290  0.88590  1.0000 -0.6231534883
