# DDEC6 charges by PACMAN v1.1 (https://github.com/mtap-research/PACMAN-charge/)
data_2016[Yb][lcy]3[ASR]1
_chemical_formula_sum              "Yb32 H296 C456 N24 O128"
_cell_length_a       29.311
_cell_length_b       29.311
_cell_length_c       29.311
_cell_angle_alpha    90
_cell_angle_beta     90
_cell_angle_gamma    90

_symmetry_space_group_name_H-M    "P 1"
_symmetry_Int_Tables_number       1

loop_
  _symmetry_equiv_pos_as_xyz
  'x, y, z'

loop_
  _atom_site_type_symbol
  _atom_site_label
  _atom_site_symmetry_multiplicity
  _atom_site_fract_x
  _atom_site_fract_y
  _atom_site_fract_z
  _atom_site_occupancy
  _atom_site_charge
Yb  Yb1       1.0  0.85567  0.75463  0.81707  1.0000 2.1357442444
Yb  Yb2       1.0  0.64433  0.24537  0.31707  1.0000 2.1357442444
Yb  Yb3       1.0  0.35567  0.74537  0.18293  1.0000 2.1357442444
Yb  Yb4       1.0  0.14433  0.25463  0.68293  1.0000 2.1314837839
Yb  Yb5       1.0  0.81707  0.85567  0.75463  1.0000 2.1357442444
Yb  Yb6       1.0  0.75463  0.81707  0.85567  1.0000 2.1357442444
Yb  Yb7       1.0  0.68293  0.14433  0.25463  1.0000 2.1357442444
Yb  Yb8       1.0  0.24537  0.31707  0.64433  1.0000 2.1314837839
Yb  Yb9       1.0  0.31707  0.64433  0.24537  1.0000 2.1357442444
Yb  Yb10      1.0  0.74537  0.18293  0.35567  1.0000 2.1357442444
Yb  Yb11      1.0  0.18293  0.35567  0.74537  1.0000 2.1357442444
Yb  Yb12      1.0  0.25463  0.68293  0.14433  1.0000 2.1314837839
Yb  Yb13      1.0  0.25046  0.74954  0.24954  1.0000 2.1314837839
Yb  Yb14      1.0  0.24954  0.25046  0.74954  1.0000 2.1314837839
Yb  Yb15      1.0  0.75046  0.75046  0.75046  1.0000 2.1314837839
Yb  Yb16      1.0  0.74954  0.24954  0.25046  1.0000 2.1314837839
Yb  Yb17      1.0  0.14433  0.24537  0.18293  1.0000 2.1357442444
Yb  Yb18      1.0  0.35567  0.75463  0.68293  1.0000 2.1357442444
Yb  Yb19      1.0  0.64433  0.25463  0.81707  1.0000 2.1357442444
Yb  Yb20      1.0  0.85567  0.74537  0.31707  1.0000 2.1357442444
Yb  Yb21      1.0  0.18293  0.14433  0.24537  1.0000 2.1357442444
Yb  Yb22      1.0  0.24537  0.18293  0.14433  1.0000 2.1357442444
Yb  Yb23      1.0  0.31707  0.85567  0.74537  1.0000 2.1357442444
Yb  Yb24      1.0  0.75463  0.68293  0.35567  1.0000 2.1357442444
Yb  Yb25      1.0  0.68293  0.35567  0.75463  1.0000 2.1357442444
Yb  Yb26      1.0  0.25463  0.81707  0.64433  1.0000 2.1357442444
Yb  Yb27      1.0  0.81707  0.64433  0.25463  1.0000 2.1357442444
Yb  Yb28      1.0  0.74537  0.31707  0.85567  1.0000 2.1357442444
Yb  Yb29      1.0  0.74954  0.25046  0.75046  1.0000 2.1314837839
Yb  Yb30      1.0  0.75046  0.74954  0.25046  1.0000 2.1314837839
Yb  Yb31      1.0  0.24954  0.24954  0.24954  1.0000 2.1314837839
Yb  Yb32      1.0  0.25046  0.75046  0.74954  1.0000 2.1314837839
H   H1        1.0  0.76790  0.72790  0.84000  1.0000 0.3709813908
H   H2        1.0  0.73210  0.27210  0.34000  1.0000 0.3709813908
H   H3        1.0  0.26790  0.77210  0.16000  1.0000 0.3709813908
H   H4        1.0  0.23210  0.22790  0.66000  1.0000 0.3709813908
H   H5        1.0  0.84000  0.76790  0.72790  1.0000 0.3709813908
H   H6        1.0  0.72790  0.84000  0.76790  1.0000 0.3709813908
H   H7        1.0  0.66000  0.23210  0.22790  1.0000 0.3709813908
H   H8        1.0  0.27210  0.34000  0.73210  1.0000 0.3709813908
H   H9        1.0  0.34000  0.73210  0.27210  1.0000 0.3709813908
H   H10       1.0  0.77210  0.16000  0.26790  1.0000 0.3709813908
H   H11       1.0  0.16000  0.26790  0.77210  1.0000 0.3709813908
H   H12       1.0  0.22790  0.66000  0.23210  1.0000 0.3709813908
H   H13       1.0  0.84413  0.84413  0.84413  1.0000 0.4210673886
H   H14       1.0  0.65587  0.15587  0.34413  1.0000 0.4210673886
H   H15       1.0  0.34413  0.65587  0.15587  1.0000 0.4210673886
H   H16       1.0  0.15587  0.34413  0.65587  1.0000 0.4210673886
H   H17       1.0  0.09920  0.76890  0.23840  1.0000 0.1090684857
H   H18       1.0  0.40080  0.23110  0.73840  1.0000 0.1090684857
H   H19       1.0  0.59920  0.73110  0.76160  1.0000 0.1090684857
H   H20       1.0  0.90080  0.26890  0.26160  1.0000 0.1090684857
H   H21       1.0  0.23840  0.09920  0.76890  1.0000 0.1090684857
H   H22       1.0  0.76890  0.23840  0.09920  1.0000 0.1090684857
H   H23       1.0  0.26160  0.90080  0.26890  1.0000 0.1090684857
H   H24       1.0  0.23110  0.73840  0.40080  1.0000 0.1090684857
H   H25       1.0  0.73840  0.40080  0.23110  1.0000 0.1090684857
H   H26       1.0  0.73110  0.76160  0.59920  1.0000 0.1090684857
H   H27       1.0  0.76160  0.59920  0.73110  1.0000 0.1090684857
H   H28       1.0  0.26890  0.26160  0.90080  1.0000 0.1090684857
H   H29       1.0  0.02090  0.78110  0.22470  1.0000 0.117815448
H   H30       1.0  0.47910  0.21890  0.72470  1.0000 0.117815448
H   H31       1.0  0.52090  0.71890  0.77530  1.0000 0.117815448
H   H32       1.0  0.97910  0.28110  0.27530  1.0000 0.117815448
H   H33       1.0  0.22470  0.02090  0.78110  1.0000 0.117815448
H   H34       1.0  0.78110  0.22470  0.02090  1.0000 0.117815448
H   H35       1.0  0.27530  0.97910  0.28110  1.0000 0.117815448
H   H36       1.0  0.21890  0.72470  0.47910  1.0000 0.117815448
H   H37       1.0  0.72470  0.47910  0.21890  1.0000 0.117815448
H   H38       1.0  0.71890  0.77530  0.52090  1.0000 0.117815448
H   H39       1.0  0.77530  0.52090  0.71890  1.0000 0.117815448
H   H40       1.0  0.28110  0.27530  0.97910  1.0000 0.117815448
H   H41       1.0  0.03280  0.71150  0.10960  1.0000 0.117815448
H   H42       1.0  0.46720  0.28850  0.60960  1.0000 0.117815448
H   H43       1.0  0.53280  0.78850  0.89040  1.0000 0.117815448
H   H44       1.0  0.96720  0.21150  0.39040  1.0000 0.117815448
H   H45       1.0  0.10960  0.03280  0.71150  1.0000 0.117815448
H   H46       1.0  0.71150  0.10960  0.03280  1.0000 0.117815448
H   H47       1.0  0.39040  0.96720  0.21150  1.0000 0.117815448
H   H48       1.0  0.28850  0.60960  0.46720  1.0000 0.117815448
H   H49       1.0  0.60960  0.46720  0.28850  1.0000 0.117815448
H   H50       1.0  0.78850  0.89040  0.53280  1.0000 0.117815448
H   H51       1.0  0.89040  0.53280  0.78850  1.0000 0.117815448
H   H52       1.0  0.21150  0.39040  0.96720  1.0000 0.117815448
H   H53       1.0  0.10950  0.70100  0.12150  1.0000 0.117815448
H   H54       1.0  0.39050  0.29900  0.62150  1.0000 0.117815448
H   H55       1.0  0.60950  0.79900  0.87850  1.0000 0.117815448
H   H56       1.0  0.89050  0.20100  0.37850  1.0000 0.117815448
H   H57       1.0  0.12150  0.10950  0.70100  1.0000 0.117815448
H   H58       1.0  0.70100  0.12150  0.10950  1.0000 0.117815448
H   H59       1.0  0.37850  0.89050  0.20100  1.0000 0.117815448
H   H60       1.0  0.29900  0.62150  0.39050  1.0000 0.117815448
H   H61       1.0  0.62150  0.39050  0.29900  1.0000 0.117815448
H   H62       1.0  0.79900  0.87850  0.60950  1.0000 0.117815448
H   H63       1.0  0.87850  0.60950  0.79900  1.0000 0.117815448
H   H64       1.0  0.20100  0.37850  0.89050  1.0000 0.117815448
H   H65       1.0  0.94920  0.74200  0.22000  1.0000 0.101487195
H   H66       1.0  0.55080  0.25800  0.72000  1.0000 0.101487195
H   H67       1.0  0.44920  0.75800  0.78000  1.0000 0.101487195
H   H68       1.0  0.05080  0.24200  0.28000  1.0000 0.101487195
H   H69       1.0  0.22000  0.94920  0.74200  1.0000 0.101487195
H   H70       1.0  0.74200  0.22000  0.94920  1.0000 0.101487195
H   H71       1.0  0.28000  0.05080  0.24200  1.0000 0.101487195
H   H72       1.0  0.25800  0.72000  0.55080  1.0000 0.101487195
H   H73       1.0  0.72000  0.55080  0.25800  1.0000 0.101487195
H   H74       1.0  0.75800  0.78000  0.44920  1.0000 0.101487195
H   H75       1.0  0.78000  0.44920  0.75800  1.0000 0.101487195
H   H76       1.0  0.24200  0.28000  0.05080  1.0000 0.101487195
H   H77       1.0  0.97180  0.75570  0.08780  1.0000 0.1090684857
H   H78       1.0  0.52820  0.24430  0.58780  1.0000 0.1090684857
H   H79       1.0  0.47180  0.74430  0.91220  1.0000 0.1090684857
H   H80       1.0  0.02820  0.25570  0.41220  1.0000 0.1090684857
H   H81       1.0  0.08780  0.97180  0.75570  1.0000 0.1090684857
H   H82       1.0  0.75570  0.08780  0.97180  1.0000 0.1090684857
H   H83       1.0  0.41220  0.02820  0.25570  1.0000 0.1090684857
H   H84       1.0  0.24430  0.58780  0.52820  1.0000 0.1090684857
H   H85       1.0  0.58780  0.52820  0.24430  1.0000 0.1090684857
H   H86       1.0  0.74430  0.91220  0.47180  1.0000 0.1090684857
H   H87       1.0  0.91220  0.47180  0.74430  1.0000 0.1090684857
H   H88       1.0  0.25570  0.41220  0.02820  1.0000 0.1090684857
H   H89       1.0  0.84600  0.75720  0.13730  1.0000 0.1090684857
H   H90       1.0  0.65400  0.24280  0.63730  1.0000 0.1090684857
H   H91       1.0  0.34600  0.74280  0.86270  1.0000 0.1090684857
H   H92       1.0  0.15400  0.25720  0.36270  1.0000 0.1090684857
H   H93       1.0  0.13730  0.84600  0.75720  1.0000 0.1090684857
H   H94       1.0  0.75720  0.13730  0.84600  1.0000 0.1090684857
H   H95       1.0  0.36270  0.15400  0.25720  1.0000 0.1090684857
H   H96       1.0  0.24280  0.63730  0.65400  1.0000 0.1090684857
H   H97       1.0  0.63730  0.65400  0.24280  1.0000 0.1090684857
H   H98       1.0  0.74280  0.86270  0.34600  1.0000 0.1090684857
H   H99       1.0  0.86270  0.34600  0.74280  1.0000 0.1090684857
H   H100      1.0  0.25720  0.36270  0.15400  1.0000 0.1090684857
H   H101      1.0  0.80010  0.80410  0.00450  1.0000 0.117815448
H   H102      1.0  0.69990  0.19590  0.50450  1.0000 0.117815448
H   H103      1.0  0.30010  0.69590  0.99550  1.0000 0.117815448
H   H104      1.0  0.19990  0.30410  0.49550  1.0000 0.117815448
H   H105      1.0  0.00450  0.80010  0.80410  1.0000 0.117815448
H   H106      1.0  0.80410  0.00450  0.80010  1.0000 0.117815448
H   H107      1.0  0.49550  0.19990  0.30410  1.0000 0.117815448
H   H108      1.0  0.19590  0.50450  0.69990  1.0000 0.117815448
H   H109      1.0  0.50450  0.69990  0.19590  1.0000 0.117815448
H   H110      1.0  0.69590  0.99550  0.30010  1.0000 0.117815448
H   H111      1.0  0.99550  0.30010  0.69590  1.0000 0.117815448
H   H112      1.0  0.30410  0.49550  0.19990  1.0000 0.117815448
H   H113      1.0  0.82960  0.79750  0.07620  1.0000 0.1090684857
H   H114      1.0  0.67040  0.20250  0.57620  1.0000 0.1090684857
H   H115      1.0  0.32960  0.70250  0.92380  1.0000 0.1090684857
H   H116      1.0  0.17040  0.29750  0.42380  1.0000 0.1090684857
H   H117      1.0  0.07620  0.82960  0.79750  1.0000 0.1090684857
H   H118      1.0  0.79750  0.07620  0.82960  1.0000 0.1090684857
H   H119      1.0  0.42380  0.17040  0.29750  1.0000 0.1090684857
H   H120      1.0  0.20250  0.57620  0.67040  1.0000 0.1090684857
H   H121      1.0  0.57620  0.67040  0.20250  1.0000 0.1090684857
H   H122      1.0  0.70250  0.92380  0.32960  1.0000 0.1090684857
H   H123      1.0  0.92380  0.32960  0.70250  1.0000 0.1090684857
H   H124      1.0  0.29750  0.42380  0.17040  1.0000 0.1090684857
H   H125      1.0  0.93590  0.72800  0.02830  1.0000 0.117815448
H   H126      1.0  0.56410  0.27200  0.52830  1.0000 0.117815448
H   H127      1.0  0.43590  0.77200  0.97170  1.0000 0.117815448
H   H128      1.0  0.06410  0.22800  0.47170  1.0000 0.117815448
H   H129      1.0  0.02830  0.93590  0.72800  1.0000 0.117815448
H   H130      1.0  0.72800  0.02830  0.93590  1.0000 0.117815448
H   H131      1.0  0.47170  0.06410  0.22800  1.0000 0.117815448
H   H132      1.0  0.27200  0.52830  0.56410  1.0000 0.117815448
H   H133      1.0  0.52830  0.56410  0.27200  1.0000 0.117815448
H   H134      1.0  0.77200  0.97170  0.43590  1.0000 0.117815448
H   H135      1.0  0.97170  0.43590  0.77200  1.0000 0.117815448
H   H136      1.0  0.22800  0.47170  0.06410  1.0000 0.117815448
H   H137      1.0  0.90980  0.74180  0.95410  1.0000 0.117815448
H   H138      1.0  0.59020  0.25820  0.45410  1.0000 0.117815448
H   H139      1.0  0.40980  0.75820  0.04590  1.0000 0.117815448
H   H140      1.0  0.09020  0.24180  0.54590  1.0000 0.117815448
H   H141      1.0  0.95410  0.90980  0.74180  1.0000 0.117815448
H   H142      1.0  0.74180  0.95410  0.90980  1.0000 0.117815448
H   H143      1.0  0.54590  0.09020  0.24180  1.0000 0.117815448
H   H144      1.0  0.25820  0.45410  0.59020  1.0000 0.117815448
H   H145      1.0  0.45410  0.59020  0.25820  1.0000 0.117815448
H   H146      1.0  0.75820  0.04590  0.40980  1.0000 0.117815448
H   H147      1.0  0.04590  0.40980  0.75820  1.0000 0.117815448
H   H148      1.0  0.24180  0.54590  0.09020  1.0000 0.117815448
H   H149      1.0  0.23210  0.27210  0.16000  1.0000 0.3709813908
H   H150      1.0  0.26790  0.72790  0.66000  1.0000 0.3709813908
H   H151      1.0  0.73210  0.22790  0.84000  1.0000 0.3709813908
H   H152      1.0  0.76790  0.77210  0.34000  1.0000 0.3709813908
H   H153      1.0  0.16000  0.23210  0.27210  1.0000 0.3709813908
H   H154      1.0  0.27210  0.16000  0.23210  1.0000 0.3709813908
H   H155      1.0  0.34000  0.76790  0.77210  1.0000 0.3709813908
H   H156      1.0  0.72790  0.66000  0.26790  1.0000 0.3709813908
H   H157      1.0  0.66000  0.26790  0.72790  1.0000 0.3709813908
H   H158      1.0  0.22790  0.84000  0.73210  1.0000 0.3709813908
H   H159      1.0  0.84000  0.73210  0.22790  1.0000 0.3709813908
H   H160      1.0  0.77210  0.34000  0.76790  1.0000 0.3709813908
H   H161      1.0  0.15587  0.15587  0.15587  1.0000 0.4210673886
H   H162      1.0  0.34413  0.84413  0.65587  1.0000 0.4210673886
H   H163      1.0  0.65587  0.34413  0.84413  1.0000 0.4210673886
H   H164      1.0  0.84413  0.65587  0.34413  1.0000 0.4210673886
H   H165      1.0  0.90080  0.23110  0.76160  1.0000 0.1090684857
H   H166      1.0  0.59920  0.76890  0.26160  1.0000 0.1090684857
H   H167      1.0  0.40080  0.26890  0.23840  1.0000 0.1090684857
H   H168      1.0  0.09920  0.73110  0.73840  1.0000 0.1090684857
H   H169      1.0  0.76160  0.90080  0.23110  1.0000 0.1090684857
H   H170      1.0  0.23110  0.76160  0.90080  1.0000 0.1090684857
H   H171      1.0  0.73840  0.09920  0.73110  1.0000 0.1090684857
H   H172      1.0  0.76890  0.26160  0.59920  1.0000 0.1090684857
H   H173      1.0  0.26160  0.59920  0.76890  1.0000 0.1090684857
H   H174      1.0  0.26890  0.23840  0.40080  1.0000 0.1090684857
H   H175      1.0  0.23840  0.40080  0.26890  1.0000 0.1090684857
H   H176      1.0  0.73110  0.73840  0.09920  1.0000 0.1090684857
H   H177      1.0  0.97910  0.21890  0.77530  1.0000 0.117815448
H   H178      1.0  0.52090  0.78110  0.27530  1.0000 0.117815448
H   H179      1.0  0.47910  0.28110  0.22470  1.0000 0.117815448
H   H180      1.0  0.02090  0.71890  0.72470  1.0000 0.117815448
H   H181      1.0  0.77530  0.97910  0.21890  1.0000 0.117815448
H   H182      1.0  0.21890  0.77530  0.97910  1.0000 0.117815448
H   H183      1.0  0.72470  0.02090  0.71890  1.0000 0.117815448
H   H184      1.0  0.78110  0.27530  0.52090  1.0000 0.117815448
H   H185      1.0  0.27530  0.52090  0.78110  1.0000 0.117815448
H   H186      1.0  0.28110  0.22470  0.47910  1.0000 0.117815448
H   H187      1.0  0.22470  0.47910  0.28110  1.0000 0.117815448
H   H188      1.0  0.71890  0.72470  0.02090  1.0000 0.117815448
H   H189      1.0  0.96720  0.28850  0.89040  1.0000 0.117815448
H   H190      1.0  0.53280  0.71150  0.39040  1.0000 0.117815448
H   H191      1.0  0.46720  0.21150  0.10960  1.0000 0.117815448
H   H192      1.0  0.03280  0.78850  0.60960  1.0000 0.117815448
H   H193      1.0  0.89040  0.96720  0.28850  1.0000 0.117815448
H   H194      1.0  0.28850  0.89040  0.96720  1.0000 0.117815448
H   H195      1.0  0.60960  0.03280  0.78850  1.0000 0.117815448
H   H196      1.0  0.71150  0.39040  0.53280  1.0000 0.117815448
H   H197      1.0  0.39040  0.53280  0.71150  1.0000 0.117815448
H   H198      1.0  0.21150  0.10960  0.46720  1.0000 0.117815448
H   H199      1.0  0.10960  0.46720  0.21150  1.0000 0.117815448
H   H200      1.0  0.78850  0.60960  0.03280  1.0000 0.117815448
H   H201      1.0  0.89050  0.29900  0.87850  1.0000 0.117815448
H   H202      1.0  0.60950  0.70100  0.37850  1.0000 0.117815448
H   H203      1.0  0.39050  0.20100  0.12150  1.0000 0.117815448
H   H204      1.0  0.10950  0.79900  0.62150  1.0000 0.117815448
H   H205      1.0  0.87850  0.89050  0.29900  1.0000 0.117815448
H   H206      1.0  0.29900  0.87850  0.89050  1.0000 0.117815448
H   H207      1.0  0.62150  0.10950  0.79900  1.0000 0.117815448
H   H208      1.0  0.70100  0.37850  0.60950  1.0000 0.117815448
H   H209      1.0  0.37850  0.60950  0.70100  1.0000 0.117815448
H   H210      1.0  0.20100  0.12150  0.39050  1.0000 0.117815448
H   H211      1.0  0.12150  0.39050  0.20100  1.0000 0.117815448
H   H212      1.0  0.79900  0.62150  0.10950  1.0000 0.117815448
H   H213      1.0  0.05080  0.25800  0.78000  1.0000 0.101487195
H   H214      1.0  0.44920  0.74200  0.28000  1.0000 0.101487195
H   H215      1.0  0.55080  0.24200  0.22000  1.0000 0.101487195
H   H216      1.0  0.94920  0.75800  0.72000  1.0000 0.101487195
H   H217      1.0  0.78000  0.05080  0.25800  1.0000 0.101487195
H   H218      1.0  0.25800  0.78000  0.05080  1.0000 0.101487195
H   H219      1.0  0.72000  0.94920  0.75800  1.0000 0.101487195
H   H220      1.0  0.74200  0.28000  0.44920  1.0000 0.101487195
H   H221      1.0  0.28000  0.44920  0.74200  1.0000 0.101487195
H   H222      1.0  0.24200  0.22000  0.55080  1.0000 0.101487195
H   H223      1.0  0.22000  0.55080  0.24200  1.0000 0.101487195
H   H224      1.0  0.75800  0.72000  0.94920  1.0000 0.101487195
H   H225      1.0  0.02820  0.24430  0.91220  1.0000 0.1090684857
H   H226      1.0  0.47180  0.75570  0.41220  1.0000 0.1090684857
H   H227      1.0  0.52820  0.25570  0.08780  1.0000 0.1090684857
H   H228      1.0  0.97180  0.74430  0.58780  1.0000 0.1090684857
H   H229      1.0  0.91220  0.02820  0.24430  1.0000 0.1090684857
H   H230      1.0  0.24430  0.91220  0.02820  1.0000 0.1090684857
H   H231      1.0  0.58780  0.97180  0.74430  1.0000 0.1090684857
H   H232      1.0  0.75570  0.41220  0.47180  1.0000 0.1090684857
H   H233      1.0  0.41220  0.47180  0.75570  1.0000 0.1090684857
H   H234      1.0  0.25570  0.08780  0.52820  1.0000 0.1090684857
H   H235      1.0  0.08780  0.52820  0.25570  1.0000 0.1090684857
H   H236      1.0  0.74430  0.58780  0.97180  1.0000 0.1090684857
H   H237      1.0  0.15400  0.24280  0.86270  1.0000 0.1090684857
H   H238      1.0  0.34600  0.75720  0.36270  1.0000 0.1090684857
H   H239      1.0  0.65400  0.25720  0.13730  1.0000 0.1090684857
H   H240      1.0  0.84600  0.74280  0.63730  1.0000 0.1090684857
H   H241      1.0  0.86270  0.15400  0.24280  1.0000 0.1090684857
H   H242      1.0  0.24280  0.86270  0.15400  1.0000 0.1090684857
H   H243      1.0  0.63730  0.84600  0.74280  1.0000 0.1090684857
H   H244      1.0  0.75720  0.36270  0.34600  1.0000 0.1090684857
H   H245      1.0  0.36270  0.34600  0.75720  1.0000 0.1090684857
H   H246      1.0  0.25720  0.13730  0.65400  1.0000 0.1090684857
H   H247      1.0  0.13730  0.65400  0.25720  1.0000 0.1090684857
H   H248      1.0  0.74280  0.63730  0.84600  1.0000 0.1090684857
H   H249      1.0  0.19990  0.19590  0.99550  1.0000 0.117815448
H   H250      1.0  0.30010  0.80410  0.49550  1.0000 0.117815448
H   H251      1.0  0.69990  0.30410  0.00450  1.0000 0.117815448
H   H252      1.0  0.80010  0.69590  0.50450  1.0000 0.117815448
H   H253      1.0  0.99550  0.19990  0.19590  1.0000 0.117815448
H   H254      1.0  0.19590  0.99550  0.19990  1.0000 0.117815448
H   H255      1.0  0.50450  0.80010  0.69590  1.0000 0.117815448
H   H256      1.0  0.80410  0.49550  0.30010  1.0000 0.117815448
H   H257      1.0  0.49550  0.30010  0.80410  1.0000 0.117815448
H   H258      1.0  0.30410  0.00450  0.69990  1.0000 0.117815448
H   H259      1.0  0.00450  0.69990  0.30410  1.0000 0.117815448
H   H260      1.0  0.69590  0.50450  0.80010  1.0000 0.117815448
H   H261      1.0  0.17040  0.20250  0.92380  1.0000 0.1090684857
H   H262      1.0  0.32960  0.79750  0.42380  1.0000 0.1090684857
H   H263      1.0  0.67040  0.29750  0.07620  1.0000 0.1090684857
H   H264      1.0  0.82960  0.70250  0.57620  1.0000 0.1090684857
H   H265      1.0  0.92380  0.17040  0.20250  1.0000 0.1090684857
H   H266      1.0  0.20250  0.92380  0.17040  1.0000 0.1090684857
H   H267      1.0  0.57620  0.82960  0.70250  1.0000 0.1090684857
H   H268      1.0  0.79750  0.42380  0.32960  1.0000 0.1090684857
H   H269      1.0  0.42380  0.32960  0.79750  1.0000 0.1090684857
H   H270      1.0  0.29750  0.07620  0.67040  1.0000 0.1090684857
H   H271      1.0  0.07620  0.67040  0.29750  1.0000 0.1090684857
H   H272      1.0  0.70250  0.57620  0.82960  1.0000 0.1090684857
H   H273      1.0  0.06410  0.27200  0.97170  1.0000 0.117815448
H   H274      1.0  0.43590  0.72800  0.47170  1.0000 0.117815448
H   H275      1.0  0.56410  0.22800  0.02830  1.0000 0.117815448
H   H276      1.0  0.93590  0.77200  0.52830  1.0000 0.117815448
H   H277      1.0  0.97170  0.06410  0.27200  1.0000 0.117815448
H   H278      1.0  0.27200  0.97170  0.06410  1.0000 0.117815448
H   H279      1.0  0.52830  0.93590  0.77200  1.0000 0.117815448
H   H280      1.0  0.72800  0.47170  0.43590  1.0000 0.117815448
H   H281      1.0  0.47170  0.43590  0.72800  1.0000 0.117815448
H   H282      1.0  0.22800  0.02830  0.56410  1.0000 0.117815448
H   H283      1.0  0.02830  0.56410  0.22800  1.0000 0.117815448
H   H284      1.0  0.77200  0.52830  0.93590  1.0000 0.117815448
H   H285      1.0  0.09020  0.25820  0.04590  1.0000 0.117815448
H   H286      1.0  0.40980  0.74180  0.54590  1.0000 0.117815448
H   H287      1.0  0.59020  0.24180  0.95410  1.0000 0.117815448
H   H288      1.0  0.90980  0.75820  0.45410  1.0000 0.117815448
H   H289      1.0  0.04590  0.09020  0.25820  1.0000 0.117815448
H   H290      1.0  0.25820  0.04590  0.09020  1.0000 0.117815448
H   H291      1.0  0.45410  0.90980  0.75820  1.0000 0.117815448
H   H292      1.0  0.74180  0.54590  0.40980  1.0000 0.117815448
H   H293      1.0  0.54590  0.40980  0.74180  1.0000 0.117815448
H   H294      1.0  0.24180  0.95410  0.59020  1.0000 0.117815448
H   H295      1.0  0.95410  0.59020  0.24180  1.0000 0.117815448
H   H296      1.0  0.75820  0.45410  0.90980  1.0000 0.117815448
C   C1        1.0  0.15930  0.73720  0.18380  1.0000 0.562151065
C   C2        1.0  0.34070  0.26280  0.68380  1.0000 0.562151065
C   C3        1.0  0.65930  0.76280  0.81620  1.0000 0.562151065
C   C4        1.0  0.84070  0.23720  0.31620  1.0000 0.562151065
C   C5        1.0  0.18380  0.15930  0.73720  1.0000 0.562151065
C   C6        1.0  0.73720  0.18380  0.15930  1.0000 0.562151065
C   C7        1.0  0.31620  0.84070  0.23720  1.0000 0.562151065
C   C8        1.0  0.26280  0.68380  0.34070  1.0000 0.562151065
C   C9        1.0  0.68380  0.34070  0.26280  1.0000 0.562151065
C   C10       1.0  0.76280  0.81620  0.65930  1.0000 0.562151065
C   C11       1.0  0.81620  0.65930  0.76280  1.0000 0.562151065
C   C12       1.0  0.23720  0.31620  0.84070  1.0000 0.562151065
C   C13       1.0  0.11280  0.73360  0.18050  1.0000 -0.1134089913
C   C14       1.0  0.38720  0.26640  0.68050  1.0000 -0.1134089913
C   C15       1.0  0.61280  0.76640  0.81950  1.0000 -0.1134089913
C   C16       1.0  0.88720  0.23360  0.31950  1.0000 -0.1134089913
C   C17       1.0  0.18050  0.11280  0.73360  1.0000 -0.1134089913
C   C18       1.0  0.73360  0.18050  0.11280  1.0000 -0.1134089913
C   C19       1.0  0.31950  0.88720  0.23360  1.0000 -0.1134089913
C   C20       1.0  0.26640  0.68050  0.38720  1.0000 -0.1134089913
C   C21       1.0  0.68050  0.38720  0.26640  1.0000 -0.1134089913
C   C22       1.0  0.76640  0.81950  0.61280  1.0000 -0.1134089913
C   C23       1.0  0.81950  0.61280  0.76640  1.0000 -0.1134089913
C   C24       1.0  0.23360  0.31950  0.88720  1.0000 -0.1134089913
C   C25       1.0  0.08590  0.75740  0.21200  1.0000 -0.06310785
C   C26       1.0  0.41410  0.24260  0.71200  1.0000 -0.06310785
C   C27       1.0  0.58590  0.74260  0.78800  1.0000 -0.06310785
C   C28       1.0  0.91410  0.25740  0.28800  1.0000 -0.06310785
C   C29       1.0  0.21200  0.08590  0.75740  1.0000 -0.06310785
C   C30       1.0  0.75740  0.21200  0.08590  1.0000 -0.06310785
C   C31       1.0  0.28800  0.91410  0.25740  1.0000 -0.06310785
C   C32       1.0  0.24260  0.71200  0.41410  1.0000 -0.06310785
C   C33       1.0  0.71200  0.41410  0.24260  1.0000 -0.06310785
C   C34       1.0  0.74260  0.78800  0.58590  1.0000 -0.06310785
C   C35       1.0  0.78800  0.58590  0.74260  1.0000 -0.06310785
C   C36       1.0  0.25740  0.28800  0.91410  1.0000 -0.06310785
C   C37       1.0  0.03820  0.76420  0.20420  1.0000 -0.1835848038
C   C38       1.0  0.46180  0.23580  0.70420  1.0000 -0.1835848038
C   C39       1.0  0.53820  0.73580  0.79580  1.0000 -0.1835848038
C   C40       1.0  0.96180  0.26420  0.29580  1.0000 -0.1835848038
C   C41       1.0  0.20420  0.03820  0.76420  1.0000 -0.1835848038
C   C42       1.0  0.76420  0.20420  0.03820  1.0000 -0.1835848038
C   C43       1.0  0.29580  0.96180  0.26420  1.0000 -0.1835848038
C   C44       1.0  0.23580  0.70420  0.46180  1.0000 -0.1835848038
C   C45       1.0  0.70420  0.46180  0.23580  1.0000 -0.1835848038
C   C46       1.0  0.73580  0.79580  0.53820  1.0000 -0.1835848038
C   C47       1.0  0.79580  0.53820  0.73580  1.0000 -0.1835848038
C   C48       1.0  0.26420  0.29580  0.96180  1.0000 -0.1835848038
C   C49       1.0  0.01860  0.74580  0.16670  1.0000 0.0799076207
C   C50       1.0  0.48140  0.25420  0.66667  1.0000 0.0799076207
C   C51       1.0  0.51860  0.75420  0.83330  1.0000 0.0799076207
C   C52       1.0  0.98140  0.24580  0.33333  1.0000 0.0799076207
C   C53       1.0  0.16670  0.01860  0.74580  1.0000 0.0799076207
C   C54       1.0  0.74580  0.16670  0.01860  1.0000 0.0799076207
C   C55       1.0  0.33333  0.98140  0.24580  1.0000 0.0799076207
C   C56       1.0  0.25420  0.66667  0.48140  1.0000 0.0799076207
C   C57       1.0  0.66667  0.48140  0.25420  1.0000 0.0799076207
C   C58       1.0  0.75420  0.83330  0.51860  1.0000 0.0799076207
C   C59       1.0  0.83330  0.51860  0.75420  1.0000 0.0799076207
C   C60       1.0  0.24580  0.33333  0.98140  1.0000 0.0799076207
C   C61       1.0  0.04590  0.72310  0.13600  1.0000 -0.1677065437
C   C62       1.0  0.45410  0.27690  0.63600  1.0000 -0.1677065437
C   C63       1.0  0.54590  0.77690  0.86400  1.0000 -0.1677065437
C   C64       1.0  0.95410  0.22310  0.36400  1.0000 -0.1677065437
C   C65       1.0  0.13600  0.04590  0.72310  1.0000 -0.1677065437
C   C66       1.0  0.72310  0.13600  0.04590  1.0000 -0.1677065437
C   C67       1.0  0.36400  0.95410  0.22310  1.0000 -0.1677065437
C   C68       1.0  0.27690  0.63600  0.45410  1.0000 -0.1677065437
C   C69       1.0  0.63600  0.45410  0.27690  1.0000 -0.1677065437
C   C70       1.0  0.77690  0.86400  0.54590  1.0000 -0.1677065437
C   C71       1.0  0.86400  0.54590  0.77690  1.0000 -0.1677065437
C   C72       1.0  0.22310  0.36400  0.95410  1.0000 -0.1677065437
C   C73       1.0  0.09240  0.71690  0.14300  1.0000 -0.0734147533
C   C74       1.0  0.40760  0.28310  0.64300  1.0000 -0.0734147533
C   C75       1.0  0.59240  0.78310  0.85700  1.0000 -0.0734147533
C   C76       1.0  0.90760  0.21690  0.35700  1.0000 -0.0734147533
C   C77       1.0  0.14300  0.09240  0.71690  1.0000 -0.0734147533
C   C78       1.0  0.71690  0.14300  0.09240  1.0000 -0.0734147533
C   C79       1.0  0.35700  0.90760  0.21690  1.0000 -0.0734147533
C   C80       1.0  0.28310  0.64300  0.40760  1.0000 -0.0734147533
C   C81       1.0  0.64300  0.40760  0.28310  1.0000 -0.0734147533
C   C82       1.0  0.78310  0.85700  0.59240  1.0000 -0.0734147533
C   C83       1.0  0.85700  0.59240  0.78310  1.0000 -0.0734147533
C   C84       1.0  0.21690  0.35700  0.90760  1.0000 -0.0734147533
C   C85       1.0  0.93780  0.74710  0.19080  1.0000 0.0217391847
C   C86       1.0  0.56220  0.25290  0.69080  1.0000 0.0217391847
C   C87       1.0  0.43780  0.75290  0.80920  1.0000 0.0217391847
C   C88       1.0  0.06220  0.24710  0.30920  1.0000 0.0217391847
C   C89       1.0  0.19080  0.93780  0.74710  1.0000 0.0217391847
C   C90       1.0  0.74710  0.19080  0.93780  1.0000 0.0217391847
C   C91       1.0  0.30920  0.06220  0.24710  1.0000 0.0217391847
C   C92       1.0  0.25290  0.69080  0.56220  1.0000 0.0217391847
C   C93       1.0  0.69080  0.56220  0.25290  1.0000 0.0217391847
C   C94       1.0  0.75290  0.80920  0.43780  1.0000 0.0217391847
C   C95       1.0  0.80920  0.43780  0.75290  1.0000 0.0217391847
C   C96       1.0  0.24710  0.30920  0.06220  1.0000 0.0217391847
C   C97       1.0  0.96970  0.75060  0.15580  1.0000 0.0267540014
C   C98       1.0  0.53030  0.24940  0.65580  1.0000 0.0217391847
C   C99       1.0  0.46970  0.74940  0.84420  1.0000 0.0217391847
C   C100      1.0  0.03030  0.25060  0.34420  1.0000 0.0217391847
C   C101      1.0  0.15580  0.96970  0.75060  1.0000 0.0267540014
C   C102      1.0  0.75060  0.15580  0.96970  1.0000 0.0267540014
C   C103      1.0  0.34420  0.03030  0.25060  1.0000 0.0217391847
C   C104      1.0  0.24940  0.65580  0.53030  1.0000 0.0267540014
C   C105      1.0  0.65580  0.53030  0.24940  1.0000 0.0217391847
C   C106      1.0  0.74940  0.84420  0.46970  1.0000 0.0217391847
C   C107      1.0  0.84420  0.46970  0.74940  1.0000 0.0217391847
C   C108      1.0  0.25060  0.34420  0.03030  1.0000 0.0217391847
C   C109      1.0  0.95220  0.75500  0.11270  1.0000 -0.1415555385
C   C110      1.0  0.54780  0.24500  0.61270  1.0000 -0.1415555385
C   C111      1.0  0.45220  0.74500  0.88730  1.0000 -0.1415555385
C   C112      1.0  0.04780  0.25500  0.38730  1.0000 -0.1415555385
C   C113      1.0  0.11270  0.95220  0.75500  1.0000 -0.1415555385
C   C114      1.0  0.75500  0.11270  0.95220  1.0000 -0.1415555385
C   C115      1.0  0.38730  0.04780  0.25500  1.0000 -0.1415555385
C   C116      1.0  0.24500  0.61270  0.54780  1.0000 -0.1415555385
C   C117      1.0  0.61270  0.54780  0.24500  1.0000 -0.1415555385
C   C118      1.0  0.74500  0.88730  0.45220  1.0000 -0.1415555385
C   C119      1.0  0.88730  0.45220  0.74500  1.0000 -0.1415555385
C   C120      1.0  0.25500  0.38730  0.04780  1.0000 -0.1415555385
C   C121      1.0  0.90610  0.75830  0.10570  1.0000 0.0267540014
C   C122      1.0  0.59390  0.24170  0.60570  1.0000 0.0267540014
C   C123      1.0  0.40610  0.74170  0.89430  1.0000 0.0267540014
C   C124      1.0  0.09390  0.25830  0.39430  1.0000 0.0267540014
C   C125      1.0  0.10570  0.90610  0.75830  1.0000 0.0267540014
C   C126      1.0  0.75830  0.10570  0.90610  1.0000 0.0267540014
C   C127      1.0  0.39430  0.09390  0.25830  1.0000 0.0267540014
C   C128      1.0  0.24170  0.60570  0.59390  1.0000 0.0267540014
C   C129      1.0  0.60570  0.59390  0.24170  1.0000 0.0267540014
C   C130      1.0  0.74170  0.89430  0.40610  1.0000 0.0267540014
C   C131      1.0  0.89430  0.40610  0.74170  1.0000 0.0267540014
C   C132      1.0  0.25830  0.39430  0.09390  1.0000 0.0267540014
C   C133      1.0  0.87720  0.75540  0.14250  1.0000 -0.0170898064
C   C134      1.0  0.62280  0.24460  0.64250  1.0000 -0.0170898064
C   C135      1.0  0.37720  0.74460  0.85750  1.0000 -0.0170898064
C   C136      1.0  0.12280  0.25540  0.35750  1.0000 -0.0170898064
C   C137      1.0  0.14250  0.87720  0.75540  1.0000 -0.0170898064
C   C138      1.0  0.75540  0.14250  0.87720  1.0000 -0.0170898064
C   C139      1.0  0.35750  0.12280  0.25540  1.0000 -0.0170898064
C   C140      1.0  0.24460  0.64250  0.62280  1.0000 -0.0170898064
C   C141      1.0  0.64250  0.62280  0.24460  1.0000 -0.0170898064
C   C142      1.0  0.74460  0.85750  0.37720  1.0000 -0.0170898064
C   C143      1.0  0.85750  0.37720  0.74460  1.0000 -0.0170898064
C   C144      1.0  0.25540  0.35750  0.12280  1.0000 -0.0170898064
C   C145      1.0  0.83360  0.77570  0.92190  1.0000 0.6284913674
C   C146      1.0  0.66640  0.22430  0.42190  1.0000 0.6284913674
C   C147      1.0  0.33360  0.72430  0.07810  1.0000 0.6284913674
C   C148      1.0  0.16640  0.27570  0.57810  1.0000 0.6284913674
C   C149      1.0  0.92190  0.83360  0.77570  1.0000 0.6284913674
C   C150      1.0  0.77570  0.92190  0.83360  1.0000 0.6284913674
C   C151      1.0  0.57810  0.16640  0.27570  1.0000 0.6284913674
C   C152      1.0  0.22430  0.42190  0.66640  1.0000 0.6284913674
C   C153      1.0  0.42190  0.66640  0.22430  1.0000 0.6284913674
C   C154      1.0  0.72430  0.07810  0.33360  1.0000 0.6284913674
C   C155      1.0  0.07810  0.33360  0.72430  1.0000 0.6284913674
C   C156      1.0  0.27570  0.57810  0.16640  1.0000 0.6284913674
C   C157      1.0  0.85130  0.77180  0.97080  1.0000 -0.0466313546
C   C158      1.0  0.64870  0.22820  0.47080  1.0000 -0.0466313546
C   C159      1.0  0.35130  0.72820  0.02920  1.0000 -0.0466313546
C   C160      1.0  0.14870  0.27180  0.52920  1.0000 -0.0466313546
C   C161      1.0  0.97080  0.85130  0.77180  1.0000 -0.0466313546
C   C162      1.0  0.77180  0.97080  0.85130  1.0000 -0.0466313546
C   C163      1.0  0.52920  0.14870  0.27180  1.0000 -0.0466313546
C   C164      1.0  0.22820  0.47080  0.64870  1.0000 -0.0466313546
C   C165      1.0  0.47080  0.64870  0.22820  1.0000 -0.0466313546
C   C166      1.0  0.72820  0.02920  0.35130  1.0000 -0.0466313546
C   C167      1.0  0.02920  0.35130  0.72820  1.0000 -0.0466313546
C   C168      1.0  0.27180  0.52920  0.14870  1.0000 -0.0466313546
C   C169      1.0  0.82800  0.78950  0.00870  1.0000 -0.0954365229
C   C170      1.0  0.67200  0.21050  0.50870  1.0000 -0.0954365229
C   C171      1.0  0.32800  0.71050  0.99130  1.0000 -0.0954365229
C   C172      1.0  0.17200  0.28950  0.49130  1.0000 -0.0954365229
C   C173      1.0  0.00870  0.82800  0.78950  1.0000 -0.0954365229
C   C174      1.0  0.78950  0.00870  0.82800  1.0000 -0.0954365229
C   C175      1.0  0.49130  0.17200  0.28950  1.0000 -0.0954365229
C   C176      1.0  0.21050  0.50870  0.67200  1.0000 -0.0954365229
C   C177      1.0  0.50870  0.67200  0.21050  1.0000 -0.0954365229
C   C178      1.0  0.71050  0.99130  0.32800  1.0000 -0.0954365229
C   C179      1.0  0.99130  0.32800  0.71050  1.0000 -0.093482134
C   C180      1.0  0.28950  0.49130  0.17200  1.0000 -0.0954365229
C   C181      1.0  0.84560  0.78540  0.05160  1.0000 -0.1648591255
C   C182      1.0  0.65440  0.21460  0.55160  1.0000 -0.1677065437
C   C183      1.0  0.34560  0.71460  0.94840  1.0000 -0.1677065437
C   C184      1.0  0.15440  0.28540  0.44840  1.0000 -0.1677065437
C   C185      1.0  0.05160  0.84560  0.78540  1.0000 -0.1677065437
C   C186      1.0  0.78540  0.05160  0.84560  1.0000 -0.1648591255
C   C187      1.0  0.44840  0.15440  0.28540  1.0000 -0.1677065437
C   C188      1.0  0.21460  0.55160  0.65440  1.0000 -0.1677065437
C   C189      1.0  0.55160  0.65440  0.21460  1.0000 -0.1677065437
C   C190      1.0  0.71460  0.94840  0.34560  1.0000 -0.1677065437
C   C191      1.0  0.94840  0.34560  0.71460  1.0000 -0.1677065437
C   C192      1.0  0.28540  0.44840  0.15440  1.0000 -0.1677065437
C   C193      1.0  0.88640  0.76370  0.05920  1.0000 0.0799076207
C   C194      1.0  0.61360  0.23630  0.55920  1.0000 0.0799076207
C   C195      1.0  0.38640  0.73630  0.94080  1.0000 0.0799076207
C   C196      1.0  0.11360  0.26370  0.44080  1.0000 0.0799076207
C   C197      1.0  0.05920  0.88640  0.76370  1.0000 0.0799076207
C   C198      1.0  0.76370  0.05920  0.88640  1.0000 0.0799076207
C   C199      1.0  0.44080  0.11360  0.26370  1.0000 0.0799076207
C   C200      1.0  0.23630  0.55920  0.61360  1.0000 0.0799076207
C   C201      1.0  0.55920  0.61360  0.23630  1.0000 0.0799076207
C   C202      1.0  0.73630  0.94080  0.38640  1.0000 0.0799076207
C   C203      1.0  0.94080  0.38640  0.73630  1.0000 0.0799076207
C   C204      1.0  0.26370  0.44080  0.11360  1.0000 0.0799076207
C   C205      1.0  0.90950  0.74490  0.02340  1.0000 -0.1677065437
C   C206      1.0  0.59050  0.25510  0.52340  1.0000 -0.1677065437
C   C207      1.0  0.40950  0.75510  0.97660  1.0000 -0.1677065437
C   C208      1.0  0.09050  0.24490  0.47660  1.0000 -0.1677065437
C   C209      1.0  0.02340  0.90950  0.74490  1.0000 -0.1677065437
C   C210      1.0  0.74490  0.02340  0.90950  1.0000 -0.1677065437
C   C211      1.0  0.47660  0.09050  0.24490  1.0000 -0.1677065437
C   C212      1.0  0.25510  0.52340  0.59050  1.0000 -0.1677065437
C   C213      1.0  0.52340  0.59050  0.25510  1.0000 -0.1677065437
C   C214      1.0  0.75510  0.97660  0.40950  1.0000 -0.1677065437
C   C215      1.0  0.97660  0.40950  0.75510  1.0000 -0.1677065437
C   C216      1.0  0.24490  0.47660  0.09050  1.0000 -0.1677065437
C   C217      1.0  0.89240  0.75150  0.97880  1.0000 -0.093482134
C   C218      1.0  0.60760  0.24850  0.47880  1.0000 -0.093482134
C   C219      1.0  0.39240  0.74850  0.02120  1.0000 -0.093482134
C   C220      1.0  0.10760  0.25150  0.52120  1.0000 -0.093482134
C   C221      1.0  0.97880  0.89240  0.75150  1.0000 -0.093482134
C   C222      1.0  0.75150  0.97880  0.89240  1.0000 -0.093482134
C   C223      1.0  0.52120  0.10760  0.25150  1.0000 -0.093482134
C   C224      1.0  0.24850  0.47880  0.60760  1.0000 -0.093482134
C   C225      1.0  0.47880  0.60760  0.24850  1.0000 -0.093482134
C   C226      1.0  0.74850  0.02120  0.39240  1.0000 -0.093482134
C   C227      1.0  0.02120  0.39240  0.74850  1.0000 -0.093482134
C   C228      1.0  0.25150  0.52120  0.10760  1.0000 -0.093482134
C   C229      1.0  0.84070  0.26280  0.81620  1.0000 0.562151065
C   C230      1.0  0.65930  0.73720  0.31620  1.0000 0.562151065
C   C231      1.0  0.34070  0.23720  0.18380  1.0000 0.562151065
C   C232      1.0  0.15930  0.76280  0.68380  1.0000 0.562151065
C   C233      1.0  0.81620  0.84070  0.26280  1.0000 0.562151065
C   C234      1.0  0.26280  0.81620  0.84070  1.0000 0.562151065
C   C235      1.0  0.68380  0.15930  0.76280  1.0000 0.562151065
C   C236      1.0  0.73720  0.31620  0.65930  1.0000 0.562151065
C   C237      1.0  0.31620  0.65930  0.73720  1.0000 0.562151065
C   C238      1.0  0.23720  0.18380  0.34070  1.0000 0.562151065
C   C239      1.0  0.18380  0.34070  0.23720  1.0000 0.562151065
C   C240      1.0  0.76280  0.68380  0.15930  1.0000 0.562151065
C   C241      1.0  0.88720  0.26640  0.81950  1.0000 -0.1134089913
C   C242      1.0  0.61280  0.73360  0.31950  1.0000 -0.1134089913
C   C243      1.0  0.38720  0.23360  0.18050  1.0000 -0.1134089913
C   C244      1.0  0.11280  0.76640  0.68050  1.0000 -0.1134089913
C   C245      1.0  0.81950  0.88720  0.26640  1.0000 -0.1134089913
C   C246      1.0  0.26640  0.81950  0.88720  1.0000 -0.1134089913
C   C247      1.0  0.68050  0.11280  0.76640  1.0000 -0.1134089913
C   C248      1.0  0.73360  0.31950  0.61280  1.0000 -0.1134089913
C   C249      1.0  0.31950  0.61280  0.73360  1.0000 -0.1134089913
C   C250      1.0  0.23360  0.18050  0.38720  1.0000 -0.1134089913
C   C251      1.0  0.18050  0.38720  0.23360  1.0000 -0.1134089913
C   C252      1.0  0.76640  0.68050  0.11280  1.0000 -0.1134089913
C   C253      1.0  0.91410  0.24260  0.78800  1.0000 -0.06310785
C   C254      1.0  0.58590  0.75740  0.28800  1.0000 -0.06310785
C   C255      1.0  0.41410  0.25740  0.21200  1.0000 -0.06310785
C   C256      1.0  0.08590  0.74260  0.71200  1.0000 -0.06310785
C   C257      1.0  0.78800  0.91410  0.24260  1.0000 -0.06310785
C   C258      1.0  0.24260  0.78800  0.91410  1.0000 -0.06310785
C   C259      1.0  0.71200  0.08590  0.74260  1.0000 -0.06310785
C   C260      1.0  0.75740  0.28800  0.58590  1.0000 -0.06310785
C   C261      1.0  0.28800  0.58590  0.75740  1.0000 -0.06310785
C   C262      1.0  0.25740  0.21200  0.41410  1.0000 -0.06310785
C   C263      1.0  0.21200  0.41410  0.25740  1.0000 -0.06310785
C   C264      1.0  0.74260  0.71200  0.08590  1.0000 -0.06310785
C   C265      1.0  0.96180  0.23580  0.79580  1.0000 -0.1835848038
C   C266      1.0  0.53820  0.76420  0.29580  1.0000 -0.1835848038
C   C267      1.0  0.46180  0.26420  0.20420  1.0000 -0.1835848038
C   C268      1.0  0.03820  0.73580  0.70420  1.0000 -0.1835848038
C   C269      1.0  0.79580  0.96180  0.23580  1.0000 -0.1835848038
C   C270      1.0  0.23580  0.79580  0.96180  1.0000 -0.1835848038
C   C271      1.0  0.70420  0.03820  0.73580  1.0000 -0.1835848038
C   C272      1.0  0.76420  0.29580  0.53820  1.0000 -0.1835848038
C   C273      1.0  0.29580  0.53820  0.76420  1.0000 -0.1835848038
C   C274      1.0  0.26420  0.20420  0.46180  1.0000 -0.1835848038
C   C275      1.0  0.20420  0.46180  0.26420  1.0000 -0.1835848038
C   C276      1.0  0.73580  0.70420  0.03820  1.0000 -0.1835848038
C   C277      1.0  0.98140  0.25420  0.83330  1.0000 0.0799076207
C   C278      1.0  0.51860  0.74580  0.33333  1.0000 0.0799076207
C   C279      1.0  0.48140  0.24580  0.16670  1.0000 0.0799076207
C   C280      1.0  0.01860  0.75420  0.66667  1.0000 0.0799076207
C   C281      1.0  0.83330  0.98140  0.25420  1.0000 0.0799076207
C   C282      1.0  0.25420  0.83330  0.98140  1.0000 0.0799076207
C   C283      1.0  0.66667  0.01860  0.75420  1.0000 0.0799076207
C   C284      1.0  0.74580  0.33333  0.51860  1.0000 0.0799076207
C   C285      1.0  0.33333  0.51860  0.74580  1.0000 0.0799076207
C   C286      1.0  0.24580  0.16670  0.48140  1.0000 0.0799076207
C   C287      1.0  0.16670  0.48140  0.24580  1.0000 0.0799076207
C   C288      1.0  0.75420  0.66667  0.01860  1.0000 0.0799076207
C   C289      1.0  0.95410  0.27690  0.86400  1.0000 -0.1677065437
C   C290      1.0  0.54590  0.72310  0.36400  1.0000 -0.1677065437
C   C291      1.0  0.45410  0.22310  0.13600  1.0000 -0.1677065437
C   C292      1.0  0.04590  0.77690  0.63600  1.0000 -0.1677065437
C   C293      1.0  0.86400  0.95410  0.27690  1.0000 -0.1677065437
C   C294      1.0  0.27690  0.86400  0.95410  1.0000 -0.1677065437
C   C295      1.0  0.63600  0.04590  0.77690  1.0000 -0.1677065437
C   C296      1.0  0.72310  0.36400  0.54590  1.0000 -0.1677065437
C   C297      1.0  0.36400  0.54590  0.72310  1.0000 -0.1677065437
C   C298      1.0  0.22310  0.13600  0.45410  1.0000 -0.1677065437
C   C299      1.0  0.13600  0.45410  0.22310  1.0000 -0.1677065437
C   C300      1.0  0.77690  0.63600  0.04590  1.0000 -0.1677065437
C   C301      1.0  0.90760  0.28310  0.85700  1.0000 -0.0734147533
C   C302      1.0  0.59240  0.71690  0.35700  1.0000 -0.0734147533
C   C303      1.0  0.40760  0.21690  0.14300  1.0000 -0.0734147533
C   C304      1.0  0.09240  0.78310  0.64300  1.0000 -0.0734147533
C   C305      1.0  0.85700  0.90760  0.28310  1.0000 -0.0734147533
C   C306      1.0  0.28310  0.85700  0.90760  1.0000 -0.0734147533
C   C307      1.0  0.64300  0.09240  0.78310  1.0000 -0.0734147533
C   C308      1.0  0.71690  0.35700  0.59240  1.0000 -0.0734147533
C   C309      1.0  0.35700  0.59240  0.71690  1.0000 -0.0734147533
C   C310      1.0  0.21690  0.14300  0.40760  1.0000 -0.0734147533
C   C311      1.0  0.14300  0.40760  0.21690  1.0000 -0.0734147533
C   C312      1.0  0.78310  0.64300  0.09240  1.0000 -0.0734147533
C   C313      1.0  0.06220  0.25290  0.80920  1.0000 0.0217391847
C   C314      1.0  0.43780  0.74710  0.30920  1.0000 0.0217391847
C   C315      1.0  0.56220  0.24710  0.19080  1.0000 0.0217391847
C   C316      1.0  0.93780  0.75290  0.69080  1.0000 0.0217391847
C   C317      1.0  0.80920  0.06220  0.25290  1.0000 0.0217391847
C   C318      1.0  0.25290  0.80920  0.06220  1.0000 0.0217391847
C   C319      1.0  0.69080  0.93780  0.75290  1.0000 0.0217391847
C   C320      1.0  0.74710  0.30920  0.43780  1.0000 0.0217391847
C   C321      1.0  0.30920  0.43780  0.74710  1.0000 0.0217391847
C   C322      1.0  0.24710  0.19080  0.56220  1.0000 0.0217391847
C   C323      1.0  0.19080  0.56220  0.24710  1.0000 0.0217391847
C   C324      1.0  0.75290  0.69080  0.93780  1.0000 0.0217391847
C   C325      1.0  0.03030  0.24940  0.84420  1.0000 0.0217391847
C   C326      1.0  0.46970  0.75060  0.34420  1.0000 0.0217391847
C   C327      1.0  0.53030  0.25060  0.15580  1.0000 0.0267540014
C   C328      1.0  0.96970  0.74940  0.65580  1.0000 0.0217391847
C   C329      1.0  0.84420  0.03030  0.24940  1.0000 0.0217391847
C   C330      1.0  0.24940  0.84420  0.03030  1.0000 0.0217391847
C   C331      1.0  0.65580  0.96970  0.74940  1.0000 0.0217391847
C   C332      1.0  0.75060  0.34420  0.46970  1.0000 0.0217391847
C   C333      1.0  0.34420  0.46970  0.75060  1.0000 0.0217391847
C   C334      1.0  0.25060  0.15580  0.53030  1.0000 0.0267540014
C   C335      1.0  0.15580  0.53030  0.25060  1.0000 0.0267540014
C   C336      1.0  0.74940  0.65580  0.96970  1.0000 0.0217391847
C   C337      1.0  0.04780  0.24500  0.88730  1.0000 -0.1415555385
C   C338      1.0  0.45220  0.75500  0.38730  1.0000 -0.1415555385
C   C339      1.0  0.54780  0.25500  0.11270  1.0000 -0.1415555385
C   C340      1.0  0.95220  0.74500  0.61270  1.0000 -0.1415555385
C   C341      1.0  0.88730  0.04780  0.24500  1.0000 -0.1415555385
C   C342      1.0  0.24500  0.88730  0.04780  1.0000 -0.1415555385
C   C343      1.0  0.61270  0.95220  0.74500  1.0000 -0.1415555385
C   C344      1.0  0.75500  0.38730  0.45220  1.0000 -0.1415555385
C   C345      1.0  0.38730  0.45220  0.75500  1.0000 -0.1415555385
C   C346      1.0  0.25500  0.11270  0.54780  1.0000 -0.1415555385
C   C347      1.0  0.11270  0.54780  0.25500  1.0000 -0.1415555385
C   C348      1.0  0.74500  0.61270  0.95220  1.0000 -0.1415555385
C   C349      1.0  0.09390  0.24170  0.89430  1.0000 0.0267540014
C   C350      1.0  0.40610  0.75830  0.39430  1.0000 0.0267540014
C   C351      1.0  0.59390  0.25830  0.10570  1.0000 0.0267540014
C   C352      1.0  0.90610  0.74170  0.60570  1.0000 0.0267540014
C   C353      1.0  0.89430  0.09390  0.24170  1.0000 0.0267540014
C   C354      1.0  0.24170  0.89430  0.09390  1.0000 0.0267540014
C   C355      1.0  0.60570  0.90610  0.74170  1.0000 0.0267540014
C   C356      1.0  0.75830  0.39430  0.40610  1.0000 0.0267540014
C   C357      1.0  0.39430  0.40610  0.75830  1.0000 0.0267540014
C   C358      1.0  0.25830  0.10570  0.59390  1.0000 0.0267540014
C   C359      1.0  0.10570  0.59390  0.25830  1.0000 0.0267540014
C   C360      1.0  0.74170  0.60570  0.90610  1.0000 0.0267540014
C   C361      1.0  0.12280  0.24460  0.85750  1.0000 -0.0170898064
C   C362      1.0  0.37720  0.75540  0.35750  1.0000 -0.0170898064
C   C363      1.0  0.62280  0.25540  0.14250  1.0000 -0.0170898064
C   C364      1.0  0.87720  0.74460  0.64250  1.0000 -0.0170898064
C   C365      1.0  0.85750  0.12280  0.24460  1.0000 -0.0170898064
C   C366      1.0  0.24460  0.85750  0.12280  1.0000 -0.0170898064
C   C367      1.0  0.64250  0.87720  0.74460  1.0000 -0.0170898064
C   C368      1.0  0.75540  0.35750  0.37720  1.0000 -0.0170898064
C   C369      1.0  0.35750  0.37720  0.75540  1.0000 -0.0170898064
C   C370      1.0  0.25540  0.14250  0.62280  1.0000 -0.0170898064
C   C371      1.0  0.14250  0.62280  0.25540  1.0000 -0.0170898064
C   C372      1.0  0.74460  0.64250  0.87720  1.0000 -0.0170898064
C   C373      1.0  0.16640  0.22430  0.07810  1.0000 0.6284913674
C   C374      1.0  0.33360  0.77570  0.57810  1.0000 0.6284913674
C   C375      1.0  0.66640  0.27570  0.92190  1.0000 0.6284913674
C   C376      1.0  0.83360  0.72430  0.42190  1.0000 0.6284913674
C   C377      1.0  0.07810  0.16640  0.22430  1.0000 0.6284913674
C   C378      1.0  0.22430  0.07810  0.16640  1.0000 0.6284913674
C   C379      1.0  0.42190  0.83360  0.72430  1.0000 0.6284913674
C   C380      1.0  0.77570  0.57810  0.33360  1.0000 0.6284913674
C   C381      1.0  0.57810  0.33360  0.77570  1.0000 0.6284913674
C   C382      1.0  0.27570  0.92190  0.66640  1.0000 0.6284913674
C   C383      1.0  0.92190  0.66640  0.27570  1.0000 0.6284913674
C   C384      1.0  0.72430  0.42190  0.83360  1.0000 0.6284913674
C   C385      1.0  0.14870  0.22820  0.02920  1.0000 -0.0466313546
C   C386      1.0  0.35130  0.77180  0.52920  1.0000 -0.0466313546
C   C387      1.0  0.64870  0.27180  0.97080  1.0000 -0.0466313546
C   C388      1.0  0.85130  0.72820  0.47080  1.0000 -0.0466313546
C   C389      1.0  0.02920  0.14870  0.22820  1.0000 -0.0466313546
C   C390      1.0  0.22820  0.02920  0.14870  1.0000 -0.0466313546
C   C391      1.0  0.47080  0.85130  0.72820  1.0000 -0.0466313546
C   C392      1.0  0.77180  0.52920  0.35130  1.0000 -0.0466313546
C   C393      1.0  0.52920  0.35130  0.77180  1.0000 -0.0466313546
C   C394      1.0  0.27180  0.97080  0.64870  1.0000 -0.0466313546
C   C395      1.0  0.97080  0.64870  0.27180  1.0000 -0.0466313546
C   C396      1.0  0.72820  0.47080  0.85130  1.0000 -0.0466313546
C   C397      1.0  0.17200  0.21050  0.99130  1.0000 -0.0954365229
C   C398      1.0  0.32800  0.78950  0.49130  1.0000 -0.0954365229
C   C399      1.0  0.67200  0.28950  0.00870  1.0000 -0.0954365229
C   C400      1.0  0.82800  0.71050  0.50870  1.0000 -0.0954365229
C   C401      1.0  0.99130  0.17200  0.21050  1.0000 -0.0954365229
C   C402      1.0  0.21050  0.99130  0.17200  1.0000 -0.0954365229
C   C403      1.0  0.50870  0.82800  0.71050  1.0000 -0.0954365229
C   C404      1.0  0.78950  0.49130  0.32800  1.0000 -0.093482134
C   C405      1.0  0.49130  0.32800  0.78950  1.0000 -0.093482134
C   C406      1.0  0.28950  0.00870  0.67200  1.0000 -0.0954365229
C   C407      1.0  0.00870  0.67200  0.28950  1.0000 -0.0954365229
C   C408      1.0  0.71050  0.50870  0.82800  1.0000 -0.0954365229
C   C409      1.0  0.15440  0.21460  0.94840  1.0000 -0.1677065437
C   C410      1.0  0.34560  0.78540  0.44840  1.0000 -0.1677065437
C   C411      1.0  0.65440  0.28540  0.05160  1.0000 -0.1677065437
C   C412      1.0  0.84560  0.71460  0.55160  1.0000 -0.1677065437
C   C413      1.0  0.94840  0.15440  0.21460  1.0000 -0.1677065437
C   C414      1.0  0.21460  0.94840  0.15440  1.0000 -0.1677065437
C   C415      1.0  0.55160  0.84560  0.71460  1.0000 -0.1677065437
C   C416      1.0  0.78540  0.44840  0.34560  1.0000 -0.1677065437
C   C417      1.0  0.44840  0.34560  0.78540  1.0000 -0.1677065437
C   C418      1.0  0.28540  0.05160  0.65440  1.0000 -0.1677065437
C   C419      1.0  0.05160  0.65440  0.28540  1.0000 -0.1677065437
C   C420      1.0  0.71460  0.55160  0.84560  1.0000 -0.1677065437
C   C421      1.0  0.11360  0.23630  0.94080  1.0000 0.0799076207
C   C422      1.0  0.38640  0.76370  0.44080  1.0000 0.0799076207
C   C423      1.0  0.61360  0.26370  0.05920  1.0000 0.0799076207
C   C424      1.0  0.88640  0.73630  0.55920  1.0000 0.0799076207
C   C425      1.0  0.94080  0.11360  0.23630  1.0000 0.0799076207
C   C426      1.0  0.23630  0.94080  0.11360  1.0000 0.0799076207
C   C427      1.0  0.55920  0.88640  0.73630  1.0000 0.0799076207
C   C428      1.0  0.76370  0.44080  0.38640  1.0000 0.0799076207
C   C429      1.0  0.44080  0.38640  0.76370  1.0000 0.0799076207
C   C430      1.0  0.26370  0.05920  0.61360  1.0000 0.0799076207
C   C431      1.0  0.05920  0.61360  0.26370  1.0000 0.0799076207
C   C432      1.0  0.73630  0.55920  0.88640  1.0000 0.0799076207
C   C433      1.0  0.09050  0.25510  0.97660  1.0000 -0.1677065437
C   C434      1.0  0.40950  0.74490  0.47660  1.0000 -0.1677065437
C   C435      1.0  0.59050  0.24490  0.02340  1.0000 -0.1677065437
C   C436      1.0  0.90950  0.75510  0.52340  1.0000 -0.1677065437
C   C437      1.0  0.97660  0.09050  0.25510  1.0000 -0.1677065437
C   C438      1.0  0.25510  0.97660  0.09050  1.0000 -0.1677065437
C   C439      1.0  0.52340  0.90950  0.75510  1.0000 -0.1677065437
C   C440      1.0  0.74490  0.47660  0.40950  1.0000 -0.1677065437
C   C441      1.0  0.47660  0.40950  0.74490  1.0000 -0.1677065437
C   C442      1.0  0.24490  0.02340  0.59050  1.0000 -0.1677065437
C   C443      1.0  0.02340  0.59050  0.24490  1.0000 -0.1677065437
C   C444      1.0  0.75510  0.52340  0.90950  1.0000 -0.1677065437
C   C445      1.0  0.10760  0.24850  0.02120  1.0000 -0.093482134
C   C446      1.0  0.39240  0.75150  0.52120  1.0000 -0.093482134
C   C447      1.0  0.60760  0.25150  0.97880  1.0000 -0.093482134
C   C448      1.0  0.89240  0.74850  0.47880  1.0000 -0.093482134
C   C449      1.0  0.02120  0.10760  0.24850  1.0000 -0.093482134
C   C450      1.0  0.24850  0.02120  0.10760  1.0000 -0.093482134
C   C451      1.0  0.47880  0.89240  0.74850  1.0000 -0.093482134
C   C452      1.0  0.75150  0.52120  0.39240  1.0000 -0.093482134
C   C453      1.0  0.52120  0.39240  0.75150  1.0000 -0.093482134
C   C454      1.0  0.25150  0.97880  0.60760  1.0000 -0.093482134
C   C455      1.0  0.97880  0.60760  0.25150  1.0000 -0.093482134
C   C456      1.0  0.74850  0.47880  0.89240  1.0000 -0.093482134
N   N1        1.0  0.89240  0.75020  0.18680  1.0000 -0.1934747318
N   N2        1.0  0.60760  0.24980  0.68680  1.0000 -0.1934747318
N   N3        1.0  0.39240  0.74980  0.81320  1.0000 -0.1934747318
N   N4        1.0  0.10760  0.25020  0.31320  1.0000 -0.1934747318
N   N5        1.0  0.18680  0.89240  0.75020  1.0000 -0.1934747318
N   N6        1.0  0.75020  0.18680  0.89240  1.0000 -0.1934747318
N   N7        1.0  0.31320  0.10760  0.25020  1.0000 -0.1934747318
N   N8        1.0  0.24980  0.68680  0.60760  1.0000 -0.1934747318
N   N9        1.0  0.68680  0.60760  0.24980  1.0000 -0.1934747318
N   N10       1.0  0.74980  0.81320  0.39240  1.0000 -0.1934747318
N   N11       1.0  0.81320  0.39240  0.74980  1.0000 -0.1934747318
N   N12       1.0  0.25020  0.31320  0.10760  1.0000 -0.1934747318
N   N13       1.0  0.10760  0.24980  0.81320  1.0000 -0.1934747318
N   N14       1.0  0.39240  0.75020  0.31320  1.0000 -0.1934747318
N   N15       1.0  0.60760  0.25020  0.18680  1.0000 -0.1934747318
N   N16       1.0  0.89240  0.74980  0.68680  1.0000 -0.1934747318
N   N17       1.0  0.81320  0.10760  0.24980  1.0000 -0.1934747318
N   N18       1.0  0.24980  0.81320  0.10760  1.0000 -0.1934747318
N   N19       1.0  0.68680  0.89240  0.74980  1.0000 -0.1934747318
N   N20       1.0  0.75020  0.31320  0.39240  1.0000 -0.1934747318
N   N21       1.0  0.31320  0.39240  0.75020  1.0000 -0.1934747318
N   N22       1.0  0.25020  0.18680  0.60760  1.0000 -0.1934747318
N   N23       1.0  0.18680  0.60760  0.25020  1.0000 -0.1934747318
N   N24       1.0  0.74980  0.68680  0.89240  1.0000 -0.1934747318
O   O1        1.0  0.18060  0.74990  0.21980  1.0000 -0.7062297334
O   O2        1.0  0.31940  0.25010  0.71980  1.0000 -0.7062297334
O   O3        1.0  0.68060  0.75010  0.78020  1.0000 -0.7062297334
O   O4        1.0  0.81940  0.24990  0.28020  1.0000 -0.7062297334
O   O5        1.0  0.21980  0.18060  0.74990  1.0000 -0.7062297334
O   O6        1.0  0.74990  0.21980  0.18060  1.0000 -0.7062297334
O   O7        1.0  0.28020  0.81940  0.24990  1.0000 -0.7062297334
O   O8        1.0  0.25010  0.71980  0.31940  1.0000 -0.7062297334
O   O9        1.0  0.71980  0.31940  0.25010  1.0000 -0.7062297334
O   O10       1.0  0.75010  0.78020  0.68060  1.0000 -0.7062297334
O   O11       1.0  0.78020  0.68060  0.75010  1.0000 -0.7062297334
O   O12       1.0  0.24990  0.28020  0.81940  1.0000 -0.7062297334
O   O13       1.0  0.18479  0.70750  0.15740  1.0000 -0.7970313822
O   O14       1.0  0.31521  0.29250  0.65740  1.0000 -0.7970313822
O   O15       1.0  0.68479  0.79250  0.84260  1.0000 -0.7970313822
O   O16       1.0  0.81521  0.20750  0.34260  1.0000 -0.7970313822
O   O17       1.0  0.15740  0.18479  0.70750  1.0000 -0.7970313822
O   O18       1.0  0.70750  0.15740  0.18479  1.0000 -0.7970313822
O   O19       1.0  0.34260  0.81521  0.20750  1.0000 -0.7970313822
O   O20       1.0  0.29250  0.65740  0.31521  1.0000 -0.7970313822
O   O21       1.0  0.65740  0.31521  0.29250  1.0000 -0.7970313822
O   O22       1.0  0.79250  0.84260  0.68479  1.0000 -0.7970313822
O   O23       1.0  0.84260  0.68479  0.79250  1.0000 -0.7970313822
O   O24       1.0  0.20750  0.34260  0.81521  1.0000 -0.7970313822
O   O25       1.0  0.85634  0.75610  0.89195  1.0000 -0.6985955978
O   O26       1.0  0.64366  0.24390  0.39195  1.0000 -0.6985955978
O   O27       1.0  0.35634  0.74390  0.10805  1.0000 -0.6985955978
O   O28       1.0  0.14366  0.25610  0.60805  1.0000 -0.6985955978
O   O29       1.0  0.89195  0.85634  0.75610  1.0000 -0.6985955978
O   O30       1.0  0.75610  0.89195  0.85634  1.0000 -0.6985955978
O   O31       1.0  0.60805  0.14366  0.25610  1.0000 -0.6985955978
O   O32       1.0  0.24390  0.39195  0.64366  1.0000 -0.6985955978
O   O33       1.0  0.39195  0.64366  0.24390  1.0000 -0.6985955978
O   O34       1.0  0.74390  0.10805  0.35634  1.0000 -0.6985955978
O   O35       1.0  0.10805  0.35634  0.74390  1.0000 -0.6985955978
O   O36       1.0  0.25610  0.60805  0.14366  1.0000 -0.6985955978
O   O37       1.0  0.79670  0.79670  0.91789  1.0000 -0.6912050639
O   O38       1.0  0.70330  0.20330  0.41789  1.0000 -0.6912050639
O   O39       1.0  0.29670  0.70330  0.08211  1.0000 -0.6912050639
O   O40       1.0  0.20330  0.29670  0.58211  1.0000 -0.6912050639
O   O41       1.0  0.91789  0.79670  0.79670  1.0000 -0.6912050639
O   O42       1.0  0.79670  0.91789  0.79670  1.0000 -0.6912050639
O   O43       1.0  0.58211  0.20330  0.29670  1.0000 -0.6912050639
O   O44       1.0  0.20330  0.41789  0.70330  1.0000 -0.6912050639
O   O45       1.0  0.41789  0.70330  0.20330  1.0000 -0.6912050639
O   O46       1.0  0.70330  0.08211  0.29670  1.0000 -0.6912050639
O   O47       1.0  0.08211  0.29670  0.70330  1.0000 -0.6912050639
O   O48       1.0  0.29670  0.58211  0.20330  1.0000 -0.6912050639
O   O49       1.0  0.77674  0.75100  0.82474  1.0000 -1.1993358388
O   O50       1.0  0.72326  0.24900  0.32474  1.0000 -1.1938678121
O   O51       1.0  0.27674  0.74900  0.17526  1.0000 -1.1993358388
O   O52       1.0  0.22326  0.25100  0.67526  1.0000 -1.1993358388
O   O53       1.0  0.82474  0.77674  0.75100  1.0000 -1.1993358388
O   O54       1.0  0.75100  0.82474  0.77674  1.0000 -1.1993358388
O   O55       1.0  0.67526  0.22326  0.25100  1.0000 -1.1993358388
O   O56       1.0  0.24900  0.32474  0.72326  1.0000 -1.1938678121
O   O57       1.0  0.32474  0.72326  0.24900  1.0000 -1.1938678121
O   O58       1.0  0.74900  0.17526  0.27674  1.0000 -1.1993358388
O   O59       1.0  0.17526  0.27674  0.74900  1.0000 -1.1993358388
O   O60       1.0  0.25100  0.67526  0.22326  1.0000 -1.1993358388
O   O61       1.0  0.82743  0.82743  0.82743  1.0000 -1.2290350591
O   O62       1.0  0.67257  0.17257  0.32743  1.0000 -1.2290350591
O   O63       1.0  0.32743  0.67257  0.17257  1.0000 -1.2290350591
O   O64       1.0  0.17257  0.32743  0.67257  1.0000 -1.2290350591
O   O65       1.0  0.81940  0.25010  0.78020  1.0000 -0.7062297334
O   O66       1.0  0.68060  0.74990  0.28020  1.0000 -0.7062297334
O   O67       1.0  0.31940  0.24990  0.21980  1.0000 -0.7062297334
O   O68       1.0  0.18060  0.75010  0.71980  1.0000 -0.7062297334
O   O69       1.0  0.78020  0.81940  0.25010  1.0000 -0.7062297334
O   O70       1.0  0.25010  0.78020  0.81940  1.0000 -0.7062297334
O   O71       1.0  0.71980  0.18060  0.75010  1.0000 -0.7062297334
O   O72       1.0  0.74990  0.28020  0.68060  1.0000 -0.7062297334
O   O73       1.0  0.28020  0.68060  0.74990  1.0000 -0.7062297334
O   O74       1.0  0.24990  0.21980  0.31940  1.0000 -0.7062297334
O   O75       1.0  0.21980  0.31940  0.24990  1.0000 -0.7062297334
O   O76       1.0  0.75010  0.71980  0.18060  1.0000 -0.7062297334
O   O77       1.0  0.81521  0.29250  0.84260  1.0000 -0.7970313822
O   O78       1.0  0.68479  0.70750  0.34260  1.0000 -0.7970313822
O   O79       1.0  0.31521  0.20750  0.15740  1.0000 -0.7970313822
O   O80       1.0  0.18479  0.79250  0.65740  1.0000 -0.7970313822
O   O81       1.0  0.84260  0.81521  0.29250  1.0000 -0.7970313822
O   O82       1.0  0.29250  0.84260  0.81521  1.0000 -0.7970313822
O   O83       1.0  0.65740  0.18479  0.79250  1.0000 -0.7970313822
O   O84       1.0  0.70750  0.34260  0.68479  1.0000 -0.7970313822
O   O85       1.0  0.34260  0.68479  0.70750  1.0000 -0.7970313822
O   O86       1.0  0.20750  0.15740  0.31521  1.0000 -0.7970313822
O   O87       1.0  0.15740  0.31521  0.20750  1.0000 -0.7970313822
O   O88       1.0  0.79250  0.65740  0.18479  1.0000 -0.7970313822
O   O89       1.0  0.14366  0.24390  0.10805  1.0000 -0.6985955978
O   O90       1.0  0.35634  0.75610  0.60805  1.0000 -0.6985955978
O   O91       1.0  0.64366  0.25610  0.89195  1.0000 -0.6985955978
O   O92       1.0  0.85634  0.74390  0.39195  1.0000 -0.6985955978
O   O93       1.0  0.10805  0.14366  0.24390  1.0000 -0.6985955978
O   O94       1.0  0.24390  0.10805  0.14366  1.0000 -0.6985955978
O   O95       1.0  0.39195  0.85634  0.74390  1.0000 -0.6985955978
O   O96       1.0  0.75610  0.60805  0.35634  1.0000 -0.6985955978
O   O97       1.0  0.60805  0.35634  0.75610  1.0000 -0.6985955978
O   O98       1.0  0.25610  0.89195  0.64366  1.0000 -0.6985955978
O   O99       1.0  0.89195  0.64366  0.25610  1.0000 -0.6985955978
O   O100      1.0  0.74390  0.39195  0.85634  1.0000 -0.6985955978
O   O101      1.0  0.20330  0.20330  0.08211  1.0000 -0.6912050639
O   O102      1.0  0.29670  0.79670  0.58211  1.0000 -0.6912050639
O   O103      1.0  0.70330  0.29670  0.91789  1.0000 -0.6912050639
O   O104      1.0  0.79670  0.70330  0.41789  1.0000 -0.6912050639
O   O105      1.0  0.08211  0.20330  0.20330  1.0000 -0.6912050639
O   O106      1.0  0.20330  0.08211  0.20330  1.0000 -0.6912050639
O   O107      1.0  0.41789  0.79670  0.70330  1.0000 -0.6912050639
O   O108      1.0  0.79670  0.58211  0.29670  1.0000 -0.6912050639
O   O109      1.0  0.58211  0.29670  0.79670  1.0000 -0.6912050639
O   O110      1.0  0.29670  0.91789  0.70330  1.0000 -0.6912050639
O   O111      1.0  0.91789  0.70330  0.29670  1.0000 -0.6912050639
O   O112      1.0  0.70330  0.41789  0.79670  1.0000 -0.6912050639
O   O113      1.0  0.22326  0.24900  0.17526  1.0000 -1.1938678121
O   O114      1.0  0.27674  0.75100  0.67526  1.0000 -1.1993358388
O   O115      1.0  0.72326  0.25100  0.82474  1.0000 -1.1938678121
O   O116      1.0  0.77674  0.74900  0.32474  1.0000 -1.1993358388
O   O117      1.0  0.17526  0.22326  0.24900  1.0000 -1.1938678121
O   O118      1.0  0.24900  0.17526  0.22326  1.0000 -1.1938678121
O   O119      1.0  0.32474  0.77674  0.74900  1.0000 -1.1993358388
O   O120      1.0  0.75100  0.67526  0.27674  1.0000 -1.1993358388
O   O121      1.0  0.67526  0.27674  0.75100  1.0000 -1.1993358388
O   O122      1.0  0.25100  0.82474  0.72326  1.0000 -1.1938678121
O   O123      1.0  0.82474  0.72326  0.25100  1.0000 -1.1938678121
O   O124      1.0  0.74900  0.32474  0.77674  1.0000 -1.1993358388
O   O125      1.0  0.17257  0.17257  0.17257  1.0000 -1.2290350591
O   O126      1.0  0.32743  0.82743  0.67257  1.0000 -1.2290350591
O   O127      1.0  0.67257  0.32743  0.82743  1.0000 -1.2290350591
O   O128      1.0  0.82743  0.67257  0.32743  1.0000 -1.2290350591
