# DDEC6 charges by PACMAN v1.1 (https://github.com/mtap-research/PACMAN-charge/)
data_2016[CrMn][stp]3[ASR]1
_chemical_formula_sum              "Mn6 Cr12 H96 C144 N24 Cl12 O52"
_cell_length_a       22.045
_cell_length_b       22.045
_cell_length_c       21.768
_cell_angle_alpha    90
_cell_angle_beta     90
_cell_angle_gamma    120

_symmetry_space_group_name_H-M    "P 1"
_symmetry_Int_Tables_number       1

loop_
  _symmetry_equiv_pos_as_xyz
  'x, y, z'

loop_
  _atom_site_type_symbol
  _atom_site_label
  _atom_site_symmetry_multiplicity
  _atom_site_fract_x
  _atom_site_fract_y
  _atom_site_fract_z
  _atom_site_occupancy
  _atom_site_charge
Mn  Mn1       1.0  0.50000  0.00000  0.00000  1.0000 0.6566754181
Mn  Mn2       1.0  0.50000  0.00000  0.50000  1.0000 0.6566754181
Mn  Mn3       1.0  0.00000  0.50000  0.00000  1.0000 0.6566754181
Mn  Mn4       1.0  0.50000  0.50000  0.00000  1.0000 0.6566754181
Mn  Mn5       1.0  0.50000  0.50000  0.50000  1.0000 0.6566754181
Mn  Mn6       1.0  0.00000  0.50000  0.50000  1.0000 0.6566754181
Cr  Cr1       1.0  0.66517  0.24606  0.25000  1.0000 1.4597108363
Cr  Cr2       1.0  0.33483  0.75394  0.75000  1.0000 1.4597108363
Cr  Cr3       1.0  0.75394  0.41911  0.25000  1.0000 1.4597108363
Cr  Cr4       1.0  0.58089  0.33483  0.25000  1.0000 1.4597108363
Cr  Cr5       1.0  0.41911  0.66517  0.75000  1.0000 1.4597108363
Cr  Cr6       1.0  0.24606  0.58089  0.75000  1.0000 1.4597108363
Cr  Cr7       1.0  0.41911  0.75394  0.25000  1.0000 1.4597108363
Cr  Cr8       1.0  0.33483  0.58089  0.25000  1.0000 1.4597108363
Cr  Cr9       1.0  0.24606  0.66517  0.25000  1.0000 1.4597108363
Cr  Cr10      1.0  0.75394  0.33483  0.75000  1.0000 1.4597108363
Cr  Cr11      1.0  0.66517  0.41911  0.75000  1.0000 1.4597108363
Cr  Cr12      1.0  0.58089  0.24606  0.75000  1.0000 1.4597108363
H   H1        1.0  0.55570  0.12190  0.09990  1.0000 0.1146859597
H   H2        1.0  0.44430  0.87810  0.59990  1.0000 0.1146859597
H   H3        1.0  0.87810  0.43380  0.09990  1.0000 0.1146859597
H   H4        1.0  0.56620  0.44430  0.09990  1.0000 0.1146859597
H   H5        1.0  0.43380  0.55570  0.59990  1.0000 0.1146859597
H   H6        1.0  0.12190  0.56620  0.59990  1.0000 0.1146859597
H   H7        1.0  0.43380  0.87810  0.40010  1.0000 0.1146859597
H   H8        1.0  0.44430  0.56620  0.40010  1.0000 0.1146859597
H   H9        1.0  0.12190  0.55570  0.40010  1.0000 0.1146859597
H   H10       1.0  0.87810  0.44430  0.90010  1.0000 0.1146859597
H   H11       1.0  0.55570  0.43380  0.90010  1.0000 0.1146859597
H   H12       1.0  0.56620  0.12190  0.90010  1.0000 0.1146859597
H   H13       1.0  0.44430  0.87810  0.90010  1.0000 0.1146859597
H   H14       1.0  0.55570  0.12190  0.40010  1.0000 0.1146859597
H   H15       1.0  0.12190  0.56620  0.90010  1.0000 0.1146859597
H   H16       1.0  0.43380  0.55570  0.90010  1.0000 0.1146859597
H   H17       1.0  0.56620  0.44430  0.40010  1.0000 0.1146859597
H   H18       1.0  0.87810  0.43380  0.40010  1.0000 0.1146859597
H   H19       1.0  0.56620  0.12190  0.59990  1.0000 0.1146859597
H   H20       1.0  0.55570  0.43380  0.59990  1.0000 0.1146859597
H   H21       1.0  0.87810  0.44430  0.59990  1.0000 0.1146859597
H   H22       1.0  0.12190  0.55570  0.09990  1.0000 0.1146859597
H   H23       1.0  0.44430  0.56620  0.09990  1.0000 0.1146859597
H   H24       1.0  0.43380  0.87810  0.09990  1.0000 0.1146859597
H   H25       1.0  0.39390  0.06110  0.98920  1.0000 0.0965885708
H   H26       1.0  0.60610  0.93890  0.48920  1.0000 0.0965885708
H   H27       1.0  0.93890  0.33280  0.98920  1.0000 0.0965885708
H   H28       1.0  0.66720  0.60610  0.98920  1.0000 0.0965885708
H   H29       1.0  0.33280  0.39390  0.48920  1.0000 0.0965885708
H   H30       1.0  0.06110  0.66720  0.48920  1.0000 0.0965885708
H   H31       1.0  0.33280  0.93890  0.51080  1.0000 0.0965885708
H   H32       1.0  0.60610  0.66720  0.51080  1.0000 0.0965885708
H   H33       1.0  0.06110  0.39390  0.51080  1.0000 0.0965885708
H   H34       1.0  0.93890  0.60610  0.01080  1.0000 0.0965885708
H   H35       1.0  0.39390  0.33280  0.01080  1.0000 0.0965885708
H   H36       1.0  0.66720  0.06110  0.01080  1.0000 0.0965885708
H   H37       1.0  0.60610  0.93890  0.01080  1.0000 0.0965885708
H   H38       1.0  0.39390  0.06110  0.51080  1.0000 0.0965885708
H   H39       1.0  0.06110  0.66720  0.01080  1.0000 0.0965885708
H   H40       1.0  0.33280  0.39390  0.01080  1.0000 0.0965885708
H   H41       1.0  0.66720  0.60610  0.51080  1.0000 0.0965885708
H   H42       1.0  0.93890  0.33280  0.51080  1.0000 0.0965885708
H   H43       1.0  0.66720  0.06110  0.48920  1.0000 0.0965885708
H   H44       1.0  0.39390  0.33280  0.48920  1.0000 0.0965885708
H   H45       1.0  0.93890  0.60610  0.48920  1.0000 0.0965885708
H   H46       1.0  0.06110  0.39390  0.98920  1.0000 0.0965885708
H   H47       1.0  0.60610  0.66720  0.98920  1.0000 0.0965885708
H   H48       1.0  0.33280  0.93890  0.98920  1.0000 0.0965885708
H   H49       1.0  0.36670  0.13990  0.03190  1.0000 0.1184370362
H   H50       1.0  0.63330  0.86010  0.53190  1.0000 0.1184370362
H   H51       1.0  0.86010  0.22680  0.03190  1.0000 0.1184370362
H   H52       1.0  0.77320  0.63330  0.03190  1.0000 0.1184370362
H   H53       1.0  0.22680  0.36670  0.53190  1.0000 0.1184370362
H   H54       1.0  0.13990  0.77320  0.53190  1.0000 0.1184370362
H   H55       1.0  0.22680  0.86010  0.46810  1.0000 0.1184370362
H   H56       1.0  0.63330  0.77320  0.46810  1.0000 0.1184370362
H   H57       1.0  0.13990  0.36670  0.46810  1.0000 0.1184370362
H   H58       1.0  0.86010  0.63330  0.96810  1.0000 0.1184370362
H   H59       1.0  0.36670  0.22680  0.96810  1.0000 0.1184370362
H   H60       1.0  0.77320  0.13990  0.96810  1.0000 0.1184370362
H   H61       1.0  0.63330  0.86010  0.96810  1.0000 0.1184370362
H   H62       1.0  0.36670  0.13990  0.46810  1.0000 0.1184370362
H   H63       1.0  0.13990  0.77320  0.96810  1.0000 0.1184370362
H   H64       1.0  0.22680  0.36670  0.96810  1.0000 0.1184370362
H   H65       1.0  0.77320  0.63330  0.46810  1.0000 0.1184370362
H   H66       1.0  0.86010  0.22680  0.46810  1.0000 0.1184370362
H   H67       1.0  0.77320  0.13990  0.53190  1.0000 0.1184370362
H   H68       1.0  0.36670  0.22680  0.53190  1.0000 0.1184370362
H   H69       1.0  0.86010  0.63330  0.53190  1.0000 0.1184370362
H   H70       1.0  0.13990  0.36670  0.03190  1.0000 0.1184370362
H   H71       1.0  0.63330  0.77320  0.03190  1.0000 0.1184370362
H   H72       1.0  0.22680  0.86010  0.03190  1.0000 0.1184370362
H   H73       1.0  0.43580  0.21230  0.11340  1.0000 0.1289769807
H   H74       1.0  0.56420  0.78770  0.61340  1.0000 0.1289769807
H   H75       1.0  0.78770  0.22350  0.11340  1.0000 0.1289769807
H   H76       1.0  0.77650  0.56420  0.11340  1.0000 0.1289769807
H   H77       1.0  0.22350  0.43580  0.61340  1.0000 0.1289769807
H   H78       1.0  0.21230  0.77650  0.61340  1.0000 0.1289769807
H   H79       1.0  0.22350  0.78770  0.38660  1.0000 0.1289769807
H   H80       1.0  0.56420  0.77650  0.38660  1.0000 0.1289769807
H   H81       1.0  0.21230  0.43580  0.38660  1.0000 0.1289769807
H   H82       1.0  0.78770  0.56420  0.88660  1.0000 0.1289769807
H   H83       1.0  0.43580  0.22350  0.88660  1.0000 0.1289769807
H   H84       1.0  0.77650  0.21230  0.88660  1.0000 0.1289769807
H   H85       1.0  0.56420  0.78770  0.88660  1.0000 0.1289769807
H   H86       1.0  0.43580  0.21230  0.38660  1.0000 0.1289769807
H   H87       1.0  0.21230  0.77650  0.88660  1.0000 0.1289769807
H   H88       1.0  0.22350  0.43580  0.88660  1.0000 0.1289769807
H   H89       1.0  0.77650  0.56420  0.38660  1.0000 0.1289769807
H   H90       1.0  0.78770  0.22350  0.38660  1.0000 0.1289769807
H   H91       1.0  0.77650  0.21230  0.61340  1.0000 0.1289769807
H   H92       1.0  0.43580  0.22350  0.61340  1.0000 0.1289769807
H   H93       1.0  0.78770  0.56420  0.61340  1.0000 0.1289769807
H   H94       1.0  0.21230  0.43580  0.11340  1.0000 0.1289769807
H   H95       1.0  0.56420  0.77650  0.11340  1.0000 0.1289769807
H   H96       1.0  0.22350  0.78770  0.11340  1.0000 0.1289769807
C   C1        1.0  0.54860  0.21710  0.16620  1.0000 0.6131612459
C   C2        1.0  0.45140  0.78290  0.66620  1.0000 0.6131612459
C   C3        1.0  0.78290  0.33150  0.16620  1.0000 0.6131612459
C   C4        1.0  0.66850  0.45140  0.16620  1.0000 0.6131612459
C   C5        1.0  0.33150  0.54860  0.66620  1.0000 0.6131612459
C   C6        1.0  0.21710  0.66850  0.66620  1.0000 0.6131612459
C   C7        1.0  0.33150  0.78290  0.33380  1.0000 0.6131612459
C   C8        1.0  0.45140  0.66850  0.33380  1.0000 0.6131612459
C   C9        1.0  0.21710  0.54860  0.33380  1.0000 0.6131612459
C   C10       1.0  0.78290  0.45140  0.83380  1.0000 0.6131612459
C   C11       1.0  0.54860  0.33150  0.83380  1.0000 0.6131612459
C   C12       1.0  0.66850  0.21710  0.83380  1.0000 0.6131612459
C   C13       1.0  0.45140  0.78290  0.83380  1.0000 0.6131612459
C   C14       1.0  0.54860  0.21710  0.33380  1.0000 0.6131612459
C   C15       1.0  0.21710  0.66850  0.83380  1.0000 0.6131612459
C   C16       1.0  0.33150  0.54860  0.83380  1.0000 0.6131612459
C   C17       1.0  0.66850  0.45140  0.33380  1.0000 0.6131612459
C   C18       1.0  0.78290  0.33150  0.33380  1.0000 0.6131612459
C   C19       1.0  0.66850  0.21710  0.66620  1.0000 0.6131612459
C   C20       1.0  0.54860  0.33150  0.66620  1.0000 0.6131612459
C   C21       1.0  0.78290  0.45140  0.66620  1.0000 0.6131612459
C   C22       1.0  0.21710  0.54860  0.16620  1.0000 0.6131612459
C   C23       1.0  0.45140  0.66850  0.16620  1.0000 0.6131612459
C   C24       1.0  0.33150  0.78290  0.16620  1.0000 0.6131612459
C   C25       1.0  0.50360  0.17360  0.11390  1.0000 -0.0731749251
C   C26       1.0  0.49640  0.82640  0.61390  1.0000 -0.0731749251
C   C27       1.0  0.82640  0.33000  0.11390  1.0000 -0.0731749251
C   C28       1.0  0.67000  0.49640  0.11390  1.0000 -0.0731749251
C   C29       1.0  0.33000  0.50360  0.61390  1.0000 -0.0731749251
C   C30       1.0  0.17360  0.67000  0.61390  1.0000 -0.0731749251
C   C31       1.0  0.33000  0.82640  0.38610  1.0000 -0.0731749251
C   C32       1.0  0.49640  0.67000  0.38610  1.0000 -0.0731749251
C   C33       1.0  0.17360  0.50360  0.38610  1.0000 -0.0731749251
C   C34       1.0  0.82640  0.49640  0.88610  1.0000 -0.0731749251
C   C35       1.0  0.50360  0.33000  0.88610  1.0000 -0.0731749251
C   C36       1.0  0.67000  0.17360  0.88610  1.0000 -0.0731749251
C   C37       1.0  0.49640  0.82640  0.88610  1.0000 -0.0731749251
C   C38       1.0  0.50360  0.17360  0.38610  1.0000 -0.0731749251
C   C39       1.0  0.17360  0.67000  0.88610  1.0000 -0.0731749251
C   C40       1.0  0.33000  0.50360  0.88610  1.0000 -0.0731749251
C   C41       1.0  0.67000  0.49640  0.38610  1.0000 -0.0731749251
C   C42       1.0  0.82640  0.33000  0.38610  1.0000 -0.0731749251
C   C43       1.0  0.67000  0.17360  0.61390  1.0000 -0.0731749251
C   C44       1.0  0.50360  0.33000  0.61390  1.0000 -0.0731749251
C   C45       1.0  0.82640  0.49640  0.61390  1.0000 -0.0731749251
C   C46       1.0  0.17360  0.50360  0.11390  1.0000 -0.0731749251
C   C47       1.0  0.49640  0.67000  0.11390  1.0000 -0.0731749251
C   C48       1.0  0.33000  0.82640  0.11390  1.0000 -0.0731749251
C   C49       1.0  0.51720  0.12600  0.08570  1.0000 0.069930761
C   C50       1.0  0.48280  0.87400  0.58570  1.0000 0.069930761
C   C51       1.0  0.87400  0.39120  0.08570  1.0000 0.069930761
C   C52       1.0  0.60880  0.48280  0.08570  1.0000 0.069930761
C   C53       1.0  0.39120  0.51720  0.58570  1.0000 0.069930761
C   C54       1.0  0.12600  0.60880  0.58570  1.0000 0.069930761
C   C55       1.0  0.39120  0.87400  0.41430  1.0000 0.069930761
C   C56       1.0  0.48280  0.60880  0.41430  1.0000 0.069930761
C   C57       1.0  0.12600  0.51720  0.41430  1.0000 0.069930761
C   C58       1.0  0.87400  0.48280  0.91430  1.0000 0.069930761
C   C59       1.0  0.51720  0.39120  0.91430  1.0000 0.069930761
C   C60       1.0  0.60880  0.12600  0.91430  1.0000 0.069930761
C   C61       1.0  0.48280  0.87400  0.91430  1.0000 0.069930761
C   C62       1.0  0.51720  0.12600  0.41430  1.0000 0.069930761
C   C63       1.0  0.12600  0.60880  0.91430  1.0000 0.069930761
C   C64       1.0  0.39120  0.51720  0.91430  1.0000 0.069930761
C   C65       1.0  0.60880  0.48280  0.41430  1.0000 0.069930761
C   C66       1.0  0.87400  0.39120  0.41430  1.0000 0.069930761
C   C67       1.0  0.60880  0.12600  0.58570  1.0000 0.069930761
C   C68       1.0  0.51720  0.39120  0.58570  1.0000 0.069930761
C   C69       1.0  0.87400  0.48280  0.58570  1.0000 0.069930761
C   C70       1.0  0.12600  0.51720  0.08570  1.0000 0.069930761
C   C71       1.0  0.48280  0.60880  0.08570  1.0000 0.069930761
C   C72       1.0  0.39120  0.87400  0.08570  1.0000 0.069930761
C   C73       1.0  0.42290  0.09070  0.02120  1.0000 0.069930761
C   C74       1.0  0.57710  0.90930  0.52120  1.0000 0.069930761
C   C75       1.0  0.90930  0.33220  0.02120  1.0000 0.069930761
C   C76       1.0  0.66780  0.57710  0.02120  1.0000 0.069930761
C   C77       1.0  0.33220  0.42290  0.52120  1.0000 0.069930761
C   C78       1.0  0.09070  0.66780  0.52120  1.0000 0.069930761
C   C79       1.0  0.33220  0.90930  0.47880  1.0000 0.069930761
C   C80       1.0  0.57710  0.66780  0.47880  1.0000 0.069930761
C   C81       1.0  0.09070  0.42290  0.47880  1.0000 0.069930761
C   C82       1.0  0.90930  0.57710  0.97880  1.0000 0.069930761
C   C83       1.0  0.42290  0.33220  0.97880  1.0000 0.069930761
C   C84       1.0  0.66780  0.09070  0.97880  1.0000 0.069930761
C   C85       1.0  0.57710  0.90930  0.97880  1.0000 0.069930761
C   C86       1.0  0.42290  0.09070  0.47880  1.0000 0.069930761
C   C87       1.0  0.09070  0.66780  0.97880  1.0000 0.069930761
C   C88       1.0  0.33220  0.42290  0.97880  1.0000 0.069930761
C   C89       1.0  0.66780  0.57710  0.47880  1.0000 0.069930761
C   C90       1.0  0.90930  0.33220  0.47880  1.0000 0.069930761
C   C91       1.0  0.66780  0.09070  0.52120  1.0000 0.069930761
C   C92       1.0  0.42290  0.33220  0.52120  1.0000 0.069930761
C   C93       1.0  0.90930  0.57710  0.52120  1.0000 0.069930761
C   C94       1.0  0.09070  0.42290  0.02120  1.0000 0.069930761
C   C95       1.0  0.57710  0.66780  0.02120  1.0000 0.069930761
C   C96       1.0  0.33220  0.90930  0.02120  1.0000 0.069930761
C   C97       1.0  0.40580  0.13710  0.04670  1.0000 -0.1649404517
C   C98       1.0  0.59420  0.86290  0.54670  1.0000 -0.1649404517
C   C99       1.0  0.86290  0.26870  0.04670  1.0000 -0.1649404517
C   C100      1.0  0.73130  0.59420  0.04670  1.0000 -0.1649404517
C   C101      1.0  0.26870  0.40580  0.54670  1.0000 -0.1649404517
C   C102      1.0  0.13710  0.73130  0.54670  1.0000 -0.1649404517
C   C103      1.0  0.26870  0.86290  0.45330  1.0000 -0.1649404517
C   C104      1.0  0.59420  0.73130  0.45330  1.0000 -0.1649404517
C   C105      1.0  0.13710  0.40580  0.45330  1.0000 -0.1649404517
C   C106      1.0  0.86290  0.59420  0.95330  1.0000 -0.1649404517
C   C107      1.0  0.40580  0.26870  0.95330  1.0000 -0.1649404517
C   C108      1.0  0.73130  0.13710  0.95330  1.0000 -0.1649404517
C   C109      1.0  0.59420  0.86290  0.95330  1.0000 -0.1649404517
C   C110      1.0  0.40580  0.13710  0.45330  1.0000 -0.1649404517
C   C111      1.0  0.13710  0.73130  0.95330  1.0000 -0.1649404517
C   C112      1.0  0.26870  0.40580  0.95330  1.0000 -0.1649404517
C   C113      1.0  0.73130  0.59420  0.45330  1.0000 -0.1649404517
C   C114      1.0  0.86290  0.26870  0.45330  1.0000 -0.1649404517
C   C115      1.0  0.73130  0.13710  0.54670  1.0000 -0.1649404517
C   C116      1.0  0.40580  0.26870  0.54670  1.0000 -0.1649404517
C   C117      1.0  0.86290  0.59420  0.54670  1.0000 -0.1649404517
C   C118      1.0  0.13710  0.40580  0.04670  1.0000 -0.1649404517
C   C119      1.0  0.59420  0.73130  0.04670  1.0000 -0.1649404517
C   C120      1.0  0.26870  0.86290  0.04670  1.0000 -0.1649404517
C   C121      1.0  0.44650  0.17990  0.09450  1.0000 -0.0556599325
C   C122      1.0  0.55350  0.82010  0.59450  1.0000 -0.0556599325
C   C123      1.0  0.82010  0.26660  0.09450  1.0000 -0.0556599325
C   C124      1.0  0.73340  0.55350  0.09450  1.0000 -0.0556599325
C   C125      1.0  0.26660  0.44650  0.59450  1.0000 -0.0556599325
C   C126      1.0  0.17990  0.73340  0.59450  1.0000 -0.0556599325
C   C127      1.0  0.26660  0.82010  0.40550  1.0000 -0.0556599325
C   C128      1.0  0.55350  0.73340  0.40550  1.0000 -0.0556599325
C   C129      1.0  0.17990  0.44650  0.40550  1.0000 -0.0556599325
C   C130      1.0  0.82010  0.55350  0.90550  1.0000 -0.0556599325
C   C131      1.0  0.44650  0.26660  0.90550  1.0000 -0.0556599325
C   C132      1.0  0.73340  0.17990  0.90550  1.0000 -0.0556599325
C   C133      1.0  0.55350  0.82010  0.90550  1.0000 -0.0556599325
C   C134      1.0  0.44650  0.17990  0.40550  1.0000 -0.0556599325
C   C135      1.0  0.17990  0.73340  0.90550  1.0000 -0.0556599325
C   C136      1.0  0.26660  0.44650  0.90550  1.0000 -0.0556599325
C   C137      1.0  0.73340  0.55350  0.40550  1.0000 -0.0556599325
C   C138      1.0  0.82010  0.26660  0.40550  1.0000 -0.0556599325
C   C139      1.0  0.73340  0.17990  0.59450  1.0000 -0.0556599325
C   C140      1.0  0.44650  0.26660  0.59450  1.0000 -0.0556599325
C   C141      1.0  0.82010  0.55350  0.59450  1.0000 -0.0556599325
C   C142      1.0  0.17990  0.44650  0.09450  1.0000 -0.0556599325
C   C143      1.0  0.55350  0.73340  0.09450  1.0000 -0.0556599325
C   C144      1.0  0.26660  0.82010  0.09450  1.0000 -0.0556599325
N   N1        1.0  0.47830  0.08460  0.03870  1.0000 -0.2012685067
N   N2        1.0  0.52170  0.91540  0.53870  1.0000 -0.2012685067
N   N3        1.0  0.91540  0.39370  0.03870  1.0000 -0.2012685067
N   N4        1.0  0.60630  0.52170  0.03870  1.0000 -0.2012685067
N   N5        1.0  0.39370  0.47830  0.53870  1.0000 -0.2012685067
N   N6        1.0  0.08460  0.60630  0.53870  1.0000 -0.2012685067
N   N7        1.0  0.39370  0.91540  0.46130  1.0000 -0.2012685067
N   N8        1.0  0.52170  0.60630  0.46130  1.0000 -0.2012685067
N   N9        1.0  0.08460  0.47830  0.46130  1.0000 -0.2012685067
N   N10       1.0  0.91540  0.52170  0.96130  1.0000 -0.2012685067
N   N11       1.0  0.47830  0.39370  0.96130  1.0000 -0.2012685067
N   N12       1.0  0.60630  0.08460  0.96130  1.0000 -0.2012685067
N   N13       1.0  0.52170  0.91540  0.96130  1.0000 -0.2012685067
N   N14       1.0  0.47830  0.08460  0.46130  1.0000 -0.2012685067
N   N15       1.0  0.08460  0.60630  0.96130  1.0000 -0.2012685067
N   N16       1.0  0.39370  0.47830  0.96130  1.0000 -0.2012685067
N   N17       1.0  0.60630  0.52170  0.46130  1.0000 -0.2012685067
N   N18       1.0  0.91540  0.39370  0.46130  1.0000 -0.2012685067
N   N19       1.0  0.60630  0.08460  0.53870  1.0000 -0.2012685067
N   N20       1.0  0.47830  0.39370  0.53870  1.0000 -0.2012685067
N   N21       1.0  0.91540  0.52170  0.53870  1.0000 -0.2012685067
N   N22       1.0  0.08460  0.47830  0.03870  1.0000 -0.2012685067
N   N23       1.0  0.52170  0.60630  0.03870  1.0000 -0.2012685067
N   N24       1.0  0.39370  0.91540  0.03870  1.0000 -0.2012685067
Cl  Cl1       1.0  0.55939  0.00000  0.09714  1.0000 -0.5957871527
Cl  Cl2       1.0  0.44061  0.00000  0.59714  1.0000 -0.5957871527
Cl  Cl3       1.0  0.00000  0.55939  0.09714  1.0000 -0.5957871527
Cl  Cl4       1.0  0.44061  0.44061  0.09714  1.0000 -0.5957871527
Cl  Cl5       1.0  0.55939  0.55939  0.59714  1.0000 -0.5957871527
Cl  Cl6       1.0  0.00000  0.44061  0.59714  1.0000 -0.5957871527
Cl  Cl7       1.0  0.55939  0.00000  0.40286  1.0000 -0.5957871527
Cl  Cl8       1.0  0.44061  0.44061  0.40286  1.0000 -0.5957871527
Cl  Cl9       1.0  0.00000  0.55939  0.40286  1.0000 -0.5957871527
Cl  Cl10      1.0  0.00000  0.44061  0.90286  1.0000 -0.5957871527
Cl  Cl11      1.0  0.55939  0.55939  0.90286  1.0000 -0.5957871527
Cl  Cl12      1.0  0.44061  0.00000  0.90286  1.0000 -0.5957871527
O   O1        1.0  0.66667  0.33333  0.25000  1.0000 -1.0720853707
O   O2        1.0  0.33333  0.66667  0.75000  1.0000 -1.0720853707
O   O3        1.0  0.33333  0.66667  0.25000  1.0000 -1.0720853707
O   O4        1.0  0.66667  0.33333  0.75000  1.0000 -1.0720853707
O   O5        1.0  0.59406  0.20389  0.18512  1.0000 -0.5585805974
O   O6        1.0  0.40594  0.79611  0.68512  1.0000 -0.5585805974
O   O7        1.0  0.79611  0.39017  0.18512  1.0000 -0.5585805974
O   O8        1.0  0.60983  0.40594  0.18512  1.0000 -0.5585805974
O   O9        1.0  0.39017  0.59406  0.68512  1.0000 -0.5585805974
O   O10       1.0  0.20389  0.60983  0.68512  1.0000 -0.5585805974
O   O11       1.0  0.39017  0.79611  0.31488  1.0000 -0.5585805974
O   O12       1.0  0.40594  0.60983  0.31488  1.0000 -0.5585805974
O   O13       1.0  0.20389  0.59406  0.31488  1.0000 -0.5585805974
O   O14       1.0  0.79611  0.40594  0.81488  1.0000 -0.5585805974
O   O15       1.0  0.59406  0.39017  0.81488  1.0000 -0.5585805974
O   O16       1.0  0.60983  0.20389  0.81488  1.0000 -0.5585805974
O   O17       1.0  0.40594  0.79611  0.81488  1.0000 -0.5585805974
O   O18       1.0  0.59406  0.20389  0.31488  1.0000 -0.5585805974
O   O19       1.0  0.20389  0.60983  0.81488  1.0000 -0.5585805974
O   O20       1.0  0.39017  0.59406  0.81488  1.0000 -0.5585805974
O   O21       1.0  0.60983  0.40594  0.31488  1.0000 -0.5585805974
O   O22       1.0  0.79611  0.39017  0.31488  1.0000 -0.5585805974
O   O23       1.0  0.60983  0.20389  0.68512  1.0000 -0.5585805974
O   O24       1.0  0.59406  0.39017  0.68512  1.0000 -0.5585805974
O   O25       1.0  0.79611  0.40594  0.68512  1.0000 -0.5585805974
O   O26       1.0  0.20389  0.59406  0.18512  1.0000 -0.5585805974
O   O27       1.0  0.40594  0.60983  0.18512  1.0000 -0.5585805974
O   O28       1.0  0.39017  0.79611  0.18512  1.0000 -0.5585805974
O   O29       1.0  0.53641  0.26370  0.18580  1.0000 -0.5755367032
O   O30       1.0  0.46359  0.73630  0.68580  1.0000 -0.5755367032
O   O31       1.0  0.73630  0.27271  0.18580  1.0000 -0.5755367032
O   O32       1.0  0.72729  0.46359  0.18580  1.0000 -0.5755367032
O   O33       1.0  0.27271  0.53641  0.68580  1.0000 -0.5755367032
O   O34       1.0  0.26370  0.72729  0.68580  1.0000 -0.5755367032
O   O35       1.0  0.27271  0.73630  0.31420  1.0000 -0.5755367032
O   O36       1.0  0.46359  0.72729  0.31420  1.0000 -0.5755367032
O   O37       1.0  0.26370  0.53641  0.31420  1.0000 -0.5755367032
O   O38       1.0  0.73630  0.46359  0.81420  1.0000 -0.5755367032
O   O39       1.0  0.53641  0.27271  0.81420  1.0000 -0.5755367032
O   O40       1.0  0.72729  0.26370  0.81420  1.0000 -0.5755367032
O   O41       1.0  0.46359  0.73630  0.81420  1.0000 -0.5755367032
O   O42       1.0  0.53641  0.26370  0.31420  1.0000 -0.5755367032
O   O43       1.0  0.26370  0.72729  0.81420  1.0000 -0.5755367032
O   O44       1.0  0.27271  0.53641  0.81420  1.0000 -0.5755367032
O   O45       1.0  0.72729  0.46359  0.31420  1.0000 -0.5755367032
O   O46       1.0  0.73630  0.27271  0.31420  1.0000 -0.5755367032
O   O47       1.0  0.72729  0.26370  0.68580  1.0000 -0.5755367032
O   O48       1.0  0.53641  0.27271  0.68580  1.0000 -0.5755367032
O   O49       1.0  0.73630  0.46359  0.68580  1.0000 -0.5755367032
O   O50       1.0  0.26370  0.53641  0.18580  1.0000 -0.5755367032
O   O51       1.0  0.46359  0.72729  0.18580  1.0000 -0.5755367032
O   O52       1.0  0.27271  0.73630  0.18580  1.0000 -0.5755367032
