# DDEC6 charges by PACMAN v1.1 (https://github.com/mtap-research/PACMAN-charge/)
data_2016[Cu][nan]3[ASR]2
_chemical_formula_sum              "Cu3 H30 C48 N12 O12"
_cell_length_a       11.8074
_cell_length_b       12.0287
_cell_length_c       12.5815
_cell_angle_alpha    102.492
_cell_angle_beta     88.505
_cell_angle_gamma    117.177

_symmetry_space_group_name_H-M    "P 1"
_symmetry_Int_Tables_number       1

loop_
  _symmetry_equiv_pos_as_xyz
  'x, y, z'

loop_
  _atom_site_type_symbol
  _atom_site_label
  _atom_site_symmetry_multiplicity
  _atom_site_fract_x
  _atom_site_fract_y
  _atom_site_fract_z
  _atom_site_occupancy
  _atom_site_charge
Cu  Cu1       1.0  0.03734  0.39111  0.74177  1.0000 0.776981606
Cu  Cu2       1.0  0.07122  0.91965  0.20479  1.0000 0.7286399145
Cu  Cu3       1.0  0.58710  0.90296  0.72609  1.0000 0.7414282102
H   H1        1.0  0.09020  0.68150  0.47790  1.0000 0.1195714202
H   H2        1.0  0.86180  0.84720  0.50150  1.0000 0.1112854459
H   H3        1.0  0.85610  0.65190  0.72690  1.0000 0.1195714202
H   H4        1.0  0.39480  0.21530  0.71920  1.0000 0.1195714202
H   H5        1.0  0.13580  0.19720  0.93600  1.0000 0.1112854459
H   H6        1.0  0.33450  0.00400  0.94190  1.0000 0.1112854459
H   H7        1.0  0.88770  0.12200  0.22340  1.0000 0.1505104391
H   H8        1.0  0.54390  0.07470  0.11830  1.0000 0.1505104391
H   H9        1.0  0.63940  0.15070  0.44370  1.0000 0.1505104391
H   H10       1.0  0.83620  0.30700  0.54490  1.0000 0.1321660984
H   H11       1.0  0.07670  0.16780  0.56820  1.0000 0.1321660984
H   H12       1.0  0.95730  0.06750  0.38960  1.0000 0.1321660984
H   H13       1.0  0.56300  0.95220  0.96860  1.0000 0.1112854459
H   H14       1.0  0.93970  0.15090  0.03410  1.0000 0.1412279297
H   H15       1.0  0.88980  0.05980  0.83780  1.0000 0.1505104391
H   H16       1.0  0.34370  0.97470  0.16860  1.0000 0.1195714202
H   H17       1.0  0.23820  0.13510  0.43150  1.0000 0.1412279297
H   H18       1.0  0.46460  0.21110  0.45520  1.0000 0.1505104391
H   H19       1.0  0.47430  0.67480  0.99760  1.0000 0.1505104391
H   H20       1.0  0.25770  0.69780  0.24950  1.0000 0.1602277298
H   H21       1.0  0.63800  0.83200  0.30470  1.0000 0.1321660984
H   H22       1.0  0.79410  0.80510  0.25250  1.0000 0.1112854459
H   H23       1.0  0.91470  0.81340  0.96050  1.0000 0.1412279297
H   H24       1.0  0.68410  0.75370  0.94240  1.0000 0.1412279297
H   H25       1.0  0.27180  0.50440  0.91160  1.0000 0.1195714202
H   H26       1.0  0.12860  0.71420  0.09770  1.0000 0.1412279297
H   H27       1.0  0.99150  0.59160  0.92730  1.0000 0.1412279297
H   H28       1.0  0.58700  0.80380  0.47890  1.0000 0.1195714202
H   H29       1.0  0.27760  0.83340  0.41980  1.0000 0.1321660984
H   H30       1.0  0.32970  0.88450  0.62100  1.0000 0.1412279297
C   C1        1.0  0.98350  0.65590  0.61020  1.0000 -0.0110670509
C   C2        1.0  0.02790  0.69840  0.51380  1.0000 -0.1214135772
C   C3        1.0  0.97720  0.76460  0.47500  1.0000 -0.0110670509
C   C4        1.0  0.88920  0.79630  0.52770  1.0000 -0.1348343056
C   C5        1.0  0.84070  0.75140  0.62150  1.0000 -0.0190125606
C   C6        1.0  0.88710  0.68140  0.66440  1.0000 -0.1214135772
C   C7        1.0  0.03710  0.58170  0.65260  1.0000 0.5385311384
C   C8        1.0  0.02290  0.80520  0.36930  1.0000 0.5484358508
C   C9        1.0  0.73930  0.77640  0.67860  1.0000 0.5484358508
C   C10       1.0  0.37890  0.10010  0.82410  1.0000 -0.0110670509
C   C11       1.0  0.34930  0.18180  0.77580  1.0000 -0.1092174922
C   C12       1.0  0.25310  0.21080  0.81330  1.0000 -0.0306936942
C   C13       1.0  0.19410  0.16960  0.90630  1.0000 -0.1092174922
C   C14       1.0  0.21890  0.09140  0.95420  1.0000 -0.0306936942
C   C15       1.0  0.31510  0.05710  0.91040  1.0000 -0.1214135772
C   C16       1.0  0.48270  0.06400  0.78260  1.0000 0.5385311384
C   C17       1.0  0.21860  0.29030  0.75860  1.0000 0.5297133166
C   C18       1.0  0.15320  0.05150  0.05050  1.0000 0.5297133166
C   C19       1.0  0.77680  0.14320  0.34500  1.0000 0.1996953029
C   C20       1.0  0.80910  0.11940  0.23820  1.0000 -0.2718851528
C   C21       1.0  0.72040  0.09220  0.15600  1.0000 0.2099167892
C   C22       1.0  0.60080  0.08870  0.17540  1.0000 -0.3130963903
C   C23       1.0  0.57140  0.10710  0.28420  1.0000 0.2099167892
C   C24       1.0  0.65900  0.13640  0.37150  1.0000 -0.302642421
C   C25       1.0  0.88450  0.26340  0.52780  1.0000 0.1112854459
C   C26       1.0  0.01650  0.18630  0.54070  1.0000 -0.0190125606
C   C27       1.0  0.94910  0.12990  0.44260  1.0000 -0.0822960522
C   C28       1.0  0.64980  0.99140  0.95920  1.0000 0.1195714202
C   C29       1.0  0.85910  0.10120  0.99700  1.0000 -0.0822960522
C   C30       1.0  0.83020  0.05130  0.88930  1.0000 -0.0110670509
C   C31       1.0  0.34520  0.02320  0.23750  1.0000 0.0907967527
C   C32       1.0  0.28770  0.11200  0.38160  1.0000 -0.0306936942
C   C33       1.0  0.41160  0.15250  0.39430  1.0000 -0.0742106374
C   C34       1.0  0.57280  0.74800  0.14670  1.0000 0.2099167892
C   C35       1.0  0.46660  0.69690  0.07190  1.0000 -0.3130963903
C   C36       1.0  0.34740  0.67900  0.10970  1.0000 0.2250678826
C   C37       1.0  0.33680  0.71340  0.22350  1.0000 -0.2859878998
C   C38       1.0  0.44590  0.77070  0.29560  1.0000 0.2195704419
C   C39       1.0  0.56480  0.79040  0.25660  1.0000 -0.3432504397
C   C40       1.0  0.79640  0.80000  0.17770  1.0000 0.1112854459
C   C41       1.0  0.86130  0.80460  0.01700  1.0000 -0.0110670509
C   C42       1.0  0.73360  0.77060  0.00580  1.0000 -0.0822960522
C   C43       1.0  0.21840  0.54030  0.93700  1.0000 0.1412279297
C   C44       1.0  0.14090  0.65790  0.04090  1.0000 -0.0978995535
C   C45       1.0  0.06560  0.58940  0.94720  1.0000 -0.0190125606
C   C46       1.0  0.51630  0.81860  0.48930  1.0000 0.1195714202
C   C47       1.0  0.34620  0.83360  0.45470  1.0000 -0.0978995535
C   C48       1.0  0.37570  0.86250  0.56670  1.0000 0.0152921442
N   N1        1.0  0.97940  0.27710  0.59330  1.0000 -0.2718851528
N   N2        1.0  0.86860  0.17790  0.43350  1.0000 0.0127269726
N   N3        1.0  0.74160  0.06220  0.04040  1.0000 0.0033089505
N   N4        1.0  0.69760  0.98440  0.86560  1.0000 -0.2718851528
N   N5        1.0  0.45040  0.09770  0.30780  1.0000 0.0127269726
N   N6        1.0  0.24550  0.02940  0.28090  1.0000 -0.2630659204
N   N7        1.0  0.69520  0.76720  0.11070  1.0000 0.0033089505
N   N8        1.0  0.89820  0.82390  0.12660  1.0000 -0.2859878998
N   N9        1.0  0.24140  0.62590  0.03410  1.0000 0.0033089505
N   N10       1.0  0.11620  0.51500  0.88510  1.0000 -0.2630659204
N   N11       1.0  0.43800  0.80540  0.40550  1.0000 0.0033089505
N   N12       1.0  0.48520  0.85270  0.58280  1.0000 -0.2530874472
O   O1        1.0  0.96940  0.50060  0.70510  1.0000 -0.5410122137
O   O2        1.0  0.15100  0.60490  0.63730  1.0000 -0.5787082773
O   O3        1.0  0.07960  0.75570  0.30840  1.0000 -0.5607014161
O   O4        1.0  0.99670  0.88770  0.34240  1.0000 -0.5410122137
O   O5        1.0  0.71040  0.85380  0.64840  1.0000 -0.5541896086
O   O6        1.0  0.68650  0.71910  0.75060  1.0000 -0.5607014161
O   O7        1.0  0.46860  0.96100  0.79950  1.0000 -0.5314138593
O   O8        1.0  0.57080  0.13780  0.73780  1.0000 -0.5787082773
O   O9        1.0  0.29280  0.35920  0.70400  1.0000 -0.5314138593
O   O10       1.0  0.10960  0.28450  0.78020  1.0000 -0.5607014161
O   O11       1.0  0.10720  0.10960  0.10970  1.0000 -0.5314138593
O   O12       1.0  0.14960  0.94780  0.06700  1.0000 -0.5410122137
