# DDEC6 charges by PACMAN v1.1 (https://github.com/mtap-research/PACMAN-charge/)
data_2016[Sc][nan]3[ASR]6
_chemical_formula_sum              "Sc16 H96 C192 O96"
_cell_length_a       8.7373
_cell_length_b       20.691
_cell_length_c       34.124
_cell_angle_alpha    90
_cell_angle_beta     90
_cell_angle_gamma    90

_symmetry_space_group_name_H-M    "P 1"
_symmetry_Int_Tables_number       1

loop_
  _symmetry_equiv_pos_as_xyz
  'x, y, z'

loop_
  _atom_site_type_symbol
  _atom_site_label
  _atom_site_symmetry_multiplicity
  _atom_site_fract_x
  _atom_site_fract_y
  _atom_site_fract_z
  _atom_site_occupancy
  _atom_site_charge
Sc  Sc1       1.0  0.37500  0.37500  0.63581  1.0000 1.8164796528
Sc  Sc2       1.0  0.62500  0.62500  0.36419  1.0000 1.8164796528
Sc  Sc3       1.0  0.37500  0.37500  0.11419  1.0000 1.8164796528
Sc  Sc4       1.0  0.62500  0.62500  0.88581  1.0000 1.8164796528
Sc  Sc5       1.0  0.37500  0.87500  0.13581  1.0000 1.8146186596
Sc  Sc6       1.0  0.62500  0.12500  0.86419  1.0000 1.8164796528
Sc  Sc7       1.0  0.37500  0.87500  0.61419  1.0000 1.8164796528
Sc  Sc8       1.0  0.62500  0.12500  0.38581  1.0000 1.8164796528
Sc  Sc9       1.0  0.87500  0.37500  0.13581  1.0000 1.8146186596
Sc  Sc10      1.0  0.12500  0.62500  0.86419  1.0000 1.8164796528
Sc  Sc11      1.0  0.87500  0.37500  0.61419  1.0000 1.8164796528
Sc  Sc12      1.0  0.12500  0.62500  0.38581  1.0000 1.8164796528
Sc  Sc13      1.0  0.87500  0.87500  0.63581  1.0000 1.8164796528
Sc  Sc14      1.0  0.12500  0.12500  0.36419  1.0000 1.8164796528
Sc  Sc15      1.0  0.87500  0.87500  0.11419  1.0000 1.8164796528
Sc  Sc16      1.0  0.12500  0.12500  0.88581  1.0000 1.8164796528
H   H1        1.0  0.98565  0.27305  0.50843  1.0000 0.1259035761
H   H2        1.0  0.01435  0.72695  0.49157  1.0000 0.1259035761
H   H3        1.0  0.76435  0.47695  0.50843  1.0000 0.1259035761
H   H4        1.0  0.23565  0.52305  0.49157  1.0000 0.1259035761
H   H5        1.0  0.76435  0.27305  0.24157  1.0000 0.1259035761
H   H6        1.0  0.23565  0.72695  0.75843  1.0000 0.1259035761
H   H7        1.0  0.98565  0.47695  0.24157  1.0000 0.1259035761
H   H8        1.0  0.01435  0.52305  0.75843  1.0000 0.1259035761
H   H9        1.0  0.98565  0.77305  0.00843  1.0000 0.1259035761
H   H10       1.0  0.01435  0.22695  0.99157  1.0000 0.1259035761
H   H11       1.0  0.76435  0.97695  0.00843  1.0000 0.1259035761
H   H12       1.0  0.23565  0.02305  0.99157  1.0000 0.1259035761
H   H13       1.0  0.76435  0.77305  0.74157  1.0000 0.1259035761
H   H14       1.0  0.23565  0.22695  0.25843  1.0000 0.1259035761
H   H15       1.0  0.98565  0.97695  0.74157  1.0000 0.1259035761
H   H16       1.0  0.01435  0.02305  0.25843  1.0000 0.1259035761
H   H17       1.0  0.48565  0.27305  0.00843  1.0000 0.1259035761
H   H18       1.0  0.51435  0.72695  0.99157  1.0000 0.1259035761
H   H19       1.0  0.26435  0.47695  0.00843  1.0000 0.1259035761
H   H20       1.0  0.73565  0.52305  0.99157  1.0000 0.1259035761
H   H21       1.0  0.26435  0.27305  0.74157  1.0000 0.1259035761
H   H22       1.0  0.73565  0.72695  0.25843  1.0000 0.1259035761
H   H23       1.0  0.48565  0.47695  0.74157  1.0000 0.1259035761
H   H24       1.0  0.51435  0.52305  0.25843  1.0000 0.1259035761
H   H25       1.0  0.48565  0.77305  0.50843  1.0000 0.1259035761
H   H26       1.0  0.51435  0.22695  0.49157  1.0000 0.1259035761
H   H27       1.0  0.26435  0.97695  0.50843  1.0000 0.1259035761
H   H28       1.0  0.73565  0.02305  0.49157  1.0000 0.1259035761
H   H29       1.0  0.26435  0.77305  0.24157  1.0000 0.1259035761
H   H30       1.0  0.73565  0.22695  0.75843  1.0000 0.1259035761
H   H31       1.0  0.48565  0.97695  0.24157  1.0000 0.1259035761
H   H32       1.0  0.51435  0.02305  0.75843  1.0000 0.1259035761
H   H33       1.0  0.07106  0.21405  0.45298  1.0000 0.1186885354
H   H34       1.0  0.92894  0.78595  0.54702  1.0000 0.1186885354
H   H35       1.0  0.67894  0.53595  0.45298  1.0000 0.1186885354
H   H36       1.0  0.32106  0.46405  0.54702  1.0000 0.1186885354
H   H37       1.0  0.67894  0.21405  0.29702  1.0000 0.1186885354
H   H38       1.0  0.32106  0.78595  0.70298  1.0000 0.1186885354
H   H39       1.0  0.07106  0.53595  0.29702  1.0000 0.1186885354
H   H40       1.0  0.92894  0.46405  0.70298  1.0000 0.1186885354
H   H41       1.0  0.07106  0.71405  0.95298  1.0000 0.1186885354
H   H42       1.0  0.92894  0.28595  0.04702  1.0000 0.1186885354
H   H43       1.0  0.67894  0.03595  0.95298  1.0000 0.1186885354
H   H44       1.0  0.32106  0.96405  0.04702  1.0000 0.1186885354
H   H45       1.0  0.67894  0.71405  0.79702  1.0000 0.1186885354
H   H46       1.0  0.32106  0.28595  0.20298  1.0000 0.1186885354
H   H47       1.0  0.07106  0.03595  0.79702  1.0000 0.1186885354
H   H48       1.0  0.92894  0.96405  0.20298  1.0000 0.1186885354
H   H49       1.0  0.57106  0.21405  0.95298  1.0000 0.1186885354
H   H50       1.0  0.42894  0.78595  0.04702  1.0000 0.1186885354
H   H51       1.0  0.17894  0.53595  0.95298  1.0000 0.1186885354
H   H52       1.0  0.82106  0.46405  0.04702  1.0000 0.1186885354
H   H53       1.0  0.17894  0.21405  0.79702  1.0000 0.1186885354
H   H54       1.0  0.82106  0.78595  0.20298  1.0000 0.1186885354
H   H55       1.0  0.57106  0.53595  0.79702  1.0000 0.1186885354
H   H56       1.0  0.42894  0.46405  0.20298  1.0000 0.1186885354
H   H57       1.0  0.57106  0.71405  0.45298  1.0000 0.1186885354
H   H58       1.0  0.42894  0.28595  0.54702  1.0000 0.1186885354
H   H59       1.0  0.17894  0.03595  0.45298  1.0000 0.1186885354
H   H60       1.0  0.82106  0.96405  0.54702  1.0000 0.1186885354
H   H61       1.0  0.17894  0.71405  0.29702  1.0000 0.1186885354
H   H62       1.0  0.82106  0.28595  0.70298  1.0000 0.1186885354
H   H63       1.0  0.57106  0.03595  0.29702  1.0000 0.1186885354
H   H64       1.0  0.42894  0.96405  0.70298  1.0000 0.1186885354
H   H65       1.0  0.33831  0.68385  0.62532  1.0000 0.141580943
H   H66       1.0  0.66169  0.31615  0.37468  1.0000 0.141580943
H   H67       1.0  0.41169  0.06615  0.62532  1.0000 0.141580943
H   H68       1.0  0.58831  0.93385  0.37468  1.0000 0.141580943
H   H69       1.0  0.41169  0.68385  0.12468  1.0000 0.141580943
H   H70       1.0  0.58831  0.31615  0.87532  1.0000 0.141580943
H   H71       1.0  0.33831  0.06615  0.12468  1.0000 0.141580943
H   H72       1.0  0.66169  0.93385  0.87532  1.0000 0.141580943
H   H73       1.0  0.33831  0.18385  0.12532  1.0000 0.141580943
H   H74       1.0  0.66169  0.81615  0.87468  1.0000 0.141580943
H   H75       1.0  0.41169  0.56615  0.12532  1.0000 0.141580943
H   H76       1.0  0.58831  0.43385  0.87468  1.0000 0.141580943
H   H77       1.0  0.41169  0.18385  0.62468  1.0000 0.141580943
H   H78       1.0  0.58831  0.81615  0.37532  1.0000 0.141580943
H   H79       1.0  0.33831  0.56615  0.62468  1.0000 0.141580943
H   H80       1.0  0.66169  0.43385  0.37532  1.0000 0.141580943
H   H81       1.0  0.83831  0.68385  0.12532  1.0000 0.141580943
H   H82       1.0  0.16169  0.31615  0.87468  1.0000 0.141580943
H   H83       1.0  0.91169  0.06615  0.12532  1.0000 0.141580943
H   H84       1.0  0.08831  0.93385  0.87468  1.0000 0.141580943
H   H85       1.0  0.91169  0.68385  0.62468  1.0000 0.141580943
H   H86       1.0  0.08831  0.31615  0.37532  1.0000 0.141580943
H   H87       1.0  0.83831  0.06615  0.62468  1.0000 0.141580943
H   H88       1.0  0.16169  0.93385  0.37532  1.0000 0.141580943
H   H89       1.0  0.83831  0.18385  0.62532  1.0000 0.141580943
H   H90       1.0  0.16169  0.81615  0.37468  1.0000 0.141580943
H   H91       1.0  0.91169  0.56615  0.62532  1.0000 0.141580943
H   H92       1.0  0.08831  0.43385  0.37468  1.0000 0.141580943
H   H93       1.0  0.91169  0.18385  0.12468  1.0000 0.141580943
H   H94       1.0  0.08831  0.81615  0.87532  1.0000 0.141580943
H   H95       1.0  0.83831  0.56615  0.12468  1.0000 0.141580943
H   H96       1.0  0.16169  0.43385  0.87532  1.0000 0.141580943
C   C1        1.0  0.14764  0.31985  0.56733  1.0000 0.6514052501
C   C2        1.0  0.85236  0.68015  0.43267  1.0000 0.6514052501
C   C3        1.0  0.60236  0.43015  0.56733  1.0000 0.6514052501
C   C4        1.0  0.39764  0.56985  0.43267  1.0000 0.6514052501
C   C5        1.0  0.60236  0.31985  0.18267  1.0000 0.6514052501
C   C6        1.0  0.39764  0.68015  0.81733  1.0000 0.6514052501
C   C7        1.0  0.14764  0.43015  0.18267  1.0000 0.6514052501
C   C8        1.0  0.85236  0.56985  0.81733  1.0000 0.6514052501
C   C9        1.0  0.14764  0.81985  0.06733  1.0000 0.6514052501
C   C10       1.0  0.85236  0.18015  0.93267  1.0000 0.6514052501
C   C11       1.0  0.60236  0.93015  0.06733  1.0000 0.6514052501
C   C12       1.0  0.39764  0.06985  0.93267  1.0000 0.6514052501
C   C13       1.0  0.60236  0.81985  0.68267  1.0000 0.6514052501
C   C14       1.0  0.39764  0.18015  0.31733  1.0000 0.6514052501
C   C15       1.0  0.14764  0.93015  0.68267  1.0000 0.6514052501
C   C16       1.0  0.85236  0.06985  0.31733  1.0000 0.6514052501
C   C17       1.0  0.64764  0.31985  0.06733  1.0000 0.6514052501
C   C18       1.0  0.35236  0.68015  0.93267  1.0000 0.6514052501
C   C19       1.0  0.10236  0.43015  0.06733  1.0000 0.6514052501
C   C20       1.0  0.89764  0.56985  0.93267  1.0000 0.6514052501
C   C21       1.0  0.10236  0.31985  0.68267  1.0000 0.6514052501
C   C22       1.0  0.89764  0.68015  0.31733  1.0000 0.6514052501
C   C23       1.0  0.64764  0.43015  0.68267  1.0000 0.6514052501
C   C24       1.0  0.35236  0.56985  0.31733  1.0000 0.6514052501
C   C25       1.0  0.64764  0.81985  0.56733  1.0000 0.6514052501
C   C26       1.0  0.35236  0.18015  0.43267  1.0000 0.6514052501
C   C27       1.0  0.10236  0.93015  0.56733  1.0000 0.6514052501
C   C28       1.0  0.89764  0.06985  0.43267  1.0000 0.6514052501
C   C29       1.0  0.10236  0.81985  0.18267  1.0000 0.6514052501
C   C30       1.0  0.89764  0.18015  0.81733  1.0000 0.6514052501
C   C31       1.0  0.64764  0.93015  0.18267  1.0000 0.6514052501
C   C32       1.0  0.35236  0.06985  0.81733  1.0000 0.6514052501
C   C33       1.0  0.20016  0.28444  0.53274  1.0000 -0.0416904423
C   C34       1.0  0.79984  0.71556  0.46726  1.0000 -0.0416904423
C   C35       1.0  0.54984  0.46556  0.53274  1.0000 -0.0416904423
C   C36       1.0  0.45016  0.53444  0.46726  1.0000 -0.0416904423
C   C37       1.0  0.54984  0.28444  0.21726  1.0000 -0.0416904423
C   C38       1.0  0.45016  0.71556  0.78274  1.0000 -0.0416904423
C   C39       1.0  0.20016  0.46556  0.21726  1.0000 -0.0416904423
C   C40       1.0  0.79984  0.53444  0.78274  1.0000 -0.0416904423
C   C41       1.0  0.20016  0.78444  0.03274  1.0000 -0.0416904423
C   C42       1.0  0.79984  0.21556  0.96726  1.0000 -0.0416904423
C   C43       1.0  0.54984  0.96556  0.03274  1.0000 -0.0416904423
C   C44       1.0  0.45016  0.03444  0.96726  1.0000 -0.0416904423
C   C45       1.0  0.54984  0.78444  0.71726  1.0000 -0.0416904423
C   C46       1.0  0.45016  0.21556  0.28274  1.0000 -0.0416904423
C   C47       1.0  0.20016  0.96556  0.71726  1.0000 -0.0416904423
C   C48       1.0  0.79984  0.03444  0.28274  1.0000 -0.0416904423
C   C49       1.0  0.70016  0.28444  0.03274  1.0000 -0.0416904423
C   C50       1.0  0.29984  0.71556  0.96726  1.0000 -0.0416904423
C   C51       1.0  0.04984  0.46556  0.03274  1.0000 -0.0416904423
C   C52       1.0  0.95016  0.53444  0.96726  1.0000 -0.0416904423
C   C53       1.0  0.04984  0.28444  0.71726  1.0000 -0.0416904423
C   C54       1.0  0.95016  0.71556  0.28274  1.0000 -0.0416904423
C   C55       1.0  0.70016  0.46556  0.71726  1.0000 -0.0416904423
C   C56       1.0  0.29984  0.53444  0.28274  1.0000 -0.0416904423
C   C57       1.0  0.70016  0.78444  0.53274  1.0000 -0.0416904423
C   C58       1.0  0.29984  0.21556  0.46726  1.0000 -0.0416904423
C   C59       1.0  0.04984  0.96556  0.53274  1.0000 -0.0416904423
C   C60       1.0  0.95016  0.03444  0.46726  1.0000 -0.0416904423
C   C61       1.0  0.04984  0.78444  0.21726  1.0000 -0.0416904423
C   C62       1.0  0.95016  0.21556  0.78274  1.0000 -0.0416904423
C   C63       1.0  0.70016  0.96556  0.21726  1.0000 -0.0416904423
C   C64       1.0  0.29984  0.03444  0.78274  1.0000 -0.0416904423
C   C65       1.0  0.09907  0.26321  0.50490  1.0000 -0.0905338177
C   C66       1.0  0.90093  0.73679  0.49510  1.0000 -0.0905338177
C   C67       1.0  0.65093  0.48679  0.50490  1.0000 -0.0905338177
C   C68       1.0  0.34907  0.51321  0.49510  1.0000 -0.0905338177
C   C69       1.0  0.65093  0.26321  0.24510  1.0000 -0.0905338177
C   C70       1.0  0.34907  0.73679  0.75490  1.0000 -0.0905338177
C   C71       1.0  0.09907  0.48679  0.24510  1.0000 -0.0905338177
C   C72       1.0  0.90093  0.51321  0.75490  1.0000 -0.0905338177
C   C73       1.0  0.09907  0.76321  0.00490  1.0000 -0.0905338177
C   C74       1.0  0.90093  0.23679  0.99510  1.0000 -0.0905338177
C   C75       1.0  0.65093  0.98679  0.00490  1.0000 -0.0905338177
C   C76       1.0  0.34907  0.01321  0.99510  1.0000 -0.0905338177
C   C77       1.0  0.65093  0.76321  0.74510  1.0000 -0.0905338177
C   C78       1.0  0.34907  0.23679  0.25490  1.0000 -0.0905338177
C   C79       1.0  0.09907  0.98679  0.74510  1.0000 -0.0905338177
C   C80       1.0  0.90093  0.01321  0.25490  1.0000 -0.0905338177
C   C81       1.0  0.59907  0.26321  0.00490  1.0000 -0.0905338177
C   C82       1.0  0.40093  0.73679  0.99510  1.0000 -0.0905338177
C   C83       1.0  0.15093  0.48679  0.00490  1.0000 -0.0905338177
C   C84       1.0  0.84907  0.51321  0.99510  1.0000 -0.0905338177
C   C85       1.0  0.15093  0.26321  0.74510  1.0000 -0.0905338177
C   C86       1.0  0.84907  0.73679  0.25490  1.0000 -0.0905338177
C   C87       1.0  0.59907  0.48679  0.74510  1.0000 -0.0905338177
C   C88       1.0  0.40093  0.51321  0.25490  1.0000 -0.0905338177
C   C89       1.0  0.59907  0.76321  0.50490  1.0000 -0.0905338177
C   C90       1.0  0.40093  0.23679  0.49510  1.0000 -0.0905338177
C   C91       1.0  0.15093  0.98679  0.50490  1.0000 -0.0905338177
C   C92       1.0  0.84907  0.01321  0.49510  1.0000 -0.0905338177
C   C93       1.0  0.15093  0.76321  0.24510  1.0000 -0.0905338177
C   C94       1.0  0.84907  0.23679  0.75490  1.0000 -0.0905338177
C   C95       1.0  0.59907  0.98679  0.24510  1.0000 -0.0905338177
C   C96       1.0  0.40093  0.01321  0.75490  1.0000 -0.0905338177
C   C97       1.0  0.14814  0.22963  0.47325  1.0000 -0.0993472988
C   C98       1.0  0.85186  0.77037  0.52675  1.0000 -0.0993472988
C   C99       1.0  0.60186  0.52037  0.47325  1.0000 -0.0993472988
C   C100      1.0  0.39814  0.47963  0.52675  1.0000 -0.0993472988
C   C101      1.0  0.60186  0.22963  0.27675  1.0000 -0.0993472988
C   C102      1.0  0.39814  0.77037  0.72325  1.0000 -0.0993472988
C   C103      1.0  0.14814  0.52037  0.27675  1.0000 -0.0993472988
C   C104      1.0  0.85186  0.47963  0.72325  1.0000 -0.0993472988
C   C105      1.0  0.14814  0.72963  0.97325  1.0000 -0.0993472988
C   C106      1.0  0.85186  0.27037  0.02675  1.0000 -0.0993472988
C   C107      1.0  0.60186  0.02037  0.97325  1.0000 -0.0993472988
C   C108      1.0  0.39814  0.97963  0.02675  1.0000 -0.0993472988
C   C109      1.0  0.60186  0.72963  0.77675  1.0000 -0.0993472988
C   C110      1.0  0.39814  0.27037  0.22325  1.0000 -0.0993472988
C   C111      1.0  0.14814  0.02037  0.77675  1.0000 -0.0993472988
C   C112      1.0  0.85186  0.97963  0.22325  1.0000 -0.0993472988
C   C113      1.0  0.64814  0.22963  0.97325  1.0000 -0.0993472988
C   C114      1.0  0.35186  0.77037  0.02675  1.0000 -0.0993472988
C   C115      1.0  0.10186  0.52037  0.97325  1.0000 -0.0993472988
C   C116      1.0  0.89814  0.47963  0.02675  1.0000 -0.0993472988
C   C117      1.0  0.10186  0.22963  0.77675  1.0000 -0.0993472988
C   C118      1.0  0.89814  0.77037  0.22325  1.0000 -0.0993472988
C   C119      1.0  0.64814  0.52037  0.77675  1.0000 -0.0993472988
C   C120      1.0  0.35186  0.47963  0.22325  1.0000 -0.0993472988
C   C121      1.0  0.64814  0.72963  0.47325  1.0000 -0.0993472988
C   C122      1.0  0.35186  0.27037  0.52675  1.0000 -0.0993472988
C   C123      1.0  0.10186  0.02037  0.47325  1.0000 -0.0993472988
C   C124      1.0  0.89814  0.97963  0.52675  1.0000 -0.0993472988
C   C125      1.0  0.10186  0.72963  0.27675  1.0000 -0.0993472988
C   C126      1.0  0.89814  0.27037  0.72325  1.0000 -0.0993472988
C   C127      1.0  0.64814  0.02037  0.27675  1.0000 -0.0993472988
C   C128      1.0  0.35186  0.97963  0.72325  1.0000 -0.0993472988
C   C129      1.0  0.12500  0.48402  0.62500  1.0000 0.6653275615
C   C130      1.0  0.87500  0.51598  0.37500  1.0000 0.664843691
C   C131      1.0  0.62500  0.26598  0.62500  1.0000 0.6653275615
C   C132      1.0  0.37500  0.73402  0.37500  1.0000 0.664843691
C   C133      1.0  0.62500  0.48402  0.12500  1.0000 0.664843691
C   C134      1.0  0.37500  0.51598  0.87500  1.0000 0.6653275615
C   C135      1.0  0.12500  0.26598  0.12500  1.0000 0.664843691
C   C136      1.0  0.87500  0.73402  0.87500  1.0000 0.664843691
C   C137      1.0  0.12500  0.98402  0.12500  1.0000 0.664843691
C   C138      1.0  0.87500  0.01598  0.87500  1.0000 0.6653275615
C   C139      1.0  0.62500  0.76598  0.12500  1.0000 0.664843691
C   C140      1.0  0.37500  0.23402  0.87500  1.0000 0.6653275615
C   C141      1.0  0.62500  0.98402  0.62500  1.0000 0.664843691
C   C142      1.0  0.37500  0.01598  0.37500  1.0000 0.6653275615
C   C143      1.0  0.12500  0.76598  0.62500  1.0000 0.6653275615
C   C144      1.0  0.87500  0.23402  0.37500  1.0000 0.6653275615
C   C145      1.0  0.12500  0.55664  0.62500  1.0000 -0.0544805066
C   C146      1.0  0.87500  0.44336  0.37500  1.0000 -0.0544805066
C   C147      1.0  0.62500  0.19336  0.62500  1.0000 -0.0544805066
C   C148      1.0  0.37500  0.80664  0.37500  1.0000 -0.0544805066
C   C149      1.0  0.62500  0.55664  0.12500  1.0000 -0.0544805066
C   C150      1.0  0.37500  0.44336  0.87500  1.0000 -0.0544805066
C   C151      1.0  0.12500  0.19336  0.12500  1.0000 -0.0544805066
C   C152      1.0  0.87500  0.80664  0.87500  1.0000 -0.0544805066
C   C153      1.0  0.12500  0.05664  0.12500  1.0000 -0.0544805066
C   C154      1.0  0.87500  0.94336  0.87500  1.0000 -0.0544805066
C   C155      1.0  0.62500  0.69336  0.12500  1.0000 -0.0544805066
C   C156      1.0  0.37500  0.30664  0.87500  1.0000 -0.0544805066
C   C157      1.0  0.62500  0.05664  0.62500  1.0000 -0.0544805066
C   C158      1.0  0.37500  0.94336  0.37500  1.0000 -0.0544805066
C   C159      1.0  0.12500  0.69336  0.62500  1.0000 -0.0544805066
C   C160      1.0  0.87500  0.30664  0.37500  1.0000 -0.0544805066
C   C161      1.0  0.24408  0.65551  0.62558  1.0000 -0.0993472988
C   C162      1.0  0.75592  0.34449  0.37442  1.0000 -0.0993472988
C   C163      1.0  0.50592  0.09449  0.62558  1.0000 -0.0993472988
C   C164      1.0  0.49408  0.90551  0.37442  1.0000 -0.0993472988
C   C165      1.0  0.50592  0.65551  0.12442  1.0000 -0.0993472988
C   C166      1.0  0.49408  0.34449  0.87558  1.0000 -0.0993472988
C   C167      1.0  0.24408  0.09449  0.12442  1.0000 -0.0993472988
C   C168      1.0  0.75592  0.90551  0.87558  1.0000 -0.0993472988
C   C169      1.0  0.24408  0.15551  0.12558  1.0000 -0.0993472988
C   C170      1.0  0.75592  0.84449  0.87442  1.0000 -0.0993472988
C   C171      1.0  0.50592  0.59449  0.12558  1.0000 -0.0993472988
C   C172      1.0  0.49408  0.40551  0.87442  1.0000 -0.0993472988
C   C173      1.0  0.50592  0.15551  0.62442  1.0000 -0.0993472988
C   C174      1.0  0.49408  0.84449  0.37558  1.0000 -0.0993472988
C   C175      1.0  0.24408  0.59449  0.62442  1.0000 -0.0993472988
C   C176      1.0  0.75592  0.40551  0.37558  1.0000 -0.0993472988
C   C177      1.0  0.74408  0.65551  0.12558  1.0000 -0.0993472988
C   C178      1.0  0.25592  0.34449  0.87442  1.0000 -0.0993472988
C   C179      1.0  0.00592  0.09449  0.12558  1.0000 -0.0993472988
C   C180      1.0  0.99408  0.90551  0.87442  1.0000 -0.0993472988
C   C181      1.0  0.00592  0.65551  0.62442  1.0000 -0.0993472988
C   C182      1.0  0.99408  0.34449  0.37558  1.0000 -0.0993472988
C   C183      1.0  0.74408  0.09449  0.62442  1.0000 -0.0993472988
C   C184      1.0  0.25592  0.90551  0.37558  1.0000 -0.0993472988
C   C185      1.0  0.74408  0.15551  0.62558  1.0000 -0.0993472988
C   C186      1.0  0.25592  0.84449  0.37442  1.0000 -0.0993472988
C   C187      1.0  0.00592  0.59449  0.62558  1.0000 -0.0993472988
C   C188      1.0  0.99408  0.40551  0.37442  1.0000 -0.0993472988
C   C189      1.0  0.00592  0.15551  0.12442  1.0000 -0.0993472988
C   C190      1.0  0.99408  0.84449  0.87558  1.0000 -0.0993472988
C   C191      1.0  0.74408  0.59449  0.12442  1.0000 -0.0993472988
C   C192      1.0  0.25592  0.40551  0.87558  1.0000 -0.0993472988
O   O1        1.0  0.24474  0.33522  0.59307  1.0000 -0.6664570035
O   O2        1.0  0.75526  0.66478  0.40693  1.0000 -0.6664570035
O   O3        1.0  0.50526  0.41478  0.59307  1.0000 -0.6664570035
O   O4        1.0  0.49474  0.58522  0.40693  1.0000 -0.6664570035
O   O5        1.0  0.50526  0.33522  0.15693  1.0000 -0.6664570035
O   O6        1.0  0.49474  0.66478  0.84307  1.0000 -0.6664570035
O   O7        1.0  0.24474  0.41478  0.15693  1.0000 -0.6664570035
O   O8        1.0  0.75526  0.58522  0.84307  1.0000 -0.6664570035
O   O9        1.0  0.24474  0.83522  0.09307  1.0000 -0.6664570035
O   O10       1.0  0.75526  0.16478  0.90693  1.0000 -0.6664570035
O   O11       1.0  0.50526  0.91478  0.09307  1.0000 -0.6664570035
O   O12       1.0  0.49474  0.08522  0.90693  1.0000 -0.6664570035
O   O13       1.0  0.50526  0.83522  0.65693  1.0000 -0.6664570035
O   O14       1.0  0.49474  0.16478  0.34307  1.0000 -0.6664570035
O   O15       1.0  0.24474  0.91478  0.65693  1.0000 -0.6664570035
O   O16       1.0  0.75526  0.08522  0.34307  1.0000 -0.6664570035
O   O17       1.0  0.74474  0.33522  0.09307  1.0000 -0.6664570035
O   O18       1.0  0.25526  0.66478  0.90693  1.0000 -0.6664570035
O   O19       1.0  0.00526  0.41478  0.09307  1.0000 -0.6664570035
O   O20       1.0  0.99474  0.58522  0.90693  1.0000 -0.6664570035
O   O21       1.0  0.00526  0.33522  0.65693  1.0000 -0.6664570035
O   O22       1.0  0.99474  0.66478  0.34307  1.0000 -0.6664570035
O   O23       1.0  0.74474  0.41478  0.65693  1.0000 -0.6664570035
O   O24       1.0  0.25526  0.58522  0.34307  1.0000 -0.6664570035
O   O25       1.0  0.74474  0.83522  0.59307  1.0000 -0.6664570035
O   O26       1.0  0.25526  0.16478  0.40693  1.0000 -0.6664570035
O   O27       1.0  0.00526  0.91478  0.59307  1.0000 -0.6664570035
O   O28       1.0  0.99474  0.08522  0.40693  1.0000 -0.6664570035
O   O29       1.0  0.00526  0.83522  0.15693  1.0000 -0.6664570035
O   O30       1.0  0.99474  0.16478  0.84307  1.0000 -0.6664570035
O   O31       1.0  0.74474  0.91478  0.15693  1.0000 -0.6664570035
O   O32       1.0  0.25526  0.08522  0.84307  1.0000 -0.6664570035
O   O33       1.0  0.00665  0.33338  0.57032  1.0000 -0.6197046959
O   O34       1.0  0.99335  0.66667  0.42968  1.0000 -0.6197046959
O   O35       1.0  0.74335  0.41662  0.57032  1.0000 -0.6197046959
O   O36       1.0  0.25665  0.58338  0.42968  1.0000 -0.6197046959
O   O37       1.0  0.74335  0.33338  0.17968  1.0000 -0.6197046959
O   O38       1.0  0.25665  0.66667  0.82032  1.0000 -0.6197046959
O   O39       1.0  0.00665  0.41662  0.17968  1.0000 -0.6197046959
O   O40       1.0  0.99335  0.58338  0.82032  1.0000 -0.6197046959
O   O41       1.0  0.00665  0.83338  0.07032  1.0000 -0.6197046959
O   O42       1.0  0.99335  0.16662  0.92968  1.0000 -0.6197046959
O   O43       1.0  0.74335  0.91662  0.07032  1.0000 -0.6197046959
O   O44       1.0  0.25665  0.08338  0.92968  1.0000 -0.6197046959
O   O45       1.0  0.74335  0.83338  0.67968  1.0000 -0.6197046959
O   O46       1.0  0.25665  0.16662  0.32032  1.0000 -0.6197046959
O   O47       1.0  0.00665  0.91662  0.67968  1.0000 -0.6197046959
O   O48       1.0  0.99335  0.08338  0.32032  1.0000 -0.6197046959
O   O49       1.0  0.50665  0.33338  0.07032  1.0000 -0.6197046959
O   O50       1.0  0.49335  0.66667  0.92968  1.0000 -0.6197046959
O   O51       1.0  0.24335  0.41662  0.07032  1.0000 -0.6197046959
O   O52       1.0  0.75665  0.58338  0.92968  1.0000 -0.6197046959
O   O53       1.0  0.24335  0.33338  0.67968  1.0000 -0.6197046959
O   O54       1.0  0.75665  0.66667  0.32032  1.0000 -0.6197046959
O   O55       1.0  0.50665  0.41662  0.67968  1.0000 -0.6197046959
O   O56       1.0  0.49335  0.58338  0.32032  1.0000 -0.6197046959
O   O57       1.0  0.50665  0.83338  0.57032  1.0000 -0.6197046959
O   O58       1.0  0.49335  0.16662  0.42968  1.0000 -0.6197046959
O   O59       1.0  0.24335  0.91662  0.57032  1.0000 -0.6197046959
O   O60       1.0  0.75665  0.08338  0.42968  1.0000 -0.6197046959
O   O61       1.0  0.24335  0.83338  0.17968  1.0000 -0.6197046959
O   O62       1.0  0.75665  0.16662  0.82032  1.0000 -0.6197046959
O   O63       1.0  0.50665  0.91662  0.17968  1.0000 -0.6197046959
O   O64       1.0  0.49335  0.08338  0.82032  1.0000 -0.6197046959
O   O65       1.0  0.24711  0.45734  0.63635  1.0000 -0.6339238217
O   O66       1.0  0.75289  0.54266  0.36365  1.0000 -0.6339238217
O   O67       1.0  0.50289  0.29266  0.63635  1.0000 -0.6339238217
O   O68       1.0  0.49711  0.70734  0.36365  1.0000 -0.6339238217
O   O69       1.0  0.50289  0.45734  0.11365  1.0000 -0.6339238217
O   O70       1.0  0.49711  0.54266  0.88635  1.0000 -0.6339238217
O   O71       1.0  0.24711  0.29266  0.11365  1.0000 -0.6339238217
O   O72       1.0  0.75289  0.70734  0.88635  1.0000 -0.6339238217
O   O73       1.0  0.24711  0.95734  0.13635  1.0000 -0.6339238217
O   O74       1.0  0.75289  0.04266  0.86365  1.0000 -0.6339238217
O   O75       1.0  0.50289  0.79266  0.13635  1.0000 -0.6339238217
O   O76       1.0  0.49711  0.20734  0.86365  1.0000 -0.6339238217
O   O77       1.0  0.50289  0.95734  0.61365  1.0000 -0.6339238217
O   O78       1.0  0.49711  0.04266  0.38635  1.0000 -0.6339238217
O   O79       1.0  0.24711  0.79266  0.61365  1.0000 -0.6339238217
O   O80       1.0  0.75289  0.20734  0.38635  1.0000 -0.6339238217
O   O81       1.0  0.74711  0.45734  0.13635  1.0000 -0.6339238217
O   O82       1.0  0.25289  0.54266  0.86365  1.0000 -0.6339238217
O   O83       1.0  0.00289  0.29266  0.13635  1.0000 -0.6339238217
O   O84       1.0  0.99711  0.70734  0.86365  1.0000 -0.6339238217
O   O85       1.0  0.00289  0.45734  0.61365  1.0000 -0.6339238217
O   O86       1.0  0.99711  0.54266  0.38635  1.0000 -0.6339238217
O   O87       1.0  0.74711  0.29266  0.61365  1.0000 -0.6339238217
O   O88       1.0  0.25289  0.70734  0.38635  1.0000 -0.6339238217
O   O89       1.0  0.74711  0.95734  0.63635  1.0000 -0.6339238217
O   O90       1.0  0.25289  0.04266  0.36365  1.0000 -0.6339238217
O   O91       1.0  0.00289  0.79266  0.63635  1.0000 -0.6339238217
O   O92       1.0  0.99711  0.20734  0.36365  1.0000 -0.6339238217
O   O93       1.0  0.00289  0.95734  0.11365  1.0000 -0.6339238217
O   O94       1.0  0.99711  0.04266  0.88635  1.0000 -0.6339238217
O   O95       1.0  0.74711  0.79266  0.11365  1.0000 -0.6339238217
O   O96       1.0  0.25289  0.20734  0.88635  1.0000 -0.6339238217
