# DDEC6 charges by PACMAN v1.1 (https://github.com/mtap-research/PACMAN-charge/)
data_2016[Dy][pcu]3[ASR]3
_chemical_formula_sum              "Dy4 H32 C48 N12 O36"
_cell_length_a       10.1298
_cell_length_b       17.0934
_cell_length_c       11.0846
_cell_angle_alpha    90
_cell_angle_beta     108.696
_cell_angle_gamma    90

_symmetry_space_group_name_H-M    "P 1"
_symmetry_Int_Tables_number       1

loop_
  _symmetry_equiv_pos_as_xyz
  'x, y, z'

loop_
  _atom_site_type_symbol
  _atom_site_label
  _atom_site_symmetry_multiplicity
  _atom_site_fract_x
  _atom_site_fract_y
  _atom_site_fract_z
  _atom_site_occupancy
  _atom_site_charge
Dy  Dy1       1.0  0.99107  0.99595  0.31682  1.0000 2.019753563
Dy  Dy2       1.0  0.00893  0.49595  0.18318  1.0000 2.019753563
Dy  Dy3       1.0  0.00893  0.00405  0.68318  1.0000 2.019753563
Dy  Dy4       1.0  0.99107  0.50405  0.81682  1.0000 2.019753563
H   H1        1.0  0.56590  0.11630  0.54360  1.0000 0.1436741378
H   H2        1.0  0.43410  0.61630  0.95640  1.0000 0.1436741378
H   H3        1.0  0.43410  0.88370  0.45640  1.0000 0.1436741378
H   H4        1.0  0.56590  0.38370  0.04360  1.0000 0.1436741378
H   H5        1.0  0.32850  0.13380  0.48060  1.0000 0.1436741378
H   H6        1.0  0.67150  0.63380  0.01940  1.0000 0.1436741378
H   H7        1.0  0.67150  0.86620  0.51940  1.0000 0.1436741378
H   H8        1.0  0.32850  0.36620  0.98060  1.0000 0.1436741378
H   H9        1.0  0.28710  0.02410  0.15710  1.0000 0.1336179253
H   H10       1.0  0.71290  0.52410  0.34290  1.0000 0.1336179253
H   H11       1.0  0.71290  0.97590  0.84290  1.0000 0.1336179253
H   H12       1.0  0.28710  0.47590  0.65710  1.0000 0.1336179253
H   H13       1.0  0.17270  0.69080  0.77020  1.0000 0.1436741378
H   H14       1.0  0.82730  0.19080  0.72980  1.0000 0.1436741378
H   H15       1.0  0.82730  0.30920  0.22980  1.0000 0.1436741378
H   H16       1.0  0.17270  0.80920  0.27020  1.0000 0.1436741378
H   H17       1.0  0.52430  0.00900  0.21290  1.0000 0.1595915731
H   H18       1.0  0.47570  0.50900  0.28710  1.0000 0.1595915731
H   H19       1.0  0.47570  0.99100  0.78710  1.0000 0.1595915731
H   H20       1.0  0.52430  0.49100  0.71290  1.0000 0.1595915731
H   H21       1.0  0.11810  0.81270  0.68210  1.0000 0.1595915731
H   H22       1.0  0.88190  0.31270  0.81790  1.0000 0.1515183524
H   H23       1.0  0.88190  0.18730  0.31790  1.0000 0.1515183524
H   H24       1.0  0.11810  0.68730  0.18210  1.0000 0.1595915731
H   H25       1.0  0.88240  0.71240  0.35810  1.0000 0.1515183524
H   H26       1.0  0.11760  0.21240  0.14190  1.0000 0.1515183524
H   H27       1.0  0.11760  0.28760  0.64190  1.0000 0.1515183524
H   H28       1.0  0.88240  0.78760  0.85810  1.0000 0.1515183524
H   H29       1.0  0.93200  0.59200  0.45430  1.0000 0.1336179253
H   H30       1.0  0.06800  0.09200  0.04570  1.0000 0.1336179253
H   H31       1.0  0.06800  0.40800  0.54570  1.0000 0.1336179253
H   H32       1.0  0.93200  0.90800  0.95430  1.0000 0.1336179253
C   C1        1.0  0.57210  0.05836  0.38680  1.0000 -0.0074110948
C   C2        1.0  0.42790  0.55836  0.11320  1.0000 -0.0074110948
C   C3        1.0  0.42790  0.94164  0.61320  1.0000 -0.0074110948
C   C4        1.0  0.57210  0.44164  0.88680  1.0000 -0.0074110948
C   C5        1.0  0.51060  0.09708  0.46520  1.0000 -0.1374727462
C   C6        1.0  0.48940  0.59708  0.03480  1.0000 -0.1374727462
C   C7        1.0  0.48940  0.90292  0.53480  1.0000 -0.1374727462
C   C8        1.0  0.51060  0.40292  0.96520  1.0000 -0.1374727462
C   C9        1.0  0.36890  0.10728  0.42800  1.0000 -0.0432429437
C   C10       1.0  0.63110  0.60728  0.07200  1.0000 -0.0432429437
C   C11       1.0  0.63110  0.89272  0.57200  1.0000 -0.0432429437
C   C12       1.0  0.36890  0.39272  0.92800  1.0000 -0.0432429437
C   C13       1.0  0.72540  0.04011  0.43030  1.0000 0.6273905512
C   C14       1.0  0.27460  0.54011  0.06970  1.0000 0.6273905512
C   C15       1.0  0.27460  0.95989  0.56970  1.0000 0.6273905512
C   C16       1.0  0.72540  0.45989  0.93030  1.0000 0.6273905512
C   C17       1.0  0.34430  0.04254  0.23530  1.0000 -0.0215983439
C   C18       1.0  0.65570  0.54254  0.26470  1.0000 -0.0215983439
C   C19       1.0  0.65570  0.95746  0.76470  1.0000 -0.0215983439
C   C20       1.0  0.34430  0.45746  0.73530  1.0000 -0.0215983439
C   C21       1.0  0.11190  0.69587  0.68760  1.0000 -0.0215983439
C   C22       1.0  0.88810  0.19587  0.81240  1.0000 -0.0215983439
C   C23       1.0  0.88810  0.30413  0.31240  1.0000 -0.0215983439
C   C24       1.0  0.11190  0.80413  0.18760  1.0000 -0.0215983439
C   C25       1.0  0.48580  0.03286  0.26920  1.0000 -0.1231531208
C   C26       1.0  0.51420  0.53286  0.23080  1.0000 -0.1231531208
C   C27       1.0  0.51420  0.96714  0.73080  1.0000 -0.1231531208
C   C28       1.0  0.48580  0.46714  0.76920  1.0000 -0.1231531208
C   C29       1.0  0.08040  0.76849  0.63470  1.0000 -0.1231531208
C   C30       1.0  0.91960  0.26849  0.86530  1.0000 -0.1231531208
C   C31       1.0  0.91960  0.23151  0.36530  1.0000 -0.1231531208
C   C32       1.0  0.08040  0.73151  0.13470  1.0000 -0.1231531208
C   C33       1.0  0.96370  0.85493  0.44800  1.0000 0.6128789957
C   C34       1.0  0.03630  0.35493  0.05200  1.0000 0.6128789957
C   C35       1.0  0.03630  0.14507  0.55200  1.0000 0.6128789957
C   C36       1.0  0.96370  0.64507  0.94800  1.0000 0.6128789957
C   C37       1.0  0.93910  0.70889  0.44250  1.0000 -0.1231531208
C   C38       1.0  0.06090  0.20889  0.05750  1.0000 -0.1231531208
C   C39       1.0  0.06090  0.29111  0.55750  1.0000 -0.1231531208
C   C40       1.0  0.93910  0.79111  0.94250  1.0000 -0.1231531208
C   C41       1.0  0.96990  0.63702  0.49940  1.0000 -0.0074110948
C   C42       1.0  0.03010  0.13702  0.00060  1.0000 -0.0074110948
C   C43       1.0  0.03010  0.36298  0.50060  1.0000 -0.0074110948
C   C44       1.0  0.96990  0.86298  0.99940  1.0000 -0.0074110948
C   C45       1.0  0.99220  0.77641  0.51010  1.0000 0.0090219194
C   C46       1.0  0.00780  0.27641  0.98990  1.0000 0.0090219194
C   C47       1.0  0.00780  0.22359  0.48990  1.0000 0.0090219194
C   C48       1.0  0.99220  0.72359  0.01010  1.0000 0.0090219194
N   N1        1.0  0.77520  0.04816  0.08850  1.0000 0.7062660928
N   N2        1.0  0.22480  0.54816  0.41150  1.0000 0.7062660928
N   N3        1.0  0.22480  0.95184  0.91150  1.0000 0.7062660928
N   N4        1.0  0.77520  0.45184  0.58850  1.0000 0.7062660928
N   N5        1.0  0.28800  0.07866  0.31470  1.0000 0.3332474108
N   N6        1.0  0.71200  0.57866  0.18530  1.0000 0.3332474108
N   N7        1.0  0.71200  0.92134  0.68530  1.0000 0.3332474108
N   N8        1.0  0.28800  0.42134  0.81470  1.0000 0.3332474108
N   N9        1.0  0.05510  0.63151  0.62060  1.0000 0.3377696748
N   N10       1.0  0.94490  0.13151  0.87940  1.0000 0.3377696748
N   N11       1.0  0.94490  0.36849  0.37940  1.0000 0.3377696748
N   N12       1.0  0.05510  0.86849  0.12060  1.0000 0.3377696748
O   O1        1.0  0.77380  0.01556  0.34600  1.0000 -0.6399982993
O   O2        1.0  0.22620  0.51556  0.15400  1.0000 -0.6399982993
O   O3        1.0  0.22620  0.98444  0.65400  1.0000 -0.6399982993
O   O4        1.0  0.77380  0.48444  0.84600  1.0000 -0.6399982993
O   O5        1.0  0.15050  0.08736  0.28170  1.0000 -0.5923970465
O   O6        1.0  0.84950  0.58736  0.21830  1.0000 -0.5923970465
O   O7        1.0  0.84950  0.91264  0.71830  1.0000 -0.5923970465
O   O8        1.0  0.15050  0.41264  0.78170  1.0000 -0.5923970465
O   O9        1.0  0.79580  0.97579  0.10910  1.0000 -0.4842175666
O   O10       1.0  0.20420  0.47579  0.39090  1.0000 -0.4850431506
O   O11       1.0  0.20420  0.02421  0.89090  1.0000 -0.4850431506
O   O12       1.0  0.79580  0.52421  0.60910  1.0000 -0.4842175666
O   O13       1.0  0.67750  0.07333  0.00070  1.0000 -0.3744418446
O   O14       1.0  0.32250  0.57333  0.49930  1.0000 -0.3744418446
O   O15       1.0  0.32250  0.92667  0.99930  1.0000 -0.3744418446
O   O16       1.0  0.67750  0.42667  0.50070  1.0000 -0.3744418446
O   O17       1.0  0.86350  0.09408  0.16350  1.0000 -0.5210582141
O   O18       1.0  0.13650  0.59408  0.33650  1.0000 -0.5210582141
O   O19       1.0  0.13650  0.90592  0.83650  1.0000 -0.5210582141
O   O20       1.0  0.86350  0.40592  0.66350  1.0000 -0.5210582141
O   O21       1.0  0.93420  0.86014  0.32900  1.0000 -0.6009804134
O   O22       1.0  0.06580  0.36014  0.17100  1.0000 -0.6009804134
O   O23       1.0  0.06580  0.13986  0.67100  1.0000 -0.6009804134
O   O24       1.0  0.93420  0.63986  0.82900  1.0000 -0.6009804134
O   O25       1.0  0.79070  0.04828  0.54750  1.0000 -0.6499743435
O   O26       1.0  0.20930  0.54828  0.95250  1.0000 -0.6499743435
O   O27       1.0  0.20930  0.95172  0.45250  1.0000 -0.6499743435
O   O28       1.0  0.79070  0.45172  0.04750  1.0000 -0.6499743435
O   O29       1.0  0.97520  0.91516  0.51750  1.0000 -0.7224617724
O   O30       1.0  0.02480  0.41516  0.98250  1.0000 -0.7224617724
O   O31       1.0  0.02480  0.08484  0.48250  1.0000 -0.7224617724
O   O32       1.0  0.97520  0.58484  0.01750  1.0000 -0.7224617724
O   O33       1.0  0.08710  0.56071  0.67280  1.0000 -0.6171151374
O   O34       1.0  0.91290  0.06071  0.82720  1.0000 -0.6171151374
O   O35       1.0  0.91290  0.43929  0.32720  1.0000 -0.6171151374
O   O36       1.0  0.08710  0.93929  0.17280  1.0000 -0.6171151374
