# DDEC6 charges by PACMAN v1.1 (https://github.com/mtap-research/PACMAN-charge/)
data_2016[CoGd][hex]3[ASR]1
_chemical_formula_sum              "Gd4 Co4 H8 C32 N8 O40"
_cell_length_a       12.1059
_cell_length_b       12.1059
_cell_length_c       19.376
_cell_angle_alpha    63.5285
_cell_angle_beta     116.472
_cell_angle_gamma    132.356

_symmetry_space_group_name_H-M    "P 1"
_symmetry_Int_Tables_number       1

loop_
  _symmetry_equiv_pos_as_xyz
  'x, y, z'

loop_
  _atom_site_type_symbol
  _atom_site_label
  _atom_site_symmetry_multiplicity
  _atom_site_fract_x
  _atom_site_fract_y
  _atom_site_fract_z
  _atom_site_occupancy
  _atom_site_charge
Gd  Gd1       1.0  0.68041  0.70253  0.54430  1.0000 1.8674151763
Gd  Gd2       1.0  0.70253  0.68041  0.95570  1.0000 1.8674151763
Gd  Gd3       1.0  0.31959  0.29747  0.45570  1.0000 1.8674151763
Gd  Gd4       1.0  0.29747  0.31959  0.04430  1.0000 1.8674151763
Co  Co1       1.0  0.80919  0.44869  0.79498  1.0000 0.8881852493
Co  Co2       1.0  0.44869  0.80919  0.70502  1.0000 0.8881852493
Co  Co3       1.0  0.19081  0.55131  0.20502  1.0000 0.8881852493
Co  Co4       1.0  0.55131  0.19081  0.29498  1.0000 0.8881852493
H   H1        1.0  0.44000  0.22800  0.51700  1.0000 0.319236064
H   H2        1.0  0.22800  0.44000  0.98300  1.0000 0.319236064
H   H3        1.0  0.56000  0.77200  0.48300  1.0000 0.319236064
H   H4        1.0  0.77200  0.56000  0.01700  1.0000 0.319236064
H   H5        1.0  0.68040  0.06660  0.83410  1.0000 0.1228097245
H   H6        1.0  0.06660  0.68040  0.66590  1.0000 0.1228097245
H   H7        1.0  0.31960  0.93340  0.16590  1.0000 0.1228097245
H   H8        1.0  0.93340  0.31960  0.33410  1.0000 0.1228097245
C   C1        1.0  0.60490  0.39510  0.63590  1.0000 0.616258131
C   C2        1.0  0.39510  0.60490  0.86410  1.0000 0.616258131
C   C3        1.0  0.39510  0.60490  0.36410  1.0000 0.616258131
C   C4        1.0  0.60490  0.39510  0.13590  1.0000 0.616258131
C   C5        1.0  0.59190  0.25050  0.67940  1.0000 -0.0031694226
C   C6        1.0  0.25050  0.59190  0.82060  1.0000 -0.0031694226
C   C7        1.0  0.40810  0.74950  0.32060  1.0000 -0.0031694226
C   C8        1.0  0.74950  0.40810  0.17940  1.0000 -0.0031694226
C   C9        1.0  0.51770  0.11250  0.65890  1.0000 -0.0031694226
C   C10       1.0  0.11250  0.51770  0.84110  1.0000 -0.0031694226
C   C11       1.0  0.48230  0.88750  0.34110  1.0000 -0.0031694226
C   C12       1.0  0.88750  0.48230  0.15890  1.0000 -0.0031694226
C   C13       1.0  0.64160  0.10220  0.78310  1.0000 0.2216697127
C   C14       1.0  0.10220  0.64160  0.71690  1.0000 0.2216697127
C   C15       1.0  0.35840  0.89780  0.21690  1.0000 0.2216697127
C   C16       1.0  0.89780  0.35840  0.28310  1.0000 0.2216697127
C   C17       1.0  0.42650  0.05570  0.58330  1.0000 0.6261169776
C   C18       1.0  0.05570  0.42650  0.91670  1.0000 0.6261169776
C   C19       1.0  0.57350  0.94430  0.41670  1.0000 0.6261169776
C   C20       1.0  0.94430  0.57350  0.08330  1.0000 0.6261169776
C   C21       1.0  0.80820  0.64600  0.84350  1.0000 0.4953660831
C   C22       1.0  0.64600  0.80820  0.65650  1.0000 0.4953660831
C   C23       1.0  0.19180  0.35400  0.15650  1.0000 0.4953660831
C   C24       1.0  0.35400  0.19180  0.34350  1.0000 0.4953660831
C   C25       1.0  0.65720  0.47760  0.86250  1.0000 0.5071613655
C   C26       1.0  0.47760  0.65720  0.63750  1.0000 0.5071613655
C   C27       1.0  0.34280  0.52240  0.13750  1.0000 0.5071613655
C   C28       1.0  0.52240  0.34280  0.36250  1.0000 0.5071613655
C   C29       1.0  0.95750  0.01370  0.45460  1.0000 0.5241910085
C   C30       1.0  0.01370  0.95750  0.04540  1.0000 0.5241910085
C   C31       1.0  0.04250  0.98630  0.54540  1.0000 0.5241910085
C   C32       1.0  0.98630  0.04250  0.95460  1.0000 0.5241910085
N   N1        1.0  0.67150  0.24310  0.75810  1.0000 -0.3401994467
N   N2        1.0  0.24310  0.67150  0.74190  1.0000 -0.3401994467
N   N3        1.0  0.32850  0.75690  0.24190  1.0000 -0.3401994467
N   N4        1.0  0.75690  0.32850  0.25810  1.0000 -0.3401994467
N   N5        1.0  0.54930  0.01810  0.72610  1.0000 -0.3493616417
N   N6        1.0  0.01810  0.54930  0.77390  1.0000 -0.3493616417
N   N7        1.0  0.45070  0.98190  0.27390  1.0000 -0.3493616417
N   N8        1.0  0.98190  0.45070  0.22610  1.0000 -0.3493616417
O   O1        1.0  0.70660  0.51040  0.66940  1.0000 -0.5829948321
O   O2        1.0  0.51040  0.70660  0.83060  1.0000 -0.5829948321
O   O3        1.0  0.29340  0.48960  0.33060  1.0000 -0.5829948321
O   O4        1.0  0.48960  0.29340  0.16940  1.0000 -0.5829948321
O   O5        1.0  0.52120  0.40840  0.56680  1.0000 -0.7080813184
O   O6        1.0  0.40840  0.52120  0.93320  1.0000 -0.7080813184
O   O7        1.0  0.47880  0.59160  0.43320  1.0000 -0.7080813184
O   O8        1.0  0.59160  0.47880  0.06680  1.0000 -0.7080813184
O   O9        1.0  0.37180  0.91600  0.59000  1.0000 -0.502625151
O   O10       1.0  0.91600  0.37180  0.91000  1.0000 -0.502625151
O   O11       1.0  0.62820  0.08400  0.41000  1.0000 -0.502625151
O   O12       1.0  0.08400  0.62820  0.09000  1.0000 -0.502625151
O   O13       1.0  0.40940  0.14020  0.51850  1.0000 -0.4533736244
O   O14       1.0  0.14020  0.40940  0.98150  1.0000 -0.4533736244
O   O15       1.0  0.59060  0.85980  0.48150  1.0000 -0.4533736244
O   O16       1.0  0.85980  0.59060  0.01850  1.0000 -0.4533736244
O   O17       1.0  0.62900  0.37420  0.84170  1.0000 -0.4768838569
O   O18       1.0  0.37420  0.62900  0.65830  1.0000 -0.4768838569
O   O19       1.0  0.37100  0.62580  0.15830  1.0000 -0.4768838569
O   O20       1.0  0.62580  0.37100  0.34170  1.0000 -0.4768838569
O   O21       1.0  0.89320  0.65660  0.81590  1.0000 -0.4768838569
O   O22       1.0  0.65660  0.89320  0.68410  1.0000 -0.4768838569
O   O23       1.0  0.10680  0.34340  0.18410  1.0000 -0.4768838569
O   O24       1.0  0.34340  0.10680  0.31590  1.0000 -0.4768838569
O   O25       1.0  0.82980  0.75140  0.85730  1.0000 -0.5341615513
O   O26       1.0  0.75140  0.82980  0.64270  1.0000 -0.5341615513
O   O27       1.0  0.17020  0.24860  0.14270  1.0000 -0.5341615513
O   O28       1.0  0.24860  0.17020  0.35730  1.0000 -0.5341615513
O   O29       1.0  0.57940  0.46420  0.89890  1.0000 -0.5971650541
O   O30       1.0  0.46420  0.57940  0.60110  1.0000 -0.5971650541
O   O31       1.0  0.42060  0.53580  0.10110  1.0000 -0.5971650541
O   O32       1.0  0.53580  0.42060  0.39890  1.0000 -0.5971650541
O   O33       1.0  0.04110  0.13490  0.40910  1.0000 -0.5631752595
O   O34       1.0  0.13490  0.04110  0.09090  1.0000 -0.5631752595
O   O35       1.0  0.95890  0.86510  0.59090  1.0000 -0.5631752595
O   O36       1.0  0.86510  0.95890  0.90910  1.0000 -0.5631752595
O   O37       1.0  0.81590  0.91430  0.43740  1.0000 -0.5971650541
O   O38       1.0  0.91430  0.81590  0.06260  1.0000 -0.5971650541
O   O39       1.0  0.18410  0.08570  0.56260  1.0000 -0.5971650541
O   O40       1.0  0.08570  0.18410  0.93740  1.0000 -0.5971650541
