# DDEC6 charges by PACMAN v1.1 (https://github.com/mtap-research/PACMAN-charge/)
data_2016[Cd][nan]3[ASR]25
_chemical_formula_sum              "Cd8 H96 C144 N12 Cl12 O24"
_cell_length_a       18.196
_cell_length_b       18.196
_cell_length_c       15.127
_cell_angle_alpha    90
_cell_angle_beta     90
_cell_angle_gamma    120

_symmetry_space_group_name_H-M    "P 1"
_symmetry_Int_Tables_number       1

loop_
  _symmetry_equiv_pos_as_xyz
  'x, y, z'

loop_
  _atom_site_type_symbol
  _atom_site_label
  _atom_site_symmetry_multiplicity
  _atom_site_fract_x
  _atom_site_fract_y
  _atom_site_fract_z
  _atom_site_occupancy
  _atom_site_charge
Cd  Cd1       1.0  0.33333  0.66667  0.75000  1.0000 0.7878022197
Cd  Cd2       1.0  0.66667  0.33333  0.25000  1.0000 0.7878022197
Cd  Cd3       1.0  0.21150  0.42300  0.75000  1.0000 0.8709001743
Cd  Cd4       1.0  0.57700  0.78850  0.75000  1.0000 0.8709001743
Cd  Cd5       1.0  0.21150  0.78850  0.75000  1.0000 0.8709001743
Cd  Cd6       1.0  0.78850  0.57700  0.25000  1.0000 0.8709001743
Cd  Cd7       1.0  0.42300  0.21150  0.25000  1.0000 0.8709001743
Cd  Cd8       1.0  0.78850  0.21150  0.25000  1.0000 0.8709001743
H   H1        1.0  0.98170  0.18130  0.91370  1.0000 0.1204941211
H   H2        1.0  0.81870  0.80040  0.91370  1.0000 0.1204941211
H   H3        1.0  0.19960  0.01830  0.91370  1.0000 0.1204941211
H   H4        1.0  0.81870  0.01830  0.58630  1.0000 0.1204941211
H   H5        1.0  0.98170  0.80040  0.58630  1.0000 0.1204941211
H   H6        1.0  0.19960  0.18130  0.58630  1.0000 0.1204941211
H   H7        1.0  0.01830  0.81870  0.08630  1.0000 0.1204941211
H   H8        1.0  0.18130  0.19960  0.08630  1.0000 0.1204941211
H   H9        1.0  0.80040  0.98170  0.08630  1.0000 0.1204941211
H   H10       1.0  0.18130  0.98170  0.41370  1.0000 0.1204941211
H   H11       1.0  0.01830  0.19960  0.41370  1.0000 0.1204941211
H   H12       1.0  0.80040  0.81870  0.41370  1.0000 0.1204941211
H   H13       1.0  0.92660  0.34980  0.80890  1.0000 0.1204941211
H   H14       1.0  0.65020  0.57680  0.80890  1.0000 0.1204941211
H   H15       1.0  0.42320  0.07340  0.80890  1.0000 0.1204941211
H   H16       1.0  0.65020  0.07340  0.69110  1.0000 0.1204941211
H   H17       1.0  0.92660  0.57680  0.69110  1.0000 0.1204941211
H   H18       1.0  0.42320  0.34980  0.69110  1.0000 0.1204941211
H   H19       1.0  0.07340  0.65020  0.19110  1.0000 0.1204941211
H   H20       1.0  0.34980  0.42320  0.19110  1.0000 0.1204941211
H   H21       1.0  0.57680  0.92660  0.19110  1.0000 0.1204941211
H   H22       1.0  0.34980  0.92660  0.30890  1.0000 0.1204941211
H   H23       1.0  0.07340  0.42320  0.30890  1.0000 0.1204941211
H   H24       1.0  0.57680  0.65020  0.30890  1.0000 0.1204941211
H   H25       1.0  0.83980  0.09680  0.95720  1.0000 0.1353660061
H   H26       1.0  0.90320  0.74300  0.95720  1.0000 0.1353660061
H   H27       1.0  0.25700  0.16020  0.95720  1.0000 0.1353660061
H   H28       1.0  0.90320  0.16020  0.54280  1.0000 0.1353660061
H   H29       1.0  0.83980  0.74300  0.54280  1.0000 0.1353660061
H   H30       1.0  0.25700  0.09680  0.54280  1.0000 0.1353660061
H   H31       1.0  0.16020  0.90320  0.04280  1.0000 0.1353660061
H   H32       1.0  0.09680  0.25700  0.04280  1.0000 0.1353660061
H   H33       1.0  0.74300  0.83980  0.04280  1.0000 0.1353660061
H   H34       1.0  0.09680  0.83980  0.45720  1.0000 0.1353660061
H   H35       1.0  0.16020  0.25700  0.45720  1.0000 0.1353660061
H   H36       1.0  0.74300  0.90320  0.45720  1.0000 0.1353660061
H   H37       1.0  0.78670  0.26810  0.85670  1.0000 0.1321684721
H   H38       1.0  0.73190  0.51860  0.85670  1.0000 0.1321684721
H   H39       1.0  0.48140  0.21330  0.85670  1.0000 0.1321684721
H   H40       1.0  0.73190  0.21330  0.64330  1.0000 0.1321684721
H   H41       1.0  0.78670  0.51860  0.64330  1.0000 0.1321684721
H   H42       1.0  0.48140  0.26810  0.64330  1.0000 0.1321684721
H   H43       1.0  0.21330  0.73190  0.14330  1.0000 0.1321684721
H   H44       1.0  0.26810  0.48140  0.14330  1.0000 0.1321684721
H   H45       1.0  0.51860  0.78670  0.14330  1.0000 0.1321684721
H   H46       1.0  0.26810  0.78670  0.35670  1.0000 0.1321684721
H   H47       1.0  0.21330  0.48140  0.35670  1.0000 0.1321684721
H   H48       1.0  0.51860  0.73190  0.35670  1.0000 0.1321684721
H   H49       1.0  0.71210  0.20860  0.01140  1.0000 0.1204941211
H   H50       1.0  0.79140  0.50350  0.01140  1.0000 0.1204941211
H   H51       1.0  0.49650  0.28790  0.01140  1.0000 0.1204941211
H   H52       1.0  0.79140  0.28790  0.48860  1.0000 0.1204941211
H   H53       1.0  0.71210  0.50350  0.48860  1.0000 0.1204941211
H   H54       1.0  0.49650  0.20860  0.48860  1.0000 0.1204941211
H   H55       1.0  0.28790  0.79140  0.98860  1.0000 0.1204941211
H   H56       1.0  0.20860  0.49650  0.98860  1.0000 0.1204941211
H   H57       1.0  0.50350  0.71210  0.98860  1.0000 0.1204941211
H   H58       1.0  0.20860  0.71210  0.51140  1.0000 0.1204941211
H   H59       1.0  0.28790  0.49650  0.51140  1.0000 0.1204941211
H   H60       1.0  0.50350  0.79140  0.51140  1.0000 0.1204941211
H   H61       1.0  0.69530  0.01700  0.87820  1.0000 0.1204941211
H   H62       1.0  0.98300  0.67830  0.87820  1.0000 0.1204941211
H   H63       1.0  0.32170  0.30470  0.87820  1.0000 0.1204941211
H   H64       1.0  0.98300  0.30470  0.62180  1.0000 0.1204941211
H   H65       1.0  0.69530  0.67830  0.62180  1.0000 0.1204941211
H   H66       1.0  0.32170  0.01700  0.62180  1.0000 0.1204941211
H   H67       1.0  0.30470  0.98300  0.12180  1.0000 0.1204941211
H   H68       1.0  0.01700  0.32170  0.12180  1.0000 0.1204941211
H   H69       1.0  0.67830  0.69530  0.12180  1.0000 0.1204941211
H   H70       1.0  0.01700  0.69530  0.37820  1.0000 0.1204941211
H   H71       1.0  0.30470  0.32170  0.37820  1.0000 0.1204941211
H   H72       1.0  0.67830  0.98300  0.37820  1.0000 0.1204941211
H   H73       1.0  0.57440  0.12840  0.05890  1.0000 0.1458461809
H   H74       1.0  0.87160  0.44600  0.05890  1.0000 0.1458461809
H   H75       1.0  0.55400  0.42560  0.05890  1.0000 0.1458461809
H   H76       1.0  0.87160  0.42560  0.44110  1.0000 0.1458461809
H   H77       1.0  0.57440  0.44600  0.44110  1.0000 0.1458461809
H   H78       1.0  0.55400  0.12840  0.44110  1.0000 0.1458461809
H   H79       1.0  0.42560  0.87160  0.94110  1.0000 0.1458461809
H   H80       1.0  0.12840  0.55400  0.94110  1.0000 0.1458461809
H   H81       1.0  0.44600  0.57440  0.94110  1.0000 0.1458461809
H   H82       1.0  0.12840  0.57440  0.55890  1.0000 0.1458461809
H   H83       1.0  0.42560  0.55400  0.55890  1.0000 0.1458461809
H   H84       1.0  0.44600  0.87160  0.55890  1.0000 0.1458461809
H   H85       1.0  0.55300  0.93550  0.91590  1.0000 0.1458461809
H   H86       1.0  0.06450  0.61750  0.91590  1.0000 0.1458461809
H   H87       1.0  0.38250  0.44700  0.91590  1.0000 0.1458461809
H   H88       1.0  0.06450  0.44700  0.58410  1.0000 0.1458461809
H   H89       1.0  0.55300  0.61750  0.58410  1.0000 0.1458461809
H   H90       1.0  0.38250  0.93550  0.58410  1.0000 0.1458461809
H   H91       1.0  0.44700  0.06450  0.08410  1.0000 0.1458461809
H   H92       1.0  0.93550  0.38250  0.08410  1.0000 0.1458461809
H   H93       1.0  0.61750  0.55300  0.08410  1.0000 0.1458461809
H   H94       1.0  0.93550  0.55300  0.41590  1.0000 0.1458461809
H   H95       1.0  0.44700  0.38250  0.41590  1.0000 0.1458461809
H   H96       1.0  0.61750  0.06450  0.41590  1.0000 0.1458461809
C   C1        1.0  0.05670  0.32480  0.82190  1.0000 0.526665509
C   C2        1.0  0.67520  0.73190  0.82190  1.0000 0.526665509
C   C3        1.0  0.26810  0.94330  0.82190  1.0000 0.526665509
C   C4        1.0  0.67520  0.94330  0.67810  1.0000 0.526665509
C   C5        1.0  0.05670  0.73190  0.67810  1.0000 0.526665509
C   C6        1.0  0.26810  0.32480  0.67810  1.0000 0.526665509
C   C7        1.0  0.94330  0.67520  0.17810  1.0000 0.526665509
C   C8        1.0  0.32480  0.26810  0.17810  1.0000 0.526665509
C   C9        1.0  0.73190  0.05670  0.17810  1.0000 0.526665509
C   C10       1.0  0.32480  0.05670  0.32190  1.0000 0.526665509
C   C11       1.0  0.94330  0.26810  0.32190  1.0000 0.526665509
C   C12       1.0  0.73190  0.67520  0.32190  1.0000 0.526665509
C   C13       1.0  0.96610  0.27160  0.85330  1.0000 -0.0235285346
C   C14       1.0  0.72840  0.69450  0.85330  1.0000 -0.0235285346
C   C15       1.0  0.30550  0.03390  0.85330  1.0000 -0.0235285346
C   C16       1.0  0.72840  0.03390  0.64670  1.0000 -0.0235285346
C   C17       1.0  0.96610  0.69450  0.64670  1.0000 -0.0235285346
C   C18       1.0  0.30550  0.27160  0.64670  1.0000 -0.0235285346
C   C19       1.0  0.03390  0.72840  0.14670  1.0000 -0.0235285346
C   C20       1.0  0.27160  0.30550  0.14670  1.0000 -0.0235285346
C   C21       1.0  0.69450  0.96610  0.14670  1.0000 -0.0235285346
C   C22       1.0  0.27160  0.96610  0.35330  1.0000 -0.0235285346
C   C23       1.0  0.03390  0.30550  0.35330  1.0000 -0.0235285346
C   C24       1.0  0.69450  0.72840  0.35330  1.0000 -0.0235285346
C   C25       1.0  0.94140  0.19810  0.89970  1.0000 -0.0995278365
C   C26       1.0  0.80190  0.74330  0.89970  1.0000 -0.0995278365
C   C27       1.0  0.25670  0.05860  0.89970  1.0000 -0.0995278365
C   C28       1.0  0.80190  0.05860  0.60030  1.0000 -0.0995278365
C   C29       1.0  0.94140  0.74330  0.60030  1.0000 -0.0995278365
C   C30       1.0  0.25670  0.19810  0.60030  1.0000 -0.0995278365
C   C31       1.0  0.05860  0.80190  0.10030  1.0000 -0.0995278365
C   C32       1.0  0.19810  0.25670  0.10030  1.0000 -0.0995278365
C   C33       1.0  0.74330  0.94140  0.10030  1.0000 -0.0995278365
C   C34       1.0  0.19810  0.94140  0.39970  1.0000 -0.0995278365
C   C35       1.0  0.05860  0.25670  0.39970  1.0000 -0.0995278365
C   C36       1.0  0.74330  0.80190  0.39970  1.0000 -0.0995278365
C   C37       1.0  0.90920  0.29760  0.83860  1.0000 -0.0995278365
C   C38       1.0  0.70240  0.61160  0.83860  1.0000 -0.0995278365
C   C39       1.0  0.38840  0.09080  0.83860  1.0000 -0.0995278365
C   C40       1.0  0.70240  0.09080  0.66140  1.0000 -0.0995278365
C   C41       1.0  0.90920  0.61160  0.66140  1.0000 -0.0995278365
C   C42       1.0  0.38840  0.29760  0.66140  1.0000 -0.0995278365
C   C43       1.0  0.09080  0.70240  0.16140  1.0000 -0.0995278365
C   C44       1.0  0.29760  0.38840  0.16140  1.0000 -0.0995278365
C   C45       1.0  0.61160  0.90920  0.16140  1.0000 -0.0995278365
C   C46       1.0  0.29760  0.90920  0.33860  1.0000 -0.0995278365
C   C47       1.0  0.09080  0.38840  0.33860  1.0000 -0.0995278365
C   C48       1.0  0.61160  0.70240  0.33860  1.0000 -0.0995278365
C   C49       1.0  0.85750  0.14840  0.92620  1.0000 -0.1678409822
C   C50       1.0  0.85160  0.70910  0.92620  1.0000 -0.1678409822
C   C51       1.0  0.29090  0.14250  0.92620  1.0000 -0.1678409822
C   C52       1.0  0.85160  0.14250  0.57380  1.0000 -0.1678409822
C   C53       1.0  0.85750  0.70910  0.57380  1.0000 -0.1678409822
C   C54       1.0  0.29090  0.14840  0.57380  1.0000 -0.1678409822
C   C55       1.0  0.14250  0.85160  0.07380  1.0000 -0.1678409822
C   C56       1.0  0.14840  0.29090  0.07380  1.0000 -0.1678409822
C   C57       1.0  0.70910  0.85750  0.07380  1.0000 -0.1678409822
C   C58       1.0  0.14840  0.85750  0.42620  1.0000 -0.1678409822
C   C59       1.0  0.14250  0.29090  0.42620  1.0000 -0.1678409822
C   C60       1.0  0.70910  0.85160  0.42620  1.0000 -0.1678409822
C   C61       1.0  0.82600  0.24900  0.86650  1.0000 -0.1828390568
C   C62       1.0  0.75100  0.57700  0.86650  1.0000 -0.1828390568
C   C63       1.0  0.42300  0.17400  0.86650  1.0000 -0.1828390568
C   C64       1.0  0.75100  0.17400  0.63350  1.0000 -0.1828390568
C   C65       1.0  0.82600  0.57700  0.63350  1.0000 -0.1828390568
C   C66       1.0  0.42300  0.24900  0.63350  1.0000 -0.1828390568
C   C67       1.0  0.17400  0.75100  0.13350  1.0000 -0.1828390568
C   C68       1.0  0.24900  0.42300  0.13350  1.0000 -0.1828390568
C   C69       1.0  0.57700  0.82600  0.13350  1.0000 -0.1828390568
C   C70       1.0  0.24900  0.82600  0.36650  1.0000 -0.1828390568
C   C71       1.0  0.17400  0.42300  0.36650  1.0000 -0.1828390568
C   C72       1.0  0.57700  0.75100  0.36650  1.0000 -0.1828390568
C   C73       1.0  0.80080  0.17450  0.90740  1.0000 0.1353660061
C   C74       1.0  0.82550  0.62630  0.90740  1.0000 0.1353660061
C   C75       1.0  0.37370  0.19920  0.90740  1.0000 0.1353660061
C   C76       1.0  0.82550  0.19920  0.59260  1.0000 0.1353660061
C   C77       1.0  0.80080  0.62630  0.59260  1.0000 0.1353660061
C   C78       1.0  0.37370  0.17450  0.59260  1.0000 0.1353660061
C   C79       1.0  0.19920  0.82550  0.09260  1.0000 0.1353660061
C   C80       1.0  0.17450  0.37370  0.09260  1.0000 0.1353660061
C   C81       1.0  0.62630  0.80080  0.09260  1.0000 0.1353660061
C   C82       1.0  0.17450  0.80080  0.40740  1.0000 0.1353660061
C   C83       1.0  0.19920  0.37370  0.40740  1.0000 0.1353660061
C   C84       1.0  0.62630  0.82550  0.40740  1.0000 0.1353660061
C   C85       1.0  0.67850  0.15230  0.98980  1.0000 0.0546668473
C   C86       1.0  0.84770  0.52620  0.98980  1.0000 0.0546668473
C   C87       1.0  0.47380  0.32150  0.98980  1.0000 0.0546668473
C   C88       1.0  0.84770  0.32150  0.51020  1.0000 0.0546668473
C   C89       1.0  0.67850  0.52620  0.51020  1.0000 0.0546668473
C   C90       1.0  0.47380  0.15230  0.51020  1.0000 0.0546668473
C   C91       1.0  0.32150  0.84770  0.01020  1.0000 0.0546668473
C   C92       1.0  0.15230  0.47380  0.01020  1.0000 0.0546668473
C   C93       1.0  0.52620  0.67850  0.01020  1.0000 0.0546668473
C   C94       1.0  0.15230  0.67850  0.48980  1.0000 0.0546668473
C   C95       1.0  0.32150  0.47380  0.48980  1.0000 0.0546668473
C   C96       1.0  0.52620  0.84770  0.48980  1.0000 0.0546668473
C   C97       1.0  0.66860  0.04150  0.91140  1.0000 0.0249826911
C   C98       1.0  0.95850  0.62710  0.91140  1.0000 0.0249826911
C   C99       1.0  0.37290  0.33140  0.91140  1.0000 0.0249826911
C   C100      1.0  0.95850  0.33140  0.58860  1.0000 0.02565809
C   C101      1.0  0.66860  0.62710  0.58860  1.0000 0.0249826911
C   C102      1.0  0.37290  0.04150  0.58860  1.0000 0.02565809
C   C103      1.0  0.33140  0.95850  0.08860  1.0000 0.0249826911
C   C104      1.0  0.04150  0.37290  0.08860  1.0000 0.02565809
C   C105      1.0  0.62710  0.66860  0.08860  1.0000 0.0249826911
C   C106      1.0  0.04150  0.66860  0.41140  1.0000 0.0249826911
C   C107      1.0  0.33140  0.37290  0.41140  1.0000 0.02565809
C   C108      1.0  0.62710  0.95850  0.41140  1.0000 0.0249826911
C   C109      1.0  0.59620  0.10520  0.01710  1.0000 -0.1914768098
C   C110      1.0  0.89480  0.49100  0.01710  1.0000 -0.1914768098
C   C111      1.0  0.50900  0.40380  0.01710  1.0000 -0.1914768098
C   C112      1.0  0.89480  0.40380  0.48290  1.0000 -0.1914768098
C   C113      1.0  0.59620  0.49100  0.48290  1.0000 -0.1914768098
C   C114      1.0  0.50900  0.10520  0.48290  1.0000 -0.1914768098
C   C115      1.0  0.40380  0.89480  0.98290  1.0000 -0.1914768098
C   C116      1.0  0.10520  0.50900  0.98290  1.0000 -0.1914768098
C   C117      1.0  0.49100  0.59620  0.98290  1.0000 -0.1914768098
C   C118      1.0  0.10520  0.59620  0.51710  1.0000 -0.1914768098
C   C119      1.0  0.40380  0.50900  0.51710  1.0000 -0.1914768098
C   C120      1.0  0.49100  0.89480  0.51710  1.0000 -0.1914768098
C   C121      1.0  0.58450  0.99280  0.93500  1.0000 -0.1914768098
C   C122      1.0  0.00720  0.59170  0.93500  1.0000 -0.1914768098
C   C123      1.0  0.40830  0.41550  0.93500  1.0000 -0.1914768098
C   C124      1.0  0.00720  0.41550  0.56500  1.0000 -0.1914768098
C   C125      1.0  0.58450  0.59170  0.56500  1.0000 -0.1914768098
C   C126      1.0  0.40830  0.99280  0.56500  1.0000 -0.1914768098
C   C127      1.0  0.41550  0.00720  0.06500  1.0000 -0.1914768098
C   C128      1.0  0.99280  0.40830  0.06500  1.0000 -0.1914768098
C   C129      1.0  0.59170  0.58450  0.06500  1.0000 -0.1914768098
C   C130      1.0  0.99280  0.58450  0.43500  1.0000 -0.1914768098
C   C131      1.0  0.41550  0.40830  0.43500  1.0000 -0.1914768098
C   C132      1.0  0.59170  0.00720  0.43500  1.0000 -0.1914768098
C   C133      1.0  0.54530  0.02600  0.98570  1.0000 0.1204941211
C   C134      1.0  0.97400  0.51930  0.98570  1.0000 0.1204941211
C   C135      1.0  0.48070  0.45470  0.98570  1.0000 0.1204941211
C   C136      1.0  0.97400  0.45470  0.51430  1.0000 0.1204941211
C   C137      1.0  0.54530  0.51930  0.51430  1.0000 0.1204941211
C   C138      1.0  0.48070  0.02600  0.51430  1.0000 0.1204941211
C   C139      1.0  0.45470  0.97400  0.01430  1.0000 0.1204941211
C   C140      1.0  0.02600  0.48070  0.01430  1.0000 0.1204941211
C   C141      1.0  0.51930  0.54530  0.01430  1.0000 0.1204941211
C   C142      1.0  0.02600  0.54530  0.48570  1.0000 0.1204941211
C   C143      1.0  0.45470  0.48070  0.48570  1.0000 0.1204941211
C   C144      1.0  0.51930  0.97400  0.48570  1.0000 0.1204941211
N   N1        1.0  0.71230  0.12250  0.93510  1.0000 0.0599786301
N   N2        1.0  0.87750  0.58980  0.93510  1.0000 0.0599786301
N   N3        1.0  0.41020  0.28770  0.93510  1.0000 0.0599786301
N   N4        1.0  0.87750  0.28770  0.56490  1.0000 0.0599786301
N   N5        1.0  0.71230  0.58980  0.56490  1.0000 0.0599786301
N   N6        1.0  0.41020  0.12250  0.56490  1.0000 0.0599786301
N   N7        1.0  0.28770  0.87750  0.06490  1.0000 0.0599786301
N   N8        1.0  0.12250  0.41020  0.06490  1.0000 0.0599786301
N   N9        1.0  0.58980  0.71230  0.06490  1.0000 0.0599786301
N   N10       1.0  0.12250  0.71230  0.43510  1.0000 0.0599786301
N   N11       1.0  0.28770  0.41020  0.43510  1.0000 0.0599786301
N   N12       1.0  0.58980  0.87750  0.43510  1.0000 0.0599786301
Cl  Cl1       1.0  0.22970  0.54043  0.64607  1.0000 -0.5250485536
Cl  Cl2       1.0  0.45957  0.68927  0.64607  1.0000 -0.5240190026
Cl  Cl3       1.0  0.31073  0.77030  0.64607  1.0000 -0.5250485536
Cl  Cl4       1.0  0.45957  0.77030  0.85393  1.0000 -0.5250485536
Cl  Cl5       1.0  0.22970  0.68927  0.85393  1.0000 -0.5250485536
Cl  Cl6       1.0  0.31073  0.54043  0.85393  1.0000 -0.5250485536
Cl  Cl7       1.0  0.77030  0.45957  0.35393  1.0000 -0.5250485536
Cl  Cl8       1.0  0.54043  0.31073  0.35393  1.0000 -0.5250485536
Cl  Cl9       1.0  0.68927  0.22970  0.35393  1.0000 -0.5250485536
Cl  Cl10      1.0  0.54043  0.22970  0.14607  1.0000 -0.5250485536
Cl  Cl11      1.0  0.77030  0.31073  0.14607  1.0000 -0.5250485536
Cl  Cl12      1.0  0.68927  0.45957  0.14607  1.0000 -0.5250485536
O   O1        1.0  0.11390  0.31510  0.85470  1.0000 -0.5389280415
O   O2        1.0  0.68490  0.79880  0.85470  1.0000 -0.5389280415
O   O3        1.0  0.20120  0.88610  0.85470  1.0000 -0.5389280415
O   O4        1.0  0.68490  0.88610  0.64530  1.0000 -0.5389280415
O   O5        1.0  0.11390  0.79880  0.64530  1.0000 -0.5389280415
O   O6        1.0  0.20120  0.31510  0.64530  1.0000 -0.5389280415
O   O7        1.0  0.88610  0.68490  0.14530  1.0000 -0.5389280415
O   O8        1.0  0.31510  0.20120  0.14530  1.0000 -0.5389280415
O   O9        1.0  0.79880  0.11390  0.14530  1.0000 -0.5389280415
O   O10       1.0  0.31510  0.11390  0.35470  1.0000 -0.5389280415
O   O11       1.0  0.88610  0.20120  0.35470  1.0000 -0.5389280415
O   O12       1.0  0.79880  0.68490  0.35470  1.0000 -0.5389280415
O   O13       1.0  0.07180  0.37720  0.76330  1.0000 -0.510224054
O   O14       1.0  0.62280  0.69460  0.76330  1.0000 -0.510224054
O   O15       1.0  0.30540  0.92820  0.76330  1.0000 -0.510224054
O   O16       1.0  0.62280  0.92820  0.73670  1.0000 -0.510224054
O   O17       1.0  0.07180  0.69460  0.73670  1.0000 -0.510224054
O   O18       1.0  0.30540  0.37720  0.73670  1.0000 -0.510224054
O   O19       1.0  0.92820  0.62280  0.23670  1.0000 -0.510224054
O   O20       1.0  0.37720  0.30540  0.23670  1.0000 -0.510224054
O   O21       1.0  0.69460  0.07180  0.23670  1.0000 -0.510224054
O   O22       1.0  0.37720  0.07180  0.26330  1.0000 -0.510224054
O   O23       1.0  0.92820  0.30540  0.26330  1.0000 -0.510224054
O   O24       1.0  0.69460  0.62280  0.26330  1.0000 -0.510224054
