# DDEC6 charges by PACMAN v1.1 (https://github.com/mtap-research/PACMAN-charge/)
data_2016[In][nan]3[ASR]4
_chemical_formula_sum              "In5 P8 H3 C4 O32"
_cell_length_a       7.8224
_cell_length_b       10.6257
_cell_length_c       13.1557
_cell_angle_alpha    94.72
_cell_angle_beta     92.336
_cell_angle_gamma    110.181

_symmetry_space_group_name_H-M    "P 1"
_symmetry_Int_Tables_number       1

loop_
  _symmetry_equiv_pos_as_xyz
  'x, y, z'

loop_
  _atom_site_type_symbol
  _atom_site_label
  _atom_site_symmetry_multiplicity
  _atom_site_fract_x
  _atom_site_fract_y
  _atom_site_fract_z
  _atom_site_occupancy
  _atom_site_charge
In  In1       1.0  0.47866  0.74721  0.74162  1.0000 1.580534958
In  In2       1.0  0.50180  0.76870  0.25167  1.0000 1.5712989799
In  In3       1.0  0.52205  0.25528  0.26043  1.0000 1.5621847145
In  In4       1.0  0.49785  0.22883  0.74759  1.0000 1.580534958
In  In5       1.0  0.00199  0.99882  0.99905  1.0000 1.7093349926
P   P1        1.0  0.80878  0.07270  0.78421  1.0000 1.5906268589
P   P2        1.0  0.55694  0.73757  0.49511  1.0000 1.546173238
P   P3        1.0  0.79401  0.08789  0.20381  1.0000 1.546173238
P   P4        1.0  0.57707  0.74994  0.99665  1.0000 1.5397334727
P   P5        1.0  0.19491  0.92739  0.21487  1.0000 1.3469132416
P   P6        1.0  0.17451  0.90615  0.78385  1.0000 1.5621847145
P   P7        1.0  0.43744  0.26019  0.50329  1.0000 1.5397334727
P   P8        1.0  0.42409  0.23650  0.00142  1.0000 1.5397334727
H   H1        1.0  0.62155  0.55675  0.51769  1.0000 0.3940697841
H   H2        1.0  0.03333  0.90198  0.26641  1.0000 -0.1242261969
H   H3        1.0  0.37772  0.44232  0.48283  1.0000 0.3971730403
C   C1        1.0  0.62687  0.54307  0.25505  1.0000 0.448143396
C   C2        1.0  0.41178  0.48508  0.25577  1.0000 0.448143396
C   C3        1.0  0.37514  0.45776  0.74378  1.0000 0.4430986874
C   C4        1.0  0.58574  0.51427  0.74417  1.0000 0.448143396
O   O1        1.0  0.85960  0.08208  0.89968  1.0000 -0.8308140206
O   O2        1.0  0.77877  0.81147  0.00632  1.0000 -0.8200266578
O   O3        1.0  0.47320  0.72914  0.08888  1.0000 -0.8088555403
O   O4        1.0  0.73874  0.18294  0.75520  1.0000 -0.7818924554
O   O5        1.0  0.73074  0.95690  0.24803  1.0000 -0.8308140206
O   O6        1.0  0.70356  0.66892  0.25115  1.0000 -0.4790649482
O   O7        1.0  0.54154  0.82127  0.41149  1.0000 -0.7534057267
O   O8        1.0  0.43796  0.72344  0.58251  1.0000 -0.7691094764
O   O9        1.0  0.68834  0.93266  0.73582  1.0000 -0.8613452681
O   O10       1.0  0.33107  0.35914  0.25920  1.0000 -0.513460017
O   O11       1.0  0.46473  0.74979  0.90319  1.0000 -0.8200266578
O   O12       1.0  0.71044  0.46111  0.26142  1.0000 -0.4439471729
O   O13       1.0  0.32524  0.56560  0.25509  1.0000 -0.4790649482
O   O14       1.0  0.60108  0.60595  0.45919  1.0000 -0.6087813743
O   O15       1.0  0.90874  0.10870  0.11538  1.0000 -0.8014174469
O   O16       1.0  0.76922  0.20817  0.25726  1.0000 -0.7691094764
O   O17       1.0  0.15248  0.92068  0.09929  1.0000 -0.7691094764
O   O18       1.0  0.22116  0.18834  0.99543  1.0000 -0.8200266578
O   O19       1.0  0.53104  0.27746  0.91153  1.0000 -0.8088555403
O   O20       1.0  0.27226  0.82038  0.24178  1.0000 -0.721704758
O   O21       1.0  0.27078  0.04333  0.75230  1.0000 -0.8613452681
O   O22       1.0  0.29651  0.33155  0.74919  1.0000 -0.5006623037
O   O23       1.0  0.46007  0.18024  0.58804  1.0000 -0.7448289164
O   O24       1.0  0.56387  0.27754  0.41795  1.0000 -0.7691094764
O   O25       1.0  0.32157  0.06764  0.26051  1.0000 -0.7934498556
O   O26       1.0  0.66913  0.64191  0.74057  1.0000 -0.5418236621
O   O27       1.0  0.53638  0.25132  0.09878  1.0000 -0.8308140206
O   O28       1.0  0.29069  0.53994  0.73955  1.0000 -0.4571605392
O   O29       1.0  0.67461  0.43382  0.74508  1.0000 -0.4746481546
O   O30       1.0  0.40215  0.39597  0.54096  1.0000 -0.6158958443
O   O31       1.0  0.09886  0.89249  0.88717  1.0000 -0.8200266578
O   O32       1.0  0.22937  0.79130  0.74358  1.0000 -0.7691094764
