# DDEC6 charges by PACMAN v1.1 (https://github.com/mtap-research/PACMAN-charge/)
data_2016[Cu][pyr]3[ASR]1
_chemical_formula_sum              "Cu8 H72 C136 N8 O32"
_cell_length_a       12.0421
_cell_length_b       14.3026
_cell_length_c       21.6987
_cell_angle_alpha    90
_cell_angle_beta     90
_cell_angle_gamma    90

_symmetry_space_group_name_H-M    "P 1"
_symmetry_Int_Tables_number       1

loop_
  _symmetry_equiv_pos_as_xyz
  'x, y, z'

loop_
  _atom_site_type_symbol
  _atom_site_label
  _atom_site_symmetry_multiplicity
  _atom_site_fract_x
  _atom_site_fract_y
  _atom_site_fract_z
  _atom_site_occupancy
  _atom_site_charge
Cu  Cu1       1.0  0.98858  0.05020  0.05231  1.0000 0.7762725008
Cu  Cu2       1.0  0.01142  0.44980  0.55231  1.0000 0.7762725008
Cu  Cu3       1.0  0.48858  0.94980  0.44769  1.0000 0.7762725008
Cu  Cu4       1.0  0.51142  0.55020  0.94769  1.0000 0.7762725008
Cu  Cu5       1.0  0.01142  0.94980  0.94769  1.0000 0.7762725008
Cu  Cu6       1.0  0.98858  0.55020  0.44769  1.0000 0.7762725008
Cu  Cu7       1.0  0.51142  0.05020  0.55231  1.0000 0.7762725008
Cu  Cu8       1.0  0.48858  0.44980  0.05231  1.0000 0.7762725008
H   H1        1.0  0.99280  0.50030  0.68100  1.0000 0.1106203635
H   H2        1.0  0.04480  0.46640  0.78200  1.0000 0.1312787982
H   H3        1.0  0.10910  0.26150  0.56320  1.0000 0.136614467
H   H4        1.0  0.21650  0.12950  0.57850  1.0000 0.1193960234
H   H5        1.0  0.28320  0.09260  0.67700  1.0000 0.1106203635
H   H6        1.0  0.23470  0.18240  0.76120  1.0000 0.1106203635
H   H7        1.0  0.24580  0.43630  0.83910  1.0000 0.1193960234
H   H8        1.0  0.21910  0.27950  0.99420  1.0000 0.1312787982
H   H9        1.0  0.06500  0.19700  0.83700  1.0000 0.1312787982
H   H10       1.0  0.00720  0.99970  0.18100  1.0000 0.1106203635
H   H11       1.0  0.95520  0.03360  0.28200  1.0000 0.1312787982
H   H12       1.0  0.89090  0.23850  0.06320  1.0000 0.136614467
H   H13       1.0  0.78350  0.37050  0.07850  1.0000 0.1193960234
H   H14       1.0  0.71680  0.40740  0.17700  1.0000 0.1106203635
H   H15       1.0  0.76530  0.31760  0.26120  1.0000 0.1106203635
H   H16       1.0  0.75420  0.06370  0.33910  1.0000 0.1193960234
H   H17       1.0  0.78090  0.22050  0.49420  1.0000 0.1312787982
H   H18       1.0  0.93500  0.30300  0.33700  1.0000 0.1312787982
H   H19       1.0  0.49280  0.49970  0.81900  1.0000 0.1106203635
H   H20       1.0  0.54480  0.53360  0.71800  1.0000 0.1312787982
H   H21       1.0  0.60910  0.73850  0.93680  1.0000 0.136614467
H   H22       1.0  0.71650  0.87050  0.92150  1.0000 0.1193960234
H   H23       1.0  0.78320  0.90740  0.82300  1.0000 0.1106203635
H   H24       1.0  0.73470  0.81760  0.73880  1.0000 0.1106203635
H   H25       1.0  0.74580  0.56370  0.66090  1.0000 0.1193960234
H   H26       1.0  0.71910  0.72050  0.50580  1.0000 0.1312787982
H   H27       1.0  0.56500  0.80300  0.66300  1.0000 0.1312787982
H   H28       1.0  0.50720  0.00030  0.31900  1.0000 0.1106203635
H   H29       1.0  0.45520  0.96640  0.21800  1.0000 0.1312787982
H   H30       1.0  0.39090  0.76150  0.43680  1.0000 0.136614467
H   H31       1.0  0.28350  0.62950  0.42150  1.0000 0.1193960234
H   H32       1.0  0.21680  0.59260  0.32300  1.0000 0.1106203635
H   H33       1.0  0.26530  0.68240  0.23880  1.0000 0.1106203635
H   H34       1.0  0.25420  0.93630  0.16090  1.0000 0.1193960234
H   H35       1.0  0.28090  0.77950  0.00580  1.0000 0.1312787982
H   H36       1.0  0.43500  0.69700  0.16300  1.0000 0.1312787982
H   H37       1.0  0.00720  0.49970  0.31900  1.0000 0.1106203635
H   H38       1.0  0.95520  0.53360  0.21800  1.0000 0.1312787982
H   H39       1.0  0.89090  0.73850  0.43680  1.0000 0.136614467
H   H40       1.0  0.78350  0.87050  0.42150  1.0000 0.1193960234
H   H41       1.0  0.71680  0.90740  0.32300  1.0000 0.1106203635
H   H42       1.0  0.76530  0.81760  0.23880  1.0000 0.1106203635
H   H43       1.0  0.75420  0.56370  0.16090  1.0000 0.1193960234
H   H44       1.0  0.78090  0.72050  0.00580  1.0000 0.1312787982
H   H45       1.0  0.93500  0.80300  0.16300  1.0000 0.1312787982
H   H46       1.0  0.99280  0.00030  0.81900  1.0000 0.1106203635
H   H47       1.0  0.04480  0.96640  0.71800  1.0000 0.1312787982
H   H48       1.0  0.10910  0.76150  0.93680  1.0000 0.136614467
H   H49       1.0  0.21650  0.62950  0.92150  1.0000 0.1193960234
H   H50       1.0  0.28320  0.59260  0.82300  1.0000 0.1106203635
H   H51       1.0  0.23470  0.68240  0.73880  1.0000 0.1106203635
H   H52       1.0  0.24580  0.93630  0.66090  1.0000 0.1193960234
H   H53       1.0  0.21910  0.77950  0.50580  1.0000 0.1312787982
H   H54       1.0  0.06500  0.69700  0.66300  1.0000 0.1312787982
H   H55       1.0  0.50720  0.50030  0.18100  1.0000 0.1106203635
H   H56       1.0  0.45520  0.46640  0.28200  1.0000 0.1312787982
H   H57       1.0  0.39090  0.26150  0.06320  1.0000 0.136614467
H   H58       1.0  0.28350  0.12950  0.07850  1.0000 0.1193960234
H   H59       1.0  0.21680  0.09260  0.17700  1.0000 0.1106203635
H   H60       1.0  0.26530  0.18240  0.26120  1.0000 0.1106203635
H   H61       1.0  0.25420  0.43630  0.33910  1.0000 0.1193960234
H   H62       1.0  0.28090  0.27950  0.49420  1.0000 0.1312787982
H   H63       1.0  0.43500  0.19700  0.33700  1.0000 0.1312787982
H   H64       1.0  0.49280  0.99970  0.68100  1.0000 0.1106203635
H   H65       1.0  0.54480  0.03360  0.78200  1.0000 0.1312787982
H   H66       1.0  0.60910  0.23850  0.56320  1.0000 0.136614467
H   H67       1.0  0.71650  0.37050  0.57850  1.0000 0.1193960234
H   H68       1.0  0.78320  0.40740  0.67700  1.0000 0.1106203635
H   H69       1.0  0.73470  0.31760  0.76120  1.0000 0.1106203635
H   H70       1.0  0.74580  0.06370  0.83910  1.0000 0.1193960234
H   H71       1.0  0.71910  0.22050  0.99420  1.0000 0.1312787982
H   H72       1.0  0.56500  0.30300  0.83700  1.0000 0.1312787982
C   C1        1.0  0.03070  0.44323  0.68892  1.0000 0.1106203635
C   C2        1.0  0.06190  0.42336  0.75002  1.0000 -0.212121687
C   C3        1.0  0.11694  0.34187  0.76336  1.0000 0.0686178505
C   C4        1.0  0.14453  0.28137  0.71405  1.0000 0.005624873
C   C5        1.0  0.10950  0.30633  0.65340  1.0000 0.2098928308
C   C6        1.0  0.13550  0.24698  0.60332  1.0000 -0.1603344045
C   C7        1.0  0.19870  0.16870  0.61245  1.0000 -0.0635169419
C   C8        1.0  0.23740  0.14595  0.67150  1.0000 -0.0935573327
C   C9        1.0  0.20980  0.19986  0.72134  1.0000 -0.1603344045
C   C10       1.0  0.14837  0.32083  0.82842  1.0000 0.0686178505
C   C11       1.0  0.21753  0.38279  0.85979  1.0000 -0.1548042642
C   C12       1.0  0.24562  0.36704  0.92126  1.0000 -0.0013449164
C   C13       1.0  0.20259  0.28933  0.95186  1.0000 -0.1257777726
C   C14       1.0  0.13586  0.22647  0.92053  1.0000 0.0011918826
C   C15       1.0  0.10940  0.24115  0.85857  1.0000 -0.1603344045
C   C16       1.0  0.32923  0.42950  0.95263  1.0000 0.5643567396
C   C17       1.0  0.09241  0.14168  0.95366  1.0000 0.5677385879
C   C18       1.0  0.96930  0.05677  0.18892  1.0000 0.1106203635
C   C19       1.0  0.93810  0.07664  0.25002  1.0000 -0.212121687
C   C20       1.0  0.88306  0.15813  0.26336  1.0000 0.0686178505
C   C21       1.0  0.85547  0.21863  0.21405  1.0000 0.005624873
C   C22       1.0  0.89050  0.19367  0.15340  1.0000 0.2098928308
C   C23       1.0  0.86450  0.25302  0.10332  1.0000 -0.1603344045
C   C24       1.0  0.80130  0.33130  0.11245  1.0000 -0.0635169419
C   C25       1.0  0.76260  0.35405  0.17150  1.0000 -0.0935573327
C   C26       1.0  0.79020  0.30014  0.22134  1.0000 -0.1603344045
C   C27       1.0  0.85163  0.17917  0.32842  1.0000 0.0686178505
C   C28       1.0  0.78247  0.11721  0.35979  1.0000 -0.1603344045
C   C29       1.0  0.75438  0.13296  0.42126  1.0000 -0.0013449164
C   C30       1.0  0.79741  0.21067  0.45186  1.0000 -0.1257777726
C   C31       1.0  0.86414  0.27353  0.42053  1.0000 0.0011918826
C   C32       1.0  0.89060  0.25885  0.35857  1.0000 -0.1603344045
C   C33       1.0  0.67077  0.07050  0.45263  1.0000 0.5643567396
C   C34       1.0  0.90759  0.35832  0.45366  1.0000 0.5677385879
C   C35       1.0  0.53070  0.55677  0.81108  1.0000 0.1106203635
C   C36       1.0  0.56190  0.57664  0.74998  1.0000 -0.212121687
C   C37       1.0  0.61694  0.65813  0.73664  1.0000 0.0686178505
C   C38       1.0  0.64453  0.71863  0.78595  1.0000 0.005624873
C   C39       1.0  0.60950  0.69367  0.84660  1.0000 0.2098928308
C   C40       1.0  0.63550  0.75302  0.89668  1.0000 -0.1603344045
C   C41       1.0  0.69870  0.83130  0.88755  1.0000 -0.0635169419
C   C42       1.0  0.73740  0.85405  0.82850  1.0000 -0.0935573327
C   C43       1.0  0.70980  0.80014  0.77866  1.0000 -0.1603344045
C   C44       1.0  0.64837  0.67917  0.67158  1.0000 0.0686178505
C   C45       1.0  0.71753  0.61721  0.64021  1.0000 -0.1603344045
C   C46       1.0  0.74562  0.63296  0.57874  1.0000 -0.0013449164
C   C47       1.0  0.70259  0.71067  0.54814  1.0000 -0.1257777726
C   C48       1.0  0.63586  0.77353  0.57947  1.0000 0.0011918826
C   C49       1.0  0.60940  0.75885  0.64143  1.0000 -0.1603344045
C   C50       1.0  0.82923  0.57050  0.54737  1.0000 0.5643567396
C   C51       1.0  0.59241  0.85832  0.54634  1.0000 0.5677385879
C   C52       1.0  0.46930  0.94323  0.31108  1.0000 0.1106203635
C   C53       1.0  0.43810  0.92336  0.24998  1.0000 -0.212121687
C   C54       1.0  0.38306  0.84187  0.23664  1.0000 0.0686178505
C   C55       1.0  0.35547  0.78137  0.28595  1.0000 0.005624873
C   C56       1.0  0.39050  0.80633  0.34660  1.0000 0.2098928308
C   C57       1.0  0.36450  0.74698  0.39668  1.0000 -0.1603344045
C   C58       1.0  0.30130  0.66870  0.38755  1.0000 -0.0635169419
C   C59       1.0  0.26260  0.64595  0.32850  1.0000 -0.0935573327
C   C60       1.0  0.29020  0.69986  0.27866  1.0000 -0.1603344045
C   C61       1.0  0.35163  0.82083  0.17158  1.0000 0.0686178505
C   C62       1.0  0.28247  0.88279  0.14021  1.0000 -0.1548042642
C   C63       1.0  0.25438  0.86704  0.07874  1.0000 -0.0013449164
C   C64       1.0  0.29741  0.78933  0.04814  1.0000 -0.1257777726
C   C65       1.0  0.36414  0.72647  0.07947  1.0000 0.0011918826
C   C66       1.0  0.39060  0.74115  0.14143  1.0000 -0.1603344045
C   C67       1.0  0.17077  0.92950  0.04737  1.0000 0.5643567396
C   C68       1.0  0.40759  0.64168  0.04634  1.0000 0.5677385879
C   C69       1.0  0.96930  0.55677  0.31108  1.0000 0.1106203635
C   C70       1.0  0.93810  0.57664  0.24998  1.0000 -0.212121687
C   C71       1.0  0.88306  0.65813  0.23664  1.0000 0.0686178505
C   C72       1.0  0.85547  0.71863  0.28595  1.0000 0.005624873
C   C73       1.0  0.89050  0.69367  0.34660  1.0000 0.2098928308
C   C74       1.0  0.86450  0.75302  0.39668  1.0000 -0.1603344045
C   C75       1.0  0.80130  0.83130  0.38755  1.0000 -0.0635169419
C   C76       1.0  0.76260  0.85405  0.32850  1.0000 -0.0935573327
C   C77       1.0  0.79020  0.80014  0.27866  1.0000 -0.1603344045
C   C78       1.0  0.85163  0.67917  0.17158  1.0000 0.0686178505
C   C79       1.0  0.78247  0.61721  0.14021  1.0000 -0.1603344045
C   C80       1.0  0.75438  0.63296  0.07874  1.0000 -0.0013449164
C   C81       1.0  0.79741  0.71067  0.04814  1.0000 -0.1257777726
C   C82       1.0  0.86414  0.77353  0.07947  1.0000 0.0011918826
C   C83       1.0  0.89060  0.75885  0.14143  1.0000 -0.1603344045
C   C84       1.0  0.67077  0.57050  0.04737  1.0000 0.5643567396
C   C85       1.0  0.90759  0.85832  0.04634  1.0000 0.5677385879
C   C86       1.0  0.03070  0.94323  0.81108  1.0000 0.1106203635
C   C87       1.0  0.06190  0.92336  0.74998  1.0000 -0.212121687
C   C88       1.0  0.11694  0.84187  0.73664  1.0000 0.0686178505
C   C89       1.0  0.14453  0.78137  0.78595  1.0000 0.005624873
C   C90       1.0  0.10950  0.80633  0.84660  1.0000 0.2098928308
C   C91       1.0  0.13550  0.74698  0.89668  1.0000 -0.1603344045
C   C92       1.0  0.19870  0.66870  0.88755  1.0000 -0.0635169419
C   C93       1.0  0.23740  0.64595  0.82850  1.0000 -0.0935573327
C   C94       1.0  0.20980  0.69986  0.77866  1.0000 -0.1603344045
C   C95       1.0  0.14837  0.82083  0.67158  1.0000 0.0686178505
C   C96       1.0  0.21753  0.88279  0.64021  1.0000 -0.1548042642
C   C97       1.0  0.24562  0.86704  0.57874  1.0000 -0.0013449164
C   C98       1.0  0.20259  0.78933  0.54814  1.0000 -0.1257777726
C   C99       1.0  0.13586  0.72647  0.57947  1.0000 0.0011918826
C   C100      1.0  0.10940  0.74115  0.64143  1.0000 -0.1603344045
C   C101      1.0  0.32923  0.92950  0.54737  1.0000 0.5643567396
C   C102      1.0  0.09241  0.64168  0.54634  1.0000 0.5677385879
C   C103      1.0  0.46930  0.44323  0.18892  1.0000 0.1106203635
C   C104      1.0  0.43810  0.42336  0.25002  1.0000 -0.212121687
C   C105      1.0  0.38306  0.34187  0.26336  1.0000 0.0686178505
C   C106      1.0  0.35547  0.28137  0.21405  1.0000 0.005624873
C   C107      1.0  0.39050  0.30633  0.15340  1.0000 0.2098928308
C   C108      1.0  0.36450  0.24698  0.10332  1.0000 -0.1603344045
C   C109      1.0  0.30130  0.16870  0.11245  1.0000 -0.0635169419
C   C110      1.0  0.26260  0.14595  0.17150  1.0000 -0.0935573327
C   C111      1.0  0.29020  0.19986  0.22134  1.0000 -0.1603344045
C   C112      1.0  0.35163  0.32083  0.32842  1.0000 0.0686178505
C   C113      1.0  0.28247  0.38279  0.35979  1.0000 -0.1548042642
C   C114      1.0  0.25438  0.36704  0.42126  1.0000 -0.0013449164
C   C115      1.0  0.29741  0.28933  0.45186  1.0000 -0.1257777726
C   C116      1.0  0.36414  0.22647  0.42053  1.0000 0.0011918826
C   C117      1.0  0.39060  0.24115  0.35857  1.0000 -0.1603344045
C   C118      1.0  0.17077  0.42950  0.45263  1.0000 0.5643567396
C   C119      1.0  0.40759  0.14168  0.45366  1.0000 0.5677385879
C   C120      1.0  0.53070  0.05677  0.68892  1.0000 0.1106203635
C   C121      1.0  0.56190  0.07664  0.75002  1.0000 -0.212121687
C   C122      1.0  0.61694  0.15813  0.76336  1.0000 0.0686178505
C   C123      1.0  0.64453  0.21863  0.71405  1.0000 0.005624873
C   C124      1.0  0.60950  0.19367  0.65340  1.0000 0.2098928308
C   C125      1.0  0.63550  0.25302  0.60332  1.0000 -0.1603344045
C   C126      1.0  0.69870  0.33130  0.61245  1.0000 -0.0635169419
C   C127      1.0  0.73740  0.35405  0.67150  1.0000 -0.0935573327
C   C128      1.0  0.70980  0.30014  0.72134  1.0000 -0.1603344045
C   C129      1.0  0.64837  0.17917  0.82842  1.0000 0.0686178505
C   C130      1.0  0.71753  0.11721  0.85979  1.0000 -0.1603344045
C   C131      1.0  0.74562  0.13296  0.92126  1.0000 -0.0013449164
C   C132      1.0  0.70259  0.21067  0.95186  1.0000 -0.1257777726
C   C133      1.0  0.63586  0.27353  0.92053  1.0000 0.0011918826
C   C134      1.0  0.60940  0.25885  0.85857  1.0000 -0.1603344045
C   C135      1.0  0.82923  0.07050  0.95263  1.0000 0.5643567396
C   C136      1.0  0.59241  0.35832  0.95366  1.0000 0.5677385879
N   N1        1.0  0.05113  0.38691  0.64161  1.0000 -0.3031345056
N   N2        1.0  0.94887  0.11309  0.14161  1.0000 -0.3031345056
N   N3        1.0  0.55113  0.61309  0.85839  1.0000 -0.3031345056
N   N4        1.0  0.44887  0.88691  0.35839  1.0000 -0.3031345056
N   N5        1.0  0.94887  0.61309  0.35839  1.0000 -0.3031345056
N   N6        1.0  0.05113  0.88691  0.85839  1.0000 -0.3031345056
N   N7        1.0  0.44887  0.38691  0.14161  1.0000 -0.3031345056
N   N8        1.0  0.55113  0.11309  0.64161  1.0000 -0.3031345056
O   O1        1.0  0.37079  0.49388  0.92049  1.0000 -0.5127906101
O   O2        1.0  0.35412  0.40939  0.00715  1.0000 -0.5127906101
O   O3        1.0  0.08100  0.06898  0.92176  1.0000 -0.516254549
O   O4        1.0  0.06940  0.15093  0.00997  1.0000 -0.494176005
O   O5        1.0  0.62921  0.00612  0.42049  1.0000 -0.5127906101
O   O6        1.0  0.64588  0.09061  0.50715  1.0000 -0.5127906101
O   O7        1.0  0.91900  0.43102  0.42176  1.0000 -0.516254549
O   O8        1.0  0.93060  0.34907  0.50997  1.0000 -0.494176005
O   O9        1.0  0.87079  0.50612  0.57951  1.0000 -0.5127906101
O   O10       1.0  0.85412  0.59061  0.49285  1.0000 -0.5127906101
O   O11       1.0  0.58100  0.93102  0.57824  1.0000 -0.516254549
O   O12       1.0  0.56940  0.84907  0.49003  1.0000 -0.494176005
O   O13       1.0  0.12921  0.99388  0.07951  1.0000 -0.5127906101
O   O14       1.0  0.14588  0.90939  0.99285  1.0000 -0.5127906101
O   O15       1.0  0.41900  0.56898  0.07824  1.0000 -0.516254549
O   O16       1.0  0.43060  0.65093  0.99003  1.0000 -0.494176005
O   O17       1.0  0.62921  0.50612  0.07951  1.0000 -0.5127906101
O   O18       1.0  0.64588  0.59061  0.99285  1.0000 -0.5127906101
O   O19       1.0  0.91900  0.93102  0.07824  1.0000 -0.516254549
O   O20       1.0  0.93060  0.84907  0.99003  1.0000 -0.494176005
O   O21       1.0  0.37079  0.99388  0.57951  1.0000 -0.5127906101
O   O22       1.0  0.35412  0.90939  0.49285  1.0000 -0.5127906101
O   O23       1.0  0.08100  0.56898  0.57824  1.0000 -0.516254549
O   O24       1.0  0.06940  0.65093  0.49003  1.0000 -0.494176005
O   O25       1.0  0.12921  0.49388  0.42049  1.0000 -0.5127906101
O   O26       1.0  0.14588  0.40939  0.50715  1.0000 -0.5127906101
O   O27       1.0  0.41900  0.06898  0.42176  1.0000 -0.516254549
O   O28       1.0  0.43060  0.15093  0.50997  1.0000 -0.494176005
O   O29       1.0  0.87079  0.00612  0.92049  1.0000 -0.5127906101
O   O30       1.0  0.85412  0.09061  0.00715  1.0000 -0.5127906101
O   O31       1.0  0.58100  0.43102  0.92176  1.0000 -0.516254549
O   O32       1.0  0.56940  0.34907  0.00997  1.0000 -0.494176005
