# DDEC6 charges by PACMAN v1.1 (https://github.com/mtap-research/PACMAN-charge/)
data_2016[Zn][pcu]3[ASR]4
_chemical_formula_sum              "Zn6 H24 C40 N12 O16"
_cell_length_a       8.1265
_cell_length_b       18.8576
_cell_length_c       9.1212
_cell_angle_alpha    90
_cell_angle_beta     111.963
_cell_angle_gamma    90

_symmetry_space_group_name_H-M    "P 1"
_symmetry_Int_Tables_number       1

loop_
  _symmetry_equiv_pos_as_xyz
  'x, y, z'

loop_
  _atom_site_type_symbol
  _atom_site_label
  _atom_site_symmetry_multiplicity
  _atom_site_fract_x
  _atom_site_fract_y
  _atom_site_fract_z
  _atom_site_occupancy
  _atom_site_charge
Zn  Zn1       1.0  0.50000  0.50000  0.00000  1.0000 0.8692712179
Zn  Zn2       1.0  0.00000  0.00000  0.00000  1.0000 0.8692712179
Zn  Zn3       1.0  0.66349  0.47035  0.69874  1.0000 0.741764187
Zn  Zn4       1.0  0.83651  0.97035  0.30126  1.0000 0.741764187
Zn  Zn5       1.0  0.33651  0.52965  0.30126  1.0000 0.741764187
Zn  Zn6       1.0  0.16349  0.02965  0.69874  1.0000 0.741764187
H   H1        1.0  0.65760  0.23860  0.73410  1.0000 0.1184273368
H   H2        1.0  0.84240  0.73860  0.26590  1.0000 0.1184273368
H   H3        1.0  0.34240  0.76140  0.26590  1.0000 0.1184273368
H   H4        1.0  0.15760  0.26140  0.73410  1.0000 0.1184273368
H   H5        1.0  0.68020  0.12200  0.81440  1.0000 0.1184273368
H   H6        1.0  0.81980  0.62200  0.18560  1.0000 0.1184273368
H   H7        1.0  0.31980  0.87800  0.18560  1.0000 0.1184273368
H   H8        1.0  0.18020  0.37800  0.81440  1.0000 0.1184273368
H   H9        1.0  0.57960  0.17930  0.19510  1.0000 0.1184273368
H   H10       1.0  0.92040  0.67930  0.80490  1.0000 0.1184273368
H   H11       1.0  0.42040  0.82070  0.80490  1.0000 0.1184273368
H   H12       1.0  0.07960  0.32070  0.19510  1.0000 0.1184273368
H   H13       1.0  0.55110  0.29540  0.11270  1.0000 0.1184273368
H   H14       1.0  0.94890  0.79540  0.88730  1.0000 0.1184273368
H   H15       1.0  0.44890  0.70460  0.88730  1.0000 0.1184273368
H   H16       1.0  0.05110  0.20460  0.11270  1.0000 0.1184273368
H   H17       1.0  0.12950  0.57460  0.74750  1.0000 0.1411594144
H   H18       1.0  0.37050  0.07460  0.25250  1.0000 0.1411594144
H   H19       1.0  0.87050  0.42540  0.25250  1.0000 0.1411594144
H   H20       1.0  0.62950  0.92540  0.74750  1.0000 0.1411594144
H   H21       1.0  0.07220  0.59070  0.46500  1.0000 0.1337629883
H   H22       1.0  0.42780  0.09070  0.53500  1.0000 0.1337629883
H   H23       1.0  0.92780  0.40930  0.53500  1.0000 0.1337629883
H   H24       1.0  0.57220  0.90930  0.46500  1.0000 0.1337629883
C   C1        1.0  0.60250  0.35624  0.87470  1.0000 0.5823457233
C   C2        1.0  0.89750  0.85624  0.12530  1.0000 0.5823457233
C   C3        1.0  0.39750  0.64376  0.12530  1.0000 0.5823457233
C   C4        1.0  0.10250  0.14376  0.87470  1.0000 0.5823457233
C   C5        1.0  0.60900  0.27962  0.91830  1.0000 -0.027969784
C   C6        1.0  0.89100  0.77962  0.08170  1.0000 -0.027969784
C   C7        1.0  0.39100  0.72038  0.08170  1.0000 -0.027969784
C   C8        1.0  0.10900  0.22038  0.91830  1.0000 -0.027969784
C   C9        1.0  0.64390  0.22685  0.82790  1.0000 -0.1062503074
C   C10       1.0  0.85610  0.72685  0.17210  1.0000 -0.1062503074
C   C11       1.0  0.35610  0.77315  0.17210  1.0000 -0.1062503074
C   C12       1.0  0.14390  0.27315  0.82790  1.0000 -0.1062503074
C   C13       1.0  0.65840  0.15711  0.87630  1.0000 -0.1009971796
C   C14       1.0  0.84160  0.65711  0.12370  1.0000 -0.1009971796
C   C15       1.0  0.34160  0.84289  0.12370  1.0000 -0.1009971796
C   C16       1.0  0.15840  0.34289  0.87630  1.0000 -0.1009971796
C   C17       1.0  0.64060  0.13908  0.01740  1.0000 -0.0180616499
C   C18       1.0  0.85940  0.63908  0.98260  1.0000 -0.0180616499
C   C19       1.0  0.35940  0.86092  0.98260  1.0000 -0.0180616499
C   C20       1.0  0.14060  0.36092  0.01740  1.0000 -0.0180616499
C   C21       1.0  0.59760  0.19132  0.10330  1.0000 -0.1062503074
C   C22       1.0  0.90240  0.69132  0.89670  1.0000 -0.1062503074
C   C23       1.0  0.40240  0.80868  0.89670  1.0000 -0.1062503074
C   C24       1.0  0.09760  0.30868  0.10330  1.0000 -0.1062503074
C   C25       1.0  0.58110  0.26077  0.05430  1.0000 -0.1009971796
C   C26       1.0  0.91890  0.76077  0.94570  1.0000 -0.1009971796
C   C27       1.0  0.41890  0.73923  0.94570  1.0000 -0.1009971796
C   C28       1.0  0.08110  0.23923  0.05430  1.0000 -0.1009971796
C   C29       1.0  0.68920  0.06626  0.08410  1.0000 0.5747701219
C   C30       1.0  0.81080  0.56626  0.91590  1.0000 0.5747701219
C   C31       1.0  0.31080  0.93374  0.91590  1.0000 0.5747701219
C   C32       1.0  0.18920  0.43374  0.08410  1.0000 0.5747701219
C   C33       1.0  0.20320  0.56030  0.69580  1.0000 -0.027969784
C   C34       1.0  0.29680  0.06030  0.30420  1.0000 -0.027969784
C   C35       1.0  0.79680  0.43970  0.30420  1.0000 -0.027969784
C   C36       1.0  0.70320  0.93970  0.69580  1.0000 -0.027969784
C   C37       1.0  0.17140  0.56920  0.53920  1.0000 -0.0419480996
C   C38       1.0  0.32860  0.06920  0.46080  1.0000 -0.0419480996
C   C39       1.0  0.82860  0.43080  0.46080  1.0000 -0.0419480996
C   C40       1.0  0.67140  0.93080  0.53920  1.0000 -0.0419480996
N   N1        1.0  0.35840  0.52769  0.76110  1.0000 -0.1516266809
N   N2        1.0  0.14160  0.02769  0.23890  1.0000 -0.1516266809
N   N3        1.0  0.64160  0.47231  0.23890  1.0000 -0.1516266809
N   N4        1.0  0.85840  0.97231  0.76110  1.0000 -0.1516266809
N   N5        1.0  0.42140  0.51622  0.64810  1.0000 -0.0739170265
N   N6        1.0  0.07860  0.01622  0.35190  1.0000 -0.0739170265
N   N7        1.0  0.57860  0.48378  0.35190  1.0000 -0.0739170265
N   N8        1.0  0.92140  0.98378  0.64810  1.0000 -0.0739170265
N   N9        1.0  0.30760  0.54145  0.51110  1.0000 -0.1656540641
N   N10       1.0  0.19240  0.04145  0.48890  1.0000 -0.1656540641
N   N11       1.0  0.69240  0.45855  0.48890  1.0000 -0.1656540641
N   N12       1.0  0.80760  0.95855  0.51110  1.0000 -0.1656540641
O   O1        1.0  0.53530  0.39765  0.94210  1.0000 -0.5532475719
O   O2        1.0  0.96470  0.89765  0.05790  1.0000 -0.5532475719
O   O3        1.0  0.46470  0.60235  0.05790  1.0000 -0.5532475719
O   O4        1.0  0.03530  0.10235  0.94210  1.0000 -0.5532475719
O   O5        1.0  0.66540  0.37367  0.77090  1.0000 -0.5297171631
O   O6        1.0  0.83460  0.87367  0.22910  1.0000 -0.5297171631
O   O7        1.0  0.33460  0.62633  0.22910  1.0000 -0.5297171631
O   O8        1.0  0.16540  0.12633  0.77090  1.0000 -0.5297171631
O   O9        1.0  0.67360  0.05157  0.21430  1.0000 -0.5211270609
O   O10       1.0  0.82640  0.55157  0.78570  1.0000 -0.5211270609
O   O11       1.0  0.32640  0.94843  0.78570  1.0000 -0.5211270609
O   O12       1.0  0.17360  0.44843  0.21430  1.0000 -0.5211270609
O   O13       1.0  0.75290  0.02262  0.01700  1.0000 -0.5564135321
O   O14       1.0  0.74710  0.52262  0.98300  1.0000 -0.5564135321
O   O15       1.0  0.24710  0.97738  0.98300  1.0000 -0.5564135321
O   O16       1.0  0.25290  0.47738  0.01700  1.0000 -0.5564135321
