# DDEC6 charges by PACMAN v1.1 (https://github.com/mtap-research/PACMAN-charge/)
data_2016[Cu][nbo]3[ASR]6
_chemical_formula_sum              "Cu48 H480 C960 N48 O192"
_cell_length_a       45.5419
_cell_length_b       45.5419
_cell_length_c       45.5419
_cell_angle_alpha    90
_cell_angle_beta     90
_cell_angle_gamma    90

_symmetry_space_group_name_H-M    "P 1"
_symmetry_Int_Tables_number       1

loop_
  _symmetry_equiv_pos_as_xyz
  'x, y, z'

loop_
  _atom_site_type_symbol
  _atom_site_label
  _atom_site_symmetry_multiplicity
  _atom_site_fract_x
  _atom_site_fract_y
  _atom_site_fract_z
  _atom_site_occupancy
  _atom_site_charge
Cu  Cu1       1.0  0.85130  0.01498  0.98964  1.0000 0.8088363094
Cu  Cu2       1.0  0.64870  0.98502  0.48964  1.0000 0.8088363094
Cu  Cu3       1.0  0.14870  0.51498  0.51036  1.0000 0.8088363094
Cu  Cu4       1.0  0.35130  0.48502  0.01036  1.0000 0.8088363094
Cu  Cu5       1.0  0.98964  0.85130  0.01498  1.0000 0.8088363094
Cu  Cu6       1.0  0.48964  0.64870  0.98502  1.0000 0.8088363094
Cu  Cu7       1.0  0.51036  0.14870  0.51498  1.0000 0.8088363094
Cu  Cu8       1.0  0.01036  0.35130  0.48502  1.0000 0.8088363094
Cu  Cu9       1.0  0.01498  0.98964  0.85130  1.0000 0.8046886742
Cu  Cu10      1.0  0.98502  0.48964  0.64870  1.0000 0.8088363094
Cu  Cu11      1.0  0.51498  0.51036  0.14870  1.0000 0.8088363094
Cu  Cu12      1.0  0.48502  0.01036  0.35130  1.0000 0.8088363094
Cu  Cu13      1.0  0.14870  0.98502  0.01036  1.0000 0.8088363094
Cu  Cu14      1.0  0.35130  0.01498  0.51036  1.0000 0.8088363094
Cu  Cu15      1.0  0.85130  0.48502  0.48964  1.0000 0.8088363094
Cu  Cu16      1.0  0.64870  0.51498  0.98964  1.0000 0.8088363094
Cu  Cu17      1.0  0.01036  0.14870  0.98502  1.0000 0.8088363094
Cu  Cu18      1.0  0.51036  0.35130  0.01498  1.0000 0.8088363094
Cu  Cu19      1.0  0.48964  0.85130  0.48502  1.0000 0.8088363094
Cu  Cu20      1.0  0.98964  0.64870  0.51498  1.0000 0.8088363094
Cu  Cu21      1.0  0.98502  0.01036  0.14870  1.0000 0.8088363094
Cu  Cu22      1.0  0.01498  0.51036  0.35130  1.0000 0.8088363094
Cu  Cu23      1.0  0.48502  0.48964  0.85130  1.0000 0.8046886742
Cu  Cu24      1.0  0.51498  0.98964  0.64870  1.0000 0.8088363094
Cu  Cu25      1.0  0.79715  0.01699  0.98241  1.0000 0.7529026389
Cu  Cu26      1.0  0.70285  0.98301  0.48241  1.0000 0.7529026389
Cu  Cu27      1.0  0.20285  0.51699  0.51759  1.0000 0.7621418098
Cu  Cu28      1.0  0.29715  0.48301  0.01759  1.0000 0.7621418098
Cu  Cu29      1.0  0.98241  0.79715  0.01699  1.0000 0.7529026389
Cu  Cu30      1.0  0.48241  0.70285  0.98301  1.0000 0.7529026389
Cu  Cu31      1.0  0.51759  0.20285  0.51699  1.0000 0.7621418098
Cu  Cu32      1.0  0.01759  0.29715  0.48301  1.0000 0.7621418098
Cu  Cu33      1.0  0.01699  0.98241  0.79715  1.0000 0.7529026389
Cu  Cu34      1.0  0.98301  0.48241  0.70285  1.0000 0.7529026389
Cu  Cu35      1.0  0.51699  0.51759  0.20285  1.0000 0.7621418098
Cu  Cu36      1.0  0.48301  0.01759  0.29715  1.0000 0.7621418098
Cu  Cu37      1.0  0.20285  0.98301  0.01759  1.0000 0.7657040775
Cu  Cu38      1.0  0.29715  0.01699  0.51759  1.0000 0.7529026389
Cu  Cu39      1.0  0.79715  0.48301  0.48241  1.0000 0.7621418098
Cu  Cu40      1.0  0.70285  0.51699  0.98241  1.0000 0.7621418098
Cu  Cu41      1.0  0.01759  0.20285  0.98301  1.0000 0.7621418098
Cu  Cu42      1.0  0.51759  0.29715  0.01699  1.0000 0.7529026389
Cu  Cu43      1.0  0.48241  0.79715  0.48301  1.0000 0.7621418098
Cu  Cu44      1.0  0.98241  0.70285  0.51699  1.0000 0.7621418098
Cu  Cu45      1.0  0.98301  0.01759  0.20285  1.0000 0.7621418098
Cu  Cu46      1.0  0.01699  0.51759  0.29715  1.0000 0.7621418098
Cu  Cu47      1.0  0.48301  0.48241  0.79715  1.0000 0.7621418098
Cu  Cu48      1.0  0.51699  0.98241  0.70285  1.0000 0.7621418098
H   H1        1.0  0.65629  0.98341  0.25837  1.0000 0.1202171086
H   H2        1.0  0.84371  0.01659  0.75837  1.0000 0.1202171086
H   H3        1.0  0.34371  0.48341  0.24163  1.0000 0.1202171086
H   H4        1.0  0.15629  0.51659  0.74163  1.0000 0.1202171086
H   H5        1.0  0.25837  0.65629  0.98341  1.0000 0.1202171086
H   H6        1.0  0.75837  0.84371  0.01659  1.0000 0.1202171086
H   H7        1.0  0.24163  0.34371  0.48341  1.0000 0.1202171086
H   H8        1.0  0.74163  0.15629  0.51659  1.0000 0.1202171086
H   H9        1.0  0.98341  0.25837  0.65629  1.0000 0.1202171086
H   H10       1.0  0.01659  0.75837  0.84371  1.0000 0.1202171086
H   H11       1.0  0.48341  0.24163  0.34371  1.0000 0.1202171086
H   H12       1.0  0.51659  0.74163  0.15629  1.0000 0.1202171086
H   H13       1.0  0.34371  0.01659  0.74163  1.0000 0.1202171086
H   H14       1.0  0.15629  0.98341  0.24163  1.0000 0.1202171086
H   H15       1.0  0.65629  0.51659  0.75837  1.0000 0.1202171086
H   H16       1.0  0.84371  0.48341  0.25837  1.0000 0.1202171086
H   H17       1.0  0.74163  0.34371  0.01659  1.0000 0.1202171086
H   H18       1.0  0.24163  0.15629  0.98341  1.0000 0.1202171086
H   H19       1.0  0.75837  0.65629  0.51659  1.0000 0.1202171086
H   H20       1.0  0.25837  0.84371  0.48341  1.0000 0.1202171086
H   H21       1.0  0.01659  0.74163  0.34371  1.0000 0.1202171086
H   H22       1.0  0.98341  0.24163  0.15629  1.0000 0.1202171086
H   H23       1.0  0.51659  0.75837  0.65629  1.0000 0.1202171086
H   H24       1.0  0.48341  0.25837  0.84371  1.0000 0.1202171086
H   H25       1.0  0.76703  0.02523  0.06982  1.0000 0.1202171086
H   H26       1.0  0.73297  0.97477  0.56982  1.0000 0.1202171086
H   H27       1.0  0.23297  0.52523  0.43018  1.0000 0.1202171086
H   H28       1.0  0.26703  0.47477  0.93018  1.0000 0.1202171086
H   H29       1.0  0.06982  0.76703  0.02523  1.0000 0.1202171086
H   H30       1.0  0.56982  0.73297  0.97477  1.0000 0.1202171086
H   H31       1.0  0.43018  0.23297  0.52523  1.0000 0.1202171086
H   H32       1.0  0.93018  0.26703  0.47477  1.0000 0.1202171086
H   H33       1.0  0.02523  0.06982  0.76703  1.0000 0.1202171086
H   H34       1.0  0.97477  0.56982  0.73297  1.0000 0.1202171086
H   H35       1.0  0.52523  0.43018  0.23297  1.0000 0.1202171086
H   H36       1.0  0.47477  0.93018  0.26703  1.0000 0.1202171086
H   H37       1.0  0.23297  0.97477  0.93018  1.0000 0.1202171086
H   H38       1.0  0.26703  0.02523  0.43018  1.0000 0.1202171086
H   H39       1.0  0.76703  0.47477  0.56982  1.0000 0.1202171086
H   H40       1.0  0.73297  0.52523  0.06982  1.0000 0.1202171086
H   H41       1.0  0.93018  0.23297  0.97477  1.0000 0.1202171086
H   H42       1.0  0.43018  0.26703  0.02523  1.0000 0.1202171086
H   H43       1.0  0.56982  0.76703  0.47477  1.0000 0.1202171086
H   H44       1.0  0.06982  0.73297  0.52523  1.0000 0.1202171086
H   H45       1.0  0.97477  0.93018  0.23297  1.0000 0.1202171086
H   H46       1.0  0.02523  0.43018  0.26703  1.0000 0.1202171086
H   H47       1.0  0.47477  0.56982  0.76703  1.0000 0.1202171086
H   H48       1.0  0.52523  0.06982  0.73297  1.0000 0.1202171086
H   H49       1.0  0.71345  0.97968  0.39424  1.0000 0.1202171086
H   H50       1.0  0.78655  0.02032  0.89424  1.0000 0.1202171086
H   H51       1.0  0.28655  0.47968  0.10576  1.0000 0.1202171086
H   H52       1.0  0.21345  0.52032  0.60576  1.0000 0.1202171086
H   H53       1.0  0.39424  0.71345  0.97968  1.0000 0.1202171086
H   H54       1.0  0.89424  0.78655  0.02032  1.0000 0.1202171086
H   H55       1.0  0.10576  0.28655  0.47968  1.0000 0.1202171086
H   H56       1.0  0.60576  0.21345  0.52032  1.0000 0.1202171086
H   H57       1.0  0.97968  0.39424  0.71345  1.0000 0.1202171086
H   H58       1.0  0.02032  0.89424  0.78655  1.0000 0.1202171086
H   H59       1.0  0.47968  0.10576  0.28655  1.0000 0.1202171086
H   H60       1.0  0.52032  0.60576  0.21345  1.0000 0.1202171086
H   H61       1.0  0.28655  0.02032  0.60576  1.0000 0.1202171086
H   H62       1.0  0.21345  0.97968  0.10576  1.0000 0.1202171086
H   H63       1.0  0.71345  0.52032  0.89424  1.0000 0.1202171086
H   H64       1.0  0.78655  0.47968  0.39424  1.0000 0.1202171086
H   H65       1.0  0.60576  0.28655  0.02032  1.0000 0.1202171086
H   H66       1.0  0.10576  0.21345  0.97968  1.0000 0.1202171086
H   H67       1.0  0.89424  0.71345  0.52032  1.0000 0.1202171086
H   H68       1.0  0.39424  0.78655  0.47968  1.0000 0.1202171086
H   H69       1.0  0.02032  0.60576  0.28655  1.0000 0.1202171086
H   H70       1.0  0.97968  0.10576  0.21345  1.0000 0.1202171086
H   H71       1.0  0.52032  0.89424  0.71345  1.0000 0.1202171086
H   H72       1.0  0.47968  0.39424  0.78655  1.0000 0.1202171086
H   H73       1.0  0.76250  0.03592  0.12273  1.0000 0.1202171086
H   H74       1.0  0.73750  0.96408  0.62273  1.0000 0.1202171086
H   H75       1.0  0.23750  0.53592  0.37727  1.0000 0.1202171086
H   H76       1.0  0.26250  0.46408  0.87727  1.0000 0.1202171086
H   H77       1.0  0.12273  0.76250  0.03592  1.0000 0.1202171086
H   H78       1.0  0.62273  0.73750  0.96408  1.0000 0.1202171086
H   H79       1.0  0.37727  0.23750  0.53592  1.0000 0.1202171086
H   H80       1.0  0.87727  0.26250  0.46408  1.0000 0.1202171086
H   H81       1.0  0.03592  0.12273  0.76250  1.0000 0.1202171086
H   H82       1.0  0.96408  0.62273  0.73750  1.0000 0.1202171086
H   H83       1.0  0.53592  0.37727  0.23750  1.0000 0.1202171086
H   H84       1.0  0.46408  0.87727  0.26250  1.0000 0.1202171086
H   H85       1.0  0.23750  0.96408  0.87727  1.0000 0.1202171086
H   H86       1.0  0.26250  0.03592  0.37727  1.0000 0.1202171086
H   H87       1.0  0.76250  0.46408  0.62273  1.0000 0.1202171086
H   H88       1.0  0.73750  0.53592  0.12273  1.0000 0.1202171086
H   H89       1.0  0.87727  0.23750  0.96408  1.0000 0.1202171086
H   H90       1.0  0.37727  0.26250  0.03592  1.0000 0.1202171086
H   H91       1.0  0.62273  0.76250  0.46408  1.0000 0.1202171086
H   H92       1.0  0.12273  0.73750  0.53592  1.0000 0.1202171086
H   H93       1.0  0.96408  0.87727  0.23750  1.0000 0.1202171086
H   H94       1.0  0.03592  0.37727  0.26250  1.0000 0.1202171086
H   H95       1.0  0.46408  0.62273  0.76250  1.0000 0.1202171086
H   H96       1.0  0.53592  0.12273  0.73750  1.0000 0.1202171086
H   H97       1.0  0.71142  0.98976  0.34126  1.0000 0.1110837519
H   H98       1.0  0.78858  0.01024  0.84126  1.0000 0.1110837519
H   H99       1.0  0.28858  0.48976  0.15874  1.0000 0.1110837519
H   H100      1.0  0.21142  0.51024  0.65874  1.0000 0.1110837519
H   H101      1.0  0.34126  0.71142  0.98976  1.0000 0.1110837519
H   H102      1.0  0.84126  0.78858  0.01024  1.0000 0.1110837519
H   H103      1.0  0.15874  0.28858  0.48976  1.0000 0.1110837519
H   H104      1.0  0.65874  0.21142  0.51024  1.0000 0.1110837519
H   H105      1.0  0.98976  0.34126  0.71142  1.0000 0.1110837519
H   H106      1.0  0.01024  0.84126  0.78858  1.0000 0.1110837519
H   H107      1.0  0.48976  0.15874  0.28858  1.0000 0.1110837519
H   H108      1.0  0.51024  0.65874  0.21142  1.0000 0.1110837519
H   H109      1.0  0.28858  0.01024  0.65874  1.0000 0.1110837519
H   H110      1.0  0.21142  0.98976  0.15874  1.0000 0.1110837519
H   H111      1.0  0.71142  0.51024  0.84126  1.0000 0.1110837519
H   H112      1.0  0.78858  0.48976  0.34126  1.0000 0.1110837519
H   H113      1.0  0.65874  0.28858  0.01024  1.0000 0.1110837519
H   H114      1.0  0.15874  0.21142  0.98976  1.0000 0.1110837519
H   H115      1.0  0.84126  0.71142  0.51024  1.0000 0.1110837519
H   H116      1.0  0.34126  0.78858  0.48976  1.0000 0.1110837519
H   H117      1.0  0.01024  0.65874  0.28858  1.0000 0.1110837519
H   H118      1.0  0.98976  0.15874  0.21142  1.0000 0.1110837519
H   H119      1.0  0.51024  0.84126  0.71142  1.0000 0.1110837519
H   H120      1.0  0.48976  0.34126  0.78858  1.0000 0.1110837519
H   H121      1.0  0.86028  0.00817  0.08102  1.0000 0.1313801438
H   H122      1.0  0.63972  0.99183  0.58102  1.0000 0.1313801438
H   H123      1.0  0.13972  0.50817  0.41898  1.0000 0.1313801438
H   H124      1.0  0.36028  0.49183  0.91898  1.0000 0.1313801438
H   H125      1.0  0.08102  0.86028  0.00817  1.0000 0.1313801438
H   H126      1.0  0.58102  0.63972  0.99183  1.0000 0.1313801438
H   H127      1.0  0.41898  0.13972  0.50817  1.0000 0.1313801438
H   H128      1.0  0.91898  0.36028  0.49183  1.0000 0.1313801438
H   H129      1.0  0.00817  0.08102  0.86028  1.0000 0.1313801438
H   H130      1.0  0.99183  0.58102  0.63972  1.0000 0.1313801438
H   H131      1.0  0.50817  0.41898  0.13972  1.0000 0.1313801438
H   H132      1.0  0.49183  0.91898  0.36028  1.0000 0.1313801438
H   H133      1.0  0.13972  0.99183  0.91898  1.0000 0.1313801438
H   H134      1.0  0.36028  0.00817  0.41898  1.0000 0.1313801438
H   H135      1.0  0.86028  0.49183  0.58102  1.0000 0.1313801438
H   H136      1.0  0.63972  0.50817  0.08102  1.0000 0.1313801438
H   H137      1.0  0.91898  0.13972  0.99183  1.0000 0.1313801438
H   H138      1.0  0.41898  0.36028  0.00817  1.0000 0.1313801438
H   H139      1.0  0.58102  0.86028  0.49183  1.0000 0.1313801438
H   H140      1.0  0.08102  0.63972  0.50817  1.0000 0.1313801438
H   H141      1.0  0.99183  0.91898  0.13972  1.0000 0.1313801438
H   H142      1.0  0.00817  0.41898  0.36028  1.0000 0.1313801438
H   H143      1.0  0.49183  0.58102  0.86028  1.0000 0.1313801438
H   H144      1.0  0.50817  0.08102  0.63972  1.0000 0.1313801438
H   H145      1.0  0.61892  0.99113  0.40036  1.0000 0.1313801438
H   H146      1.0  0.88108  0.00887  0.90036  1.0000 0.1313801438
H   H147      1.0  0.38108  0.49113  0.09964  1.0000 0.1313801438
H   H148      1.0  0.11892  0.50887  0.59964  1.0000 0.1313801438
H   H149      1.0  0.40036  0.61892  0.99113  1.0000 0.1313801438
H   H150      1.0  0.90036  0.88108  0.00887  1.0000 0.1313801438
H   H151      1.0  0.09964  0.38108  0.49113  1.0000 0.1313801438
H   H152      1.0  0.59964  0.11892  0.50887  1.0000 0.1313801438
H   H153      1.0  0.99113  0.40036  0.61892  1.0000 0.1313801438
H   H154      1.0  0.00887  0.90036  0.88108  1.0000 0.1313801438
H   H155      1.0  0.49113  0.09964  0.38108  1.0000 0.1313801438
H   H156      1.0  0.50887  0.59964  0.11892  1.0000 0.1313801438
H   H157      1.0  0.38108  0.00887  0.59964  1.0000 0.1313801438
H   H158      1.0  0.11892  0.99113  0.09964  1.0000 0.1313801438
H   H159      1.0  0.61892  0.50887  0.90036  1.0000 0.1313801438
H   H160      1.0  0.88108  0.49113  0.40036  1.0000 0.1313801438
H   H161      1.0  0.59964  0.38108  0.00887  1.0000 0.1313801438
H   H162      1.0  0.09964  0.11892  0.99113  1.0000 0.1313801438
H   H163      1.0  0.90036  0.61892  0.50887  1.0000 0.1313801438
H   H164      1.0  0.40036  0.88108  0.49113  1.0000 0.1313801438
H   H165      1.0  0.00887  0.59964  0.38108  1.0000 0.1313801438
H   H166      1.0  0.99113  0.09964  0.11892  1.0000 0.1313801438
H   H167      1.0  0.50887  0.90036  0.61892  1.0000 0.1313801438
H   H168      1.0  0.49113  0.40036  0.88108  1.0000 0.1313801438
H   H169      1.0  0.89655  0.00684  0.12429  1.0000 0.1313801438
H   H170      1.0  0.60345  0.99316  0.62429  1.0000 0.1313801438
H   H171      1.0  0.10345  0.50684  0.37571  1.0000 0.1313801438
H   H172      1.0  0.39655  0.49316  0.87571  1.0000 0.1313801438
H   H173      1.0  0.12429  0.89655  0.00684  1.0000 0.1313801438
H   H174      1.0  0.62429  0.60345  0.99316  1.0000 0.1313801438
H   H175      1.0  0.37571  0.10345  0.50684  1.0000 0.1313801438
H   H176      1.0  0.87571  0.39655  0.49316  1.0000 0.1313801438
H   H177      1.0  0.00684  0.12429  0.89655  1.0000 0.1313801438
H   H178      1.0  0.99316  0.62429  0.60345  1.0000 0.1313801438
H   H179      1.0  0.50684  0.37571  0.10345  1.0000 0.1313801438
H   H180      1.0  0.49316  0.87571  0.39655  1.0000 0.1313801438
H   H181      1.0  0.10345  0.99316  0.87571  1.0000 0.1313801438
H   H182      1.0  0.39655  0.00684  0.37571  1.0000 0.1313801438
H   H183      1.0  0.89655  0.49316  0.62429  1.0000 0.1313801438
H   H184      1.0  0.60345  0.50684  0.12429  1.0000 0.1313801438
H   H185      1.0  0.87571  0.10345  0.99316  1.0000 0.1313801438
H   H186      1.0  0.37571  0.39655  0.00684  1.0000 0.1313801438
H   H187      1.0  0.62429  0.89655  0.49316  1.0000 0.1313801438
H   H188      1.0  0.12429  0.60345  0.50684  1.0000 0.1313801438
H   H189      1.0  0.99316  0.87571  0.10345  1.0000 0.1313801438
H   H190      1.0  0.00684  0.37571  0.39655  1.0000 0.1313801438
H   H191      1.0  0.49316  0.62429  0.89655  1.0000 0.1313801438
H   H192      1.0  0.50684  0.12429  0.60345  1.0000 0.1313801438
H   H193      1.0  0.57717  0.00276  0.36508  1.0000 0.1313801438
H   H194      1.0  0.92283  0.99724  0.86508  1.0000 0.1313801438
H   H195      1.0  0.42283  0.50276  0.13492  1.0000 0.1313801438
H   H196      1.0  0.07717  0.49724  0.63492  1.0000 0.1313801438
H   H197      1.0  0.36508  0.57717  0.00276  1.0000 0.1313801438
H   H198      1.0  0.86508  0.92283  0.99724  1.0000 0.1313801438
H   H199      1.0  0.13492  0.42283  0.50276  1.0000 0.1313801438
H   H200      1.0  0.63492  0.07717  0.49724  1.0000 0.1313801438
H   H201      1.0  0.00276  0.36508  0.57717  1.0000 0.1313801438
H   H202      1.0  0.99724  0.86508  0.92283  1.0000 0.1313801438
H   H203      1.0  0.50276  0.13492  0.42283  1.0000 0.1313801438
H   H204      1.0  0.49724  0.63492  0.07717  1.0000 0.1313801438
H   H205      1.0  0.42283  0.99724  0.63492  1.0000 0.1313801438
H   H206      1.0  0.07717  0.00276  0.13492  1.0000 0.1313801438
H   H207      1.0  0.57717  0.49724  0.86508  1.0000 0.1313801438
H   H208      1.0  0.92283  0.50276  0.36508  1.0000 0.1313801438
H   H209      1.0  0.63492  0.42283  0.99724  1.0000 0.1313801438
H   H210      1.0  0.13492  0.07717  0.00276  1.0000 0.1313801438
H   H211      1.0  0.86508  0.57717  0.49724  1.0000 0.1313801438
H   H212      1.0  0.36508  0.92283  0.50276  1.0000 0.1313801438
H   H213      1.0  0.99724  0.63492  0.42283  1.0000 0.1313801438
H   H214      1.0  0.00276  0.13492  0.07717  1.0000 0.1313801438
H   H215      1.0  0.49724  0.86508  0.57717  1.0000 0.1313801438
H   H216      1.0  0.50276  0.36508  0.92283  1.0000 0.1313801438
H   H217      1.0  0.83960  0.03469  0.21398  1.0000 0.1110837519
H   H218      1.0  0.66040  0.96531  0.71398  1.0000 0.1110837519
H   H219      1.0  0.16040  0.53469  0.28602  1.0000 0.1110837519
H   H220      1.0  0.33960  0.46531  0.78602  1.0000 0.1110837519
H   H221      1.0  0.21398  0.83960  0.03469  1.0000 0.1110837519
H   H222      1.0  0.71398  0.66040  0.96531  1.0000 0.1110837519
H   H223      1.0  0.28602  0.16040  0.53469  1.0000 0.1110837519
H   H224      1.0  0.78602  0.33960  0.46531  1.0000 0.1110837519
H   H225      1.0  0.03469  0.21398  0.83960  1.0000 0.1110837519
H   H226      1.0  0.96531  0.71398  0.66040  1.0000 0.1110837519
H   H227      1.0  0.53469  0.28602  0.16040  1.0000 0.1110837519
H   H228      1.0  0.46531  0.78602  0.33960  1.0000 0.1110837519
H   H229      1.0  0.16040  0.96531  0.78602  1.0000 0.1110837519
H   H230      1.0  0.33960  0.03469  0.28602  1.0000 0.1110837519
H   H231      1.0  0.83960  0.46531  0.71398  1.0000 0.1110837519
H   H232      1.0  0.66040  0.53469  0.21398  1.0000 0.1110837519
H   H233      1.0  0.78602  0.16040  0.96531  1.0000 0.1110837519
H   H234      1.0  0.28602  0.33960  0.03469  1.0000 0.1110837519
H   H235      1.0  0.71398  0.83960  0.46531  1.0000 0.1110837519
H   H236      1.0  0.21398  0.66040  0.53469  1.0000 0.1110837519
H   H237      1.0  0.96531  0.78602  0.16040  1.0000 0.1110837519
H   H238      1.0  0.03469  0.28602  0.33960  1.0000 0.1110837519
H   H239      1.0  0.46531  0.71398  0.83960  1.0000 0.1110837519
H   H240      1.0  0.53469  0.21398  0.66040  1.0000 0.1110837519
H   H241      1.0  0.62230  0.02080  0.26662  1.0000 0.1110837519
H   H242      1.0  0.87770  0.97920  0.76662  1.0000 0.1110837519
H   H243      1.0  0.37770  0.52080  0.23338  1.0000 0.1110837519
H   H244      1.0  0.12230  0.47920  0.73338  1.0000 0.1110837519
H   H245      1.0  0.26662  0.62230  0.02080  1.0000 0.1110837519
H   H246      1.0  0.76662  0.87770  0.97920  1.0000 0.1110837519
H   H247      1.0  0.23338  0.37770  0.52080  1.0000 0.1110837519
H   H248      1.0  0.73338  0.12230  0.47920  1.0000 0.1110837519
H   H249      1.0  0.02080  0.26662  0.62230  1.0000 0.1110837519
H   H250      1.0  0.97920  0.76662  0.87770  1.0000 0.1110837519
H   H251      1.0  0.52080  0.23338  0.37770  1.0000 0.1110837519
H   H252      1.0  0.47920  0.73338  0.12230  1.0000 0.1110837519
H   H253      1.0  0.37770  0.97920  0.73338  1.0000 0.1110837519
H   H254      1.0  0.12230  0.02080  0.23338  1.0000 0.1110837519
H   H255      1.0  0.62230  0.47920  0.76662  1.0000 0.1110837519
H   H256      1.0  0.87770  0.52080  0.26662  1.0000 0.1110837519
H   H257      1.0  0.73338  0.37770  0.97920  1.0000 0.1110837519
H   H258      1.0  0.23338  0.12230  0.02080  1.0000 0.1110837519
H   H259      1.0  0.76662  0.62230  0.47920  1.0000 0.1110837519
H   H260      1.0  0.26662  0.87770  0.52080  1.0000 0.1110837519
H   H261      1.0  0.97920  0.73338  0.37770  1.0000 0.1110837519
H   H262      1.0  0.02080  0.23338  0.12230  1.0000 0.1110837519
H   H263      1.0  0.47920  0.76662  0.62230  1.0000 0.1110837519
H   H264      1.0  0.52080  0.26662  0.87770  1.0000 0.1110837519
H   H265      1.0  0.89205  0.02238  0.21838  1.0000 0.1202171086
H   H266      1.0  0.60795  0.97762  0.71838  1.0000 0.1202171086
H   H267      1.0  0.10795  0.52238  0.28162  1.0000 0.1202171086
H   H268      1.0  0.39205  0.47762  0.78162  1.0000 0.1202171086
H   H269      1.0  0.21838  0.89205  0.02238  1.0000 0.1202171086
H   H270      1.0  0.71838  0.60795  0.97762  1.0000 0.1202171086
H   H271      1.0  0.28162  0.10795  0.52238  1.0000 0.1202171086
H   H272      1.0  0.78162  0.39205  0.47762  1.0000 0.1202171086
H   H273      1.0  0.02238  0.21838  0.89205  1.0000 0.1202171086
H   H274      1.0  0.97762  0.71838  0.60795  1.0000 0.1202171086
H   H275      1.0  0.52238  0.28162  0.10795  1.0000 0.1202171086
H   H276      1.0  0.47762  0.78162  0.39205  1.0000 0.1202171086
H   H277      1.0  0.10795  0.97762  0.78162  1.0000 0.1202171086
H   H278      1.0  0.39205  0.02238  0.28162  1.0000 0.1202171086
H   H279      1.0  0.89205  0.47762  0.71838  1.0000 0.1202171086
H   H280      1.0  0.60795  0.52238  0.21838  1.0000 0.1202171086
H   H281      1.0  0.78162  0.10795  0.97762  1.0000 0.1202171086
H   H282      1.0  0.28162  0.39205  0.02238  1.0000 0.1202171086
H   H283      1.0  0.71838  0.89205  0.47762  1.0000 0.1202171086
H   H284      1.0  0.21838  0.60795  0.52238  1.0000 0.1202171086
H   H285      1.0  0.97762  0.78162  0.10795  1.0000 0.1202171086
H   H286      1.0  0.02238  0.28162  0.39205  1.0000 0.1202171086
H   H287      1.0  0.47762  0.71838  0.89205  1.0000 0.1202171086
H   H288      1.0  0.52238  0.21838  0.60795  1.0000 0.1202171086
H   H289      1.0  0.56892  0.02612  0.27295  1.0000 0.1202171086
H   H290      1.0  0.93108  0.97388  0.77295  1.0000 0.1202171086
H   H291      1.0  0.43108  0.52612  0.22705  1.0000 0.1202171086
H   H292      1.0  0.06892  0.47388  0.72705  1.0000 0.1202171086
H   H293      1.0  0.27295  0.56892  0.02612  1.0000 0.1202171086
H   H294      1.0  0.77295  0.93108  0.97388  1.0000 0.1202171086
H   H295      1.0  0.22705  0.43108  0.52612  1.0000 0.1202171086
H   H296      1.0  0.72705  0.06892  0.47388  1.0000 0.1202171086
H   H297      1.0  0.02612  0.27295  0.56892  1.0000 0.1202171086
H   H298      1.0  0.97388  0.77295  0.93108  1.0000 0.1202171086
H   H299      1.0  0.52612  0.22705  0.43108  1.0000 0.1202171086
H   H300      1.0  0.47388  0.72705  0.06892  1.0000 0.1202171086
H   H301      1.0  0.43108  0.97388  0.72705  1.0000 0.1202171086
H   H302      1.0  0.06892  0.02612  0.22705  1.0000 0.1202171086
H   H303      1.0  0.56892  0.47388  0.77295  1.0000 0.1202171086
H   H304      1.0  0.93108  0.52612  0.27295  1.0000 0.1202171086
H   H305      1.0  0.72705  0.43108  0.97388  1.0000 0.1202171086
H   H306      1.0  0.22705  0.06892  0.02612  1.0000 0.1202171086
H   H307      1.0  0.77295  0.56892  0.47388  1.0000 0.1202171086
H   H308      1.0  0.27295  0.93108  0.52612  1.0000 0.1202171086
H   H309      1.0  0.97388  0.72705  0.43108  1.0000 0.1202171086
H   H310      1.0  0.02612  0.22705  0.06892  1.0000 0.1202171086
H   H311      1.0  0.47388  0.77295  0.56892  1.0000 0.1202171086
H   H312      1.0  0.52612  0.27295  0.93108  1.0000 0.1202171086
H   H313      1.0  0.79654  0.07190  0.20230  1.0000 0.1202171086
H   H314      1.0  0.70346  0.92810  0.70230  1.0000 0.1202171086
H   H315      1.0  0.20346  0.57190  0.29770  1.0000 0.1202171086
H   H316      1.0  0.29654  0.42810  0.79770  1.0000 0.1202171086
H   H317      1.0  0.20230  0.79654  0.07190  1.0000 0.1202171086
H   H318      1.0  0.70230  0.70346  0.92810  1.0000 0.1202171086
H   H319      1.0  0.29770  0.20346  0.57190  1.0000 0.1202171086
H   H320      1.0  0.79770  0.29654  0.42810  1.0000 0.1202171086
H   H321      1.0  0.07190  0.20230  0.79654  1.0000 0.1202171086
H   H322      1.0  0.92810  0.70230  0.70346  1.0000 0.1202171086
H   H323      1.0  0.57190  0.29770  0.20346  1.0000 0.1202171086
H   H324      1.0  0.42810  0.79770  0.29654  1.0000 0.1202171086
H   H325      1.0  0.20346  0.92810  0.79770  1.0000 0.1202171086
H   H326      1.0  0.29654  0.07190  0.29770  1.0000 0.1202171086
H   H327      1.0  0.79654  0.42810  0.70230  1.0000 0.1202171086
H   H328      1.0  0.70346  0.57190  0.20230  1.0000 0.1202171086
H   H329      1.0  0.79770  0.20346  0.92810  1.0000 0.1202171086
H   H330      1.0  0.29770  0.29654  0.07190  1.0000 0.1202171086
H   H331      1.0  0.70230  0.79654  0.42810  1.0000 0.1202171086
H   H332      1.0  0.20230  0.70346  0.57190  1.0000 0.1202171086
H   H333      1.0  0.92810  0.79770  0.20346  1.0000 0.1202171086
H   H334      1.0  0.07190  0.29770  0.29654  1.0000 0.1202171086
H   H335      1.0  0.42810  0.70230  0.79654  1.0000 0.1202171086
H   H336      1.0  0.57190  0.20230  0.70346  1.0000 0.1202171086
H   H337      1.0  0.70738  0.03666  0.31732  1.0000 0.1202171086
H   H338      1.0  0.79262  0.96334  0.81732  1.0000 0.1202171086
H   H339      1.0  0.29262  0.53666  0.18268  1.0000 0.1202171086
H   H340      1.0  0.20738  0.46334  0.68268  1.0000 0.1202171086
H   H341      1.0  0.31732  0.70738  0.03666  1.0000 0.1202171086
H   H342      1.0  0.81732  0.79262  0.96334  1.0000 0.1202171086
H   H343      1.0  0.18268  0.29262  0.53666  1.0000 0.1202171086
H   H344      1.0  0.68268  0.20738  0.46334  1.0000 0.1202171086
H   H345      1.0  0.03666  0.31732  0.70738  1.0000 0.1202171086
H   H346      1.0  0.96334  0.81732  0.79262  1.0000 0.1202171086
H   H347      1.0  0.53666  0.18268  0.29262  1.0000 0.1202171086
H   H348      1.0  0.46334  0.68268  0.20738  1.0000 0.1202171086
H   H349      1.0  0.29262  0.96334  0.68268  1.0000 0.1202171086
H   H350      1.0  0.20738  0.03666  0.18268  1.0000 0.1202171086
H   H351      1.0  0.70738  0.46334  0.81732  1.0000 0.1202171086
H   H352      1.0  0.79262  0.53666  0.31732  1.0000 0.1202171086
H   H353      1.0  0.68268  0.29262  0.96334  1.0000 0.1202171086
H   H354      1.0  0.18268  0.20738  0.03666  1.0000 0.1202171086
H   H355      1.0  0.81732  0.70738  0.46334  1.0000 0.1202171086
H   H356      1.0  0.31732  0.79262  0.53666  1.0000 0.1202171086
H   H357      1.0  0.96334  0.68268  0.29262  1.0000 0.1202171086
H   H358      1.0  0.03666  0.18268  0.20738  1.0000 0.1202171086
H   H359      1.0  0.46334  0.81732  0.70738  1.0000 0.1202171086
H   H360      1.0  0.53666  0.31732  0.79262  1.0000 0.1202171086
H   H361      1.0  0.75773  0.06607  0.23906  1.0000 0.1110837519
H   H362      1.0  0.74227  0.93393  0.73906  1.0000 0.1110837519
H   H363      1.0  0.24227  0.56607  0.26094  1.0000 0.1110837519
H   H364      1.0  0.25773  0.43393  0.76094  1.0000 0.1110837519
H   H365      1.0  0.23906  0.75773  0.06607  1.0000 0.1110837519
H   H366      1.0  0.73906  0.74227  0.93393  1.0000 0.1110837519
H   H367      1.0  0.26094  0.24227  0.56607  1.0000 0.1110837519
H   H368      1.0  0.76094  0.25773  0.43393  1.0000 0.1110837519
H   H369      1.0  0.06607  0.23906  0.75773  1.0000 0.1110837519
H   H370      1.0  0.93393  0.73906  0.74227  1.0000 0.1110837519
H   H371      1.0  0.56607  0.26094  0.24227  1.0000 0.1110837519
H   H372      1.0  0.43393  0.76094  0.25773  1.0000 0.1110837519
H   H373      1.0  0.24227  0.93393  0.76094  1.0000 0.1110837519
H   H374      1.0  0.25773  0.06607  0.26094  1.0000 0.1110837519
H   H375      1.0  0.75773  0.43393  0.73906  1.0000 0.1110837519
H   H376      1.0  0.74227  0.56607  0.23906  1.0000 0.1110837519
H   H377      1.0  0.76094  0.24227  0.93393  1.0000 0.1110837519
H   H378      1.0  0.26094  0.25773  0.06607  1.0000 0.1110837519
H   H379      1.0  0.73906  0.75773  0.43393  1.0000 0.1110837519
H   H380      1.0  0.23906  0.74227  0.56607  1.0000 0.1110837519
H   H381      1.0  0.93393  0.76094  0.24227  1.0000 0.1110837519
H   H382      1.0  0.06607  0.26094  0.25773  1.0000 0.1110837519
H   H383      1.0  0.43393  0.73906  0.75773  1.0000 0.1110837519
H   H384      1.0  0.56607  0.23906  0.74227  1.0000 0.1110837519
H   H385      1.0  0.74406  0.04427  0.27911  1.0000 0.1110837519
H   H386      1.0  0.75594  0.95573  0.77911  1.0000 0.1110837519
H   H387      1.0  0.25594  0.54427  0.22089  1.0000 0.1110837519
H   H388      1.0  0.24406  0.45573  0.72089  1.0000 0.1110837519
H   H389      1.0  0.27911  0.74406  0.04427  1.0000 0.1110837519
H   H390      1.0  0.77911  0.75594  0.95573  1.0000 0.1110837519
H   H391      1.0  0.22089  0.25594  0.54427  1.0000 0.1110837519
H   H392      1.0  0.72089  0.24406  0.45573  1.0000 0.1110837519
H   H393      1.0  0.04427  0.27911  0.74406  1.0000 0.1110837519
H   H394      1.0  0.95573  0.77911  0.75594  1.0000 0.1110837519
H   H395      1.0  0.54427  0.22089  0.25594  1.0000 0.1110837519
H   H396      1.0  0.45573  0.72089  0.24406  1.0000 0.1110837519
H   H397      1.0  0.25594  0.95573  0.72089  1.0000 0.1110837519
H   H398      1.0  0.24406  0.04427  0.22089  1.0000 0.1110837519
H   H399      1.0  0.74406  0.45573  0.77911  1.0000 0.1110837519
H   H400      1.0  0.75594  0.54427  0.27911  1.0000 0.1110837519
H   H401      1.0  0.72089  0.25594  0.95573  1.0000 0.1110837519
H   H402      1.0  0.22089  0.24406  0.04427  1.0000 0.1110837519
H   H403      1.0  0.77911  0.74406  0.45573  1.0000 0.1110837519
H   H404      1.0  0.27911  0.75594  0.54427  1.0000 0.1110837519
H   H405      1.0  0.95573  0.72089  0.25594  1.0000 0.1110837519
H   H406      1.0  0.04427  0.22089  0.24406  1.0000 0.1110837519
H   H407      1.0  0.45573  0.77911  0.74406  1.0000 0.1110837519
H   H408      1.0  0.54427  0.27911  0.75594  1.0000 0.1110837519
H   H409      1.0  0.73266  0.98224  0.20023  1.0000 0.0927623794
H   H410      1.0  0.76734  0.01776  0.70023  1.0000 0.0927623794
H   H411      1.0  0.26734  0.48224  0.29977  1.0000 0.0927623794
H   H412      1.0  0.23266  0.51776  0.79977  1.0000 0.0927623794
H   H413      1.0  0.20023  0.73266  0.98224  1.0000 0.0927623794
H   H414      1.0  0.70023  0.76734  0.01776  1.0000 0.0927623794
H   H415      1.0  0.29977  0.26734  0.48224  1.0000 0.0927623794
H   H416      1.0  0.79977  0.23266  0.51776  1.0000 0.0927623794
H   H417      1.0  0.98224  0.20023  0.73266  1.0000 0.0927623794
H   H418      1.0  0.01776  0.70023  0.76734  1.0000 0.0927623794
H   H419      1.0  0.48224  0.29977  0.26734  1.0000 0.0927623794
H   H420      1.0  0.51776  0.79977  0.23266  1.0000 0.0927623794
H   H421      1.0  0.26734  0.01776  0.79977  1.0000 0.0927623794
H   H422      1.0  0.23266  0.98224  0.29977  1.0000 0.0927623794
H   H423      1.0  0.73266  0.51776  0.70023  1.0000 0.0927623794
H   H424      1.0  0.76734  0.48224  0.20023  1.0000 0.0927623794
H   H425      1.0  0.79977  0.26734  0.01776  1.0000 0.0927623794
H   H426      1.0  0.29977  0.23266  0.98224  1.0000 0.0927623794
H   H427      1.0  0.70023  0.73266  0.51776  1.0000 0.0927623794
H   H428      1.0  0.20023  0.76734  0.48224  1.0000 0.0927623794
H   H429      1.0  0.01776  0.79977  0.26734  1.0000 0.0927623794
H   H430      1.0  0.98224  0.29977  0.23266  1.0000 0.0927623794
H   H431      1.0  0.51776  0.70023  0.73266  1.0000 0.0927623794
H   H432      1.0  0.48224  0.20023  0.76734  1.0000 0.0927623794
H   H433      1.0  0.77185  0.98940  0.16138  1.0000 0.1110837519
H   H434      1.0  0.72815  0.01060  0.66138  1.0000 0.1110837519
H   H435      1.0  0.22815  0.48940  0.33862  1.0000 0.1110837519
H   H436      1.0  0.27185  0.51060  0.83862  1.0000 0.1110837519
H   H437      1.0  0.16138  0.77185  0.98940  1.0000 0.1110837519
H   H438      1.0  0.66138  0.72815  0.01060  1.0000 0.1110837519
H   H439      1.0  0.33862  0.22815  0.48940  1.0000 0.1110837519
H   H440      1.0  0.83862  0.27185  0.51060  1.0000 0.1110837519
H   H441      1.0  0.98940  0.16138  0.77185  1.0000 0.1110837519
H   H442      1.0  0.01060  0.66138  0.72815  1.0000 0.1110837519
H   H443      1.0  0.48940  0.33862  0.22815  1.0000 0.1110837519
H   H444      1.0  0.51060  0.83862  0.27185  1.0000 0.1110837519
H   H445      1.0  0.22815  0.01060  0.83862  1.0000 0.1110837519
H   H446      1.0  0.27185  0.98940  0.33862  1.0000 0.1110837519
H   H447      1.0  0.77185  0.51060  0.66138  1.0000 0.1110837519
H   H448      1.0  0.72815  0.48940  0.16138  1.0000 0.1110837519
H   H449      1.0  0.83862  0.22815  0.01060  1.0000 0.1110837519
H   H450      1.0  0.33862  0.27185  0.98940  1.0000 0.1110837519
H   H451      1.0  0.66138  0.77185  0.51060  1.0000 0.1110837519
H   H452      1.0  0.16138  0.72815  0.48940  1.0000 0.1110837519
H   H453      1.0  0.01060  0.83862  0.22815  1.0000 0.1110837519
H   H454      1.0  0.98940  0.33862  0.27185  1.0000 0.1110837519
H   H455      1.0  0.51060  0.66138  0.77185  1.0000 0.1110837519
H   H456      1.0  0.48940  0.16138  0.72815  1.0000 0.1110837519
H   H457      1.0  0.69207  0.99235  0.21774  1.0000 0.0927623794
H   H458      1.0  0.80793  0.00765  0.71774  1.0000 0.0927623794
H   H459      1.0  0.30793  0.49235  0.28226  1.0000 0.0927623794
H   H460      1.0  0.19207  0.50765  0.78226  1.0000 0.0927623794
H   H461      1.0  0.21774  0.69207  0.99235  1.0000 0.0927623794
H   H462      1.0  0.71774  0.80793  0.00765  1.0000 0.0927623794
H   H463      1.0  0.28226  0.30793  0.49235  1.0000 0.0927623794
H   H464      1.0  0.78226  0.19207  0.50765  1.0000 0.0927623794
H   H465      1.0  0.99235  0.21774  0.69207  1.0000 0.0927623794
H   H466      1.0  0.00765  0.71774  0.80793  1.0000 0.0927623794
H   H467      1.0  0.49235  0.28226  0.30793  1.0000 0.0927623794
H   H468      1.0  0.50765  0.78226  0.19207  1.0000 0.0927623794
H   H469      1.0  0.30793  0.00765  0.78226  1.0000 0.0927623794
H   H470      1.0  0.19207  0.99235  0.28226  1.0000 0.0927623794
H   H471      1.0  0.69207  0.50765  0.71774  1.0000 0.0927623794
H   H472      1.0  0.80793  0.49235  0.21774  1.0000 0.0927623794
H   H473      1.0  0.78226  0.30793  0.00765  1.0000 0.0927623794
H   H474      1.0  0.28226  0.19207  0.99235  1.0000 0.0927623794
H   H475      1.0  0.71774  0.69207  0.50765  1.0000 0.0927623794
H   H476      1.0  0.21774  0.80793  0.49235  1.0000 0.0927623794
H   H477      1.0  0.00765  0.78226  0.30793  1.0000 0.0927623794
H   H478      1.0  0.99235  0.28226  0.19207  1.0000 0.0927623794
H   H479      1.0  0.50765  0.71774  0.69207  1.0000 0.0927623794
H   H480      1.0  0.49235  0.21774  0.80793  1.0000 0.0927623794
C   C1        1.0  0.69571  0.00208  0.24050  1.0000 -0.1003485589
C   C2        1.0  0.80429  0.99792  0.74050  1.0000 -0.1003485589
C   C3        1.0  0.30429  0.50208  0.25950  1.0000 -0.1003485589
C   C4        1.0  0.19571  0.49792  0.75950  1.0000 -0.1003485589
C   C5        1.0  0.24050  0.69571  0.00208  1.0000 -0.1003485589
C   C6        1.0  0.74050  0.80429  0.99792  1.0000 -0.1003485589
C   C7        1.0  0.25950  0.30429  0.50208  1.0000 -0.1003485589
C   C8        1.0  0.75950  0.19571  0.49792  1.0000 -0.1003485589
C   C9        1.0  0.00208  0.24050  0.69571  1.0000 -0.1003485589
C   C10       1.0  0.99792  0.74050  0.80429  1.0000 -0.1003485589
C   C11       1.0  0.50208  0.25950  0.30429  1.0000 -0.1003485589
C   C12       1.0  0.49792  0.75950  0.19571  1.0000 -0.1003485589
C   C13       1.0  0.30429  0.99792  0.75950  1.0000 -0.1003485589
C   C14       1.0  0.19571  0.00208  0.25950  1.0000 -0.1003485589
C   C15       1.0  0.69571  0.49792  0.74050  1.0000 -0.1003485589
C   C16       1.0  0.80429  0.50208  0.24050  1.0000 -0.1003485589
C   C17       1.0  0.75950  0.30429  0.99792  1.0000 -0.1003485589
C   C18       1.0  0.25950  0.19571  0.00208  1.0000 -0.1003485589
C   C19       1.0  0.74050  0.69571  0.49792  1.0000 -0.1003485589
C   C20       1.0  0.24050  0.80429  0.50208  1.0000 -0.1003485589
C   C21       1.0  0.99792  0.75950  0.30429  1.0000 -0.1003485589
C   C22       1.0  0.00208  0.25950  0.19571  1.0000 -0.1003485589
C   C23       1.0  0.49792  0.74050  0.69571  1.0000 -0.1003485589
C   C24       1.0  0.50208  0.24050  0.80429  1.0000 -0.1003485589
C   C25       1.0  0.67520  0.99711  0.26276  1.0000 -0.181021762
C   C26       1.0  0.82480  0.00289  0.76276  1.0000 -0.181021762
C   C27       1.0  0.32480  0.49711  0.23724  1.0000 -0.181021762
C   C28       1.0  0.17520  0.50289  0.73724  1.0000 -0.181021762
C   C29       1.0  0.26276  0.67520  0.99711  1.0000 -0.181021762
C   C30       1.0  0.76276  0.82480  0.00289  1.0000 -0.181021762
C   C31       1.0  0.23724  0.32480  0.49711  1.0000 -0.181021762
C   C32       1.0  0.73724  0.17520  0.50289  1.0000 -0.181021762
C   C33       1.0  0.99711  0.26276  0.67520  1.0000 -0.181021762
C   C34       1.0  0.00289  0.76276  0.82480  1.0000 -0.181021762
C   C35       1.0  0.49711  0.23724  0.32480  1.0000 -0.181021762
C   C36       1.0  0.50289  0.73724  0.17520  1.0000 -0.181021762
C   C37       1.0  0.32480  0.00289  0.73724  1.0000 -0.181021762
C   C38       1.0  0.17520  0.99711  0.23724  1.0000 -0.181021762
C   C39       1.0  0.67520  0.50289  0.76276  1.0000 -0.181021762
C   C40       1.0  0.82480  0.49711  0.26276  1.0000 -0.181021762
C   C41       1.0  0.73724  0.32480  0.00289  1.0000 -0.181021762
C   C42       1.0  0.23724  0.17520  0.99711  1.0000 -0.181021762
C   C43       1.0  0.76276  0.67520  0.50289  1.0000 -0.181021762
C   C44       1.0  0.26276  0.82480  0.49711  1.0000 -0.181021762
C   C45       1.0  0.00289  0.73724  0.32480  1.0000 -0.181021762
C   C46       1.0  0.99711  0.23724  0.17520  1.0000 -0.181021762
C   C47       1.0  0.50289  0.76276  0.67520  1.0000 -0.181021762
C   C48       1.0  0.49711  0.26276  0.82480  1.0000 -0.181021762
C   C49       1.0  0.78642  0.02394  0.08348  1.0000 -0.0694066996
C   C50       1.0  0.71358  0.97606  0.58348  1.0000 -0.0694066996
C   C51       1.0  0.21358  0.52394  0.41652  1.0000 -0.0694066996
C   C52       1.0  0.28642  0.47606  0.91652  1.0000 -0.0694066996
C   C53       1.0  0.08348  0.78642  0.02394  1.0000 -0.0694066996
C   C54       1.0  0.58348  0.71358  0.97606  1.0000 -0.0694066996
C   C55       1.0  0.41652  0.21358  0.52394  1.0000 -0.0694066996
C   C56       1.0  0.91652  0.28642  0.47606  1.0000 -0.0694066996
C   C57       1.0  0.02394  0.08348  0.78642  1.0000 -0.0694066996
C   C58       1.0  0.97606  0.58348  0.71358  1.0000 -0.0694066996
C   C59       1.0  0.52394  0.41652  0.21358  1.0000 -0.0694066996
C   C60       1.0  0.47606  0.91652  0.28642  1.0000 -0.0694066996
C   C61       1.0  0.21358  0.97606  0.91652  1.0000 -0.0694066996
C   C62       1.0  0.28642  0.02394  0.41652  1.0000 -0.0694066996
C   C63       1.0  0.78642  0.47606  0.58348  1.0000 -0.0694066996
C   C64       1.0  0.71358  0.52394  0.08348  1.0000 -0.0694066996
C   C65       1.0  0.91652  0.21358  0.97606  1.0000 -0.0694066996
C   C66       1.0  0.41652  0.28642  0.02394  1.0000 -0.0694066996
C   C67       1.0  0.58348  0.78642  0.47606  1.0000 -0.0694066996
C   C68       1.0  0.08348  0.71358  0.52394  1.0000 -0.0694066996
C   C69       1.0  0.97606  0.91652  0.21358  1.0000 -0.0694066996
C   C70       1.0  0.02394  0.41652  0.28642  1.0000 -0.0694066996
C   C71       1.0  0.47606  0.58348  0.78642  1.0000 -0.0694066996
C   C72       1.0  0.52394  0.08348  0.71358  1.0000 -0.0694066996
C   C73       1.0  0.69238  0.98425  0.38428  1.0000 -0.0694066996
C   C74       1.0  0.80762  0.01575  0.88428  1.0000 -0.0694066996
C   C75       1.0  0.30762  0.48425  0.11572  1.0000 -0.0694066996
C   C76       1.0  0.19238  0.51575  0.61572  1.0000 -0.0694066996
C   C77       1.0  0.38428  0.69238  0.98425  1.0000 -0.0694066996
C   C78       1.0  0.88428  0.80762  0.01575  1.0000 -0.0694066996
C   C79       1.0  0.11572  0.30762  0.48425  1.0000 -0.0694066996
C   C80       1.0  0.61572  0.19238  0.51575  1.0000 -0.0694066996
C   C81       1.0  0.98425  0.38428  0.69238  1.0000 -0.0694066996
C   C82       1.0  0.01575  0.88428  0.80762  1.0000 -0.0694066996
C   C83       1.0  0.48425  0.11572  0.30762  1.0000 -0.0694066996
C   C84       1.0  0.51575  0.61572  0.19238  1.0000 -0.0694066996
C   C85       1.0  0.30762  0.01575  0.61572  1.0000 -0.0694066996
C   C86       1.0  0.19238  0.98425  0.11572  1.0000 -0.0694066996
C   C87       1.0  0.69238  0.51575  0.88428  1.0000 -0.0694066996
C   C88       1.0  0.80762  0.48425  0.38428  1.0000 -0.0694066996
C   C89       1.0  0.61572  0.30762  0.01575  1.0000 -0.0694066996
C   C90       1.0  0.11572  0.19238  0.98425  1.0000 -0.0694066996
C   C91       1.0  0.88428  0.69238  0.51575  1.0000 -0.0694066996
C   C92       1.0  0.38428  0.80762  0.48425  1.0000 -0.0694066996
C   C93       1.0  0.01575  0.61572  0.30762  1.0000 -0.0694066996
C   C94       1.0  0.98425  0.11572  0.19238  1.0000 -0.0694066996
C   C95       1.0  0.51575  0.88428  0.69238  1.0000 -0.0694066996
C   C96       1.0  0.48425  0.38428  0.80762  1.0000 -0.0694066996
C   C97       1.0  0.78356  0.02999  0.11353  1.0000 -0.19225251
C   C98       1.0  0.71644  0.97001  0.61353  1.0000 -0.19225251
C   C99       1.0  0.21644  0.52999  0.38647  1.0000 -0.19225251
C   C100      1.0  0.28356  0.47001  0.88647  1.0000 -0.19225251
C   C101      1.0  0.11353  0.78356  0.02999  1.0000 -0.19225251
C   C102      1.0  0.61353  0.71644  0.97001  1.0000 -0.19225251
C   C103      1.0  0.38647  0.21644  0.52999  1.0000 -0.19225251
C   C104      1.0  0.88647  0.28356  0.47001  1.0000 -0.19225251
C   C105      1.0  0.02999  0.11353  0.78356  1.0000 -0.19225251
C   C106      1.0  0.97001  0.61353  0.71644  1.0000 -0.19225251
C   C107      1.0  0.52999  0.38647  0.21644  1.0000 -0.19225251
C   C108      1.0  0.47001  0.88647  0.28356  1.0000 -0.19225251
C   C109      1.0  0.21644  0.97001  0.88647  1.0000 -0.19225251
C   C110      1.0  0.28356  0.02999  0.38647  1.0000 -0.19225251
C   C111      1.0  0.78356  0.47001  0.61353  1.0000 -0.19225251
C   C112      1.0  0.71644  0.52999  0.11353  1.0000 -0.19225251
C   C113      1.0  0.88647  0.21644  0.97001  1.0000 -0.19225251
C   C114      1.0  0.38647  0.28356  0.02999  1.0000 -0.19225251
C   C115      1.0  0.61353  0.78356  0.47001  1.0000 -0.19225251
C   C116      1.0  0.11353  0.71644  0.52999  1.0000 -0.19225251
C   C117      1.0  0.97001  0.88647  0.21644  1.0000 -0.19225251
C   C118      1.0  0.02999  0.38647  0.28356  1.0000 -0.19225251
C   C119      1.0  0.47001  0.61353  0.78356  1.0000 -0.19225251
C   C120      1.0  0.52999  0.11353  0.71644  1.0000 -0.19225251
C   C121      1.0  0.69148  0.99021  0.35409  1.0000 -0.19225251
C   C122      1.0  0.80852  0.00979  0.85409  1.0000 -0.19225251
C   C123      1.0  0.30852  0.49021  0.14591  1.0000 -0.19225251
C   C124      1.0  0.19148  0.50979  0.64591  1.0000 -0.19225251
C   C125      1.0  0.35409  0.69148  0.99021  1.0000 -0.19225251
C   C126      1.0  0.85409  0.80852  0.00979  1.0000 -0.19225251
C   C127      1.0  0.14591  0.30852  0.49021  1.0000 -0.19225251
C   C128      1.0  0.64591  0.19148  0.50979  1.0000 -0.19225251
C   C129      1.0  0.99021  0.35409  0.69148  1.0000 -0.19225251
C   C130      1.0  0.00979  0.85409  0.80852  1.0000 -0.19225251
C   C131      1.0  0.49021  0.14591  0.30852  1.0000 -0.19225251
C   C132      1.0  0.50979  0.64591  0.19148  1.0000 -0.19225251
C   C133      1.0  0.30852  0.00979  0.64591  1.0000 -0.19225251
C   C134      1.0  0.19148  0.99021  0.14591  1.0000 -0.19225251
C   C135      1.0  0.69148  0.50979  0.85409  1.0000 -0.19225251
C   C136      1.0  0.80852  0.49021  0.35409  1.0000 -0.19225251
C   C137      1.0  0.64591  0.30852  0.00979  1.0000 -0.19225251
C   C138      1.0  0.14591  0.19148  0.99021  1.0000 -0.19225251
C   C139      1.0  0.85409  0.69148  0.50979  1.0000 -0.19225251
C   C140      1.0  0.35409  0.80852  0.49021  1.0000 -0.19225251
C   C141      1.0  0.00979  0.64591  0.30852  1.0000 -0.19225251
C   C142      1.0  0.99021  0.14591  0.19148  1.0000 -0.19225251
C   C143      1.0  0.50979  0.85409  0.69148  1.0000 -0.19225251
C   C144      1.0  0.49021  0.35409  0.80852  1.0000 -0.19225251
C   C145      1.0  0.80858  0.02823  0.13099  1.0000 0.1202171086
C   C146      1.0  0.69142  0.97177  0.63099  1.0000 0.1202171086
C   C147      1.0  0.19142  0.52823  0.36901  1.0000 0.1202171086
C   C148      1.0  0.30858  0.47177  0.86901  1.0000 0.1202171086
C   C149      1.0  0.13099  0.80858  0.02823  1.0000 0.1202171086
C   C150      1.0  0.63099  0.69142  0.97177  1.0000 0.1202171086
C   C151      1.0  0.36901  0.19142  0.52823  1.0000 0.1202171086
C   C152      1.0  0.86901  0.30858  0.47177  1.0000 0.1202171086
C   C153      1.0  0.02823  0.13099  0.80858  1.0000 0.1202171086
C   C154      1.0  0.97177  0.63099  0.69142  1.0000 0.1202171086
C   C155      1.0  0.52823  0.36901  0.19142  1.0000 0.1202171086
C   C156      1.0  0.47177  0.86901  0.30858  1.0000 0.1202171086
C   C157      1.0  0.19142  0.97177  0.86901  1.0000 0.1202171086
C   C158      1.0  0.30858  0.02823  0.36901  1.0000 0.1202171086
C   C159      1.0  0.80858  0.47177  0.63099  1.0000 0.1202171086
C   C160      1.0  0.69142  0.52823  0.13099  1.0000 0.1202171086
C   C161      1.0  0.86901  0.19142  0.97177  1.0000 0.1202171086
C   C162      1.0  0.36901  0.30858  0.02823  1.0000 0.1202171086
C   C163      1.0  0.63099  0.80858  0.47177  1.0000 0.1202171086
C   C164      1.0  0.13099  0.69142  0.52823  1.0000 0.1202171086
C   C165      1.0  0.97177  0.86901  0.19142  1.0000 0.1202171086
C   C166      1.0  0.02823  0.36901  0.30858  1.0000 0.1202171086
C   C167      1.0  0.47177  0.63099  0.80858  1.0000 0.1202171086
C   C168      1.0  0.52823  0.13099  0.69142  1.0000 0.1202171086
C   C169      1.0  0.66439  0.99679  0.34144  1.0000 0.1202171086
C   C170      1.0  0.83561  0.00321  0.84144  1.0000 0.1202171086
C   C171      1.0  0.33561  0.49679  0.15856  1.0000 0.1202171086
C   C172      1.0  0.16439  0.50321  0.65856  1.0000 0.1202171086
C   C173      1.0  0.34144  0.66439  0.99679  1.0000 0.1202171086
C   C174      1.0  0.84144  0.83561  0.00321  1.0000 0.1202171086
C   C175      1.0  0.15856  0.33561  0.49679  1.0000 0.1202171086
C   C176      1.0  0.65856  0.16439  0.50321  1.0000 0.1202171086
C   C177      1.0  0.99679  0.34144  0.66439  1.0000 0.1202171086
C   C178      1.0  0.00321  0.84144  0.83561  1.0000 0.1202171086
C   C179      1.0  0.49679  0.15856  0.33561  1.0000 0.1202171086
C   C180      1.0  0.50321  0.65856  0.16439  1.0000 0.1202171086
C   C181      1.0  0.33561  0.00321  0.65856  1.0000 0.1202171086
C   C182      1.0  0.16439  0.99679  0.15856  1.0000 0.1202171086
C   C183      1.0  0.66439  0.50321  0.84144  1.0000 0.1202171086
C   C184      1.0  0.83561  0.49679  0.34144  1.0000 0.1202171086
C   C185      1.0  0.65856  0.33561  0.00321  1.0000 0.1202171086
C   C186      1.0  0.15856  0.16439  0.99679  1.0000 0.1202171086
C   C187      1.0  0.84144  0.66439  0.50321  1.0000 0.1202171086
C   C188      1.0  0.34144  0.83561  0.49679  1.0000 0.1202171086
C   C189      1.0  0.00321  0.65856  0.33561  1.0000 0.1202171086
C   C190      1.0  0.99679  0.15856  0.16439  1.0000 0.1202171086
C   C191      1.0  0.50321  0.84144  0.66439  1.0000 0.1202171086
C   C192      1.0  0.49679  0.34144  0.83561  1.0000 0.1202171086
C   C193      1.0  0.83548  0.02075  0.11925  1.0000 -0.0233177482
C   C194      1.0  0.66452  0.97925  0.61925  1.0000 -0.0233177482
C   C195      1.0  0.16452  0.52075  0.38075  1.0000 -0.0233177482
C   C196      1.0  0.33548  0.47925  0.88075  1.0000 -0.0233177482
C   C197      1.0  0.11925  0.83548  0.02075  1.0000 -0.0233177482
C   C198      1.0  0.61925  0.66452  0.97925  1.0000 -0.0233177482
C   C199      1.0  0.38075  0.16452  0.52075  1.0000 -0.0233177482
C   C200      1.0  0.88075  0.33548  0.47925  1.0000 -0.0233177482
C   C201      1.0  0.02075  0.11925  0.83548  1.0000 -0.0233177482
C   C202      1.0  0.97925  0.61925  0.66452  1.0000 -0.0233177482
C   C203      1.0  0.52075  0.38075  0.16452  1.0000 -0.0233177482
C   C204      1.0  0.47925  0.88075  0.33548  1.0000 -0.0233177482
C   C205      1.0  0.16452  0.97925  0.88075  1.0000 -0.0233177482
C   C206      1.0  0.33548  0.02075  0.38075  1.0000 -0.0233177482
C   C207      1.0  0.83548  0.47925  0.61925  1.0000 -0.0233177482
C   C208      1.0  0.66452  0.52075  0.11925  1.0000 -0.0233177482
C   C209      1.0  0.88075  0.16452  0.97925  1.0000 -0.0233177482
C   C210      1.0  0.38075  0.33548  0.02075  1.0000 -0.0233177482
C   C211      1.0  0.61925  0.83548  0.47925  1.0000 -0.0233177482
C   C212      1.0  0.11925  0.66452  0.52075  1.0000 -0.0233177482
C   C213      1.0  0.97925  0.88075  0.16452  1.0000 -0.0233177482
C   C214      1.0  0.02075  0.38075  0.33548  1.0000 -0.0233177482
C   C215      1.0  0.47925  0.61925  0.83548  1.0000 -0.0233177482
C   C216      1.0  0.52075  0.11925  0.66452  1.0000 -0.0233177482
C   C217      1.0  0.63900  0.99632  0.35789  1.0000 -0.0233177482
C   C218      1.0  0.86100  0.00368  0.85789  1.0000 -0.0233177482
C   C219      1.0  0.36100  0.49632  0.14211  1.0000 -0.0233177482
C   C220      1.0  0.13900  0.50368  0.64211  1.0000 -0.0233177482
C   C221      1.0  0.35789  0.63900  0.99632  1.0000 -0.0233177482
C   C222      1.0  0.85789  0.86100  0.00368  1.0000 -0.0233177482
C   C223      1.0  0.14211  0.36100  0.49632  1.0000 -0.0233177482
C   C224      1.0  0.64211  0.13900  0.50368  1.0000 -0.0233177482
C   C225      1.0  0.99632  0.35789  0.63900  1.0000 -0.0233177482
C   C226      1.0  0.00368  0.85789  0.86100  1.0000 -0.0233177482
C   C227      1.0  0.49632  0.14211  0.36100  1.0000 -0.0233177482
C   C228      1.0  0.50368  0.64211  0.13900  1.0000 -0.0233177482
C   C229      1.0  0.36100  0.00368  0.64211  1.0000 -0.0233177482
C   C230      1.0  0.13900  0.99632  0.14211  1.0000 -0.0233177482
C   C231      1.0  0.63900  0.50368  0.85789  1.0000 -0.0233177482
C   C232      1.0  0.86100  0.49632  0.35789  1.0000 -0.0233177482
C   C233      1.0  0.64211  0.36100  0.00368  1.0000 -0.0233177482
C   C234      1.0  0.14211  0.13900  0.99632  1.0000 -0.0233177482
C   C235      1.0  0.85789  0.63900  0.50368  1.0000 -0.0233177482
C   C236      1.0  0.35789  0.86100  0.49632  1.0000 -0.0233177482
C   C237      1.0  0.00368  0.64211  0.36100  1.0000 -0.0233177482
C   C238      1.0  0.99632  0.14211  0.13900  1.0000 -0.0233177482
C   C239      1.0  0.50368  0.85789  0.63900  1.0000 -0.0233177482
C   C240      1.0  0.49632  0.35789  0.86100  1.0000 -0.0233177482
C   C241      1.0  0.83897  0.01428  0.08955  1.0000 -0.1097468374
C   C242      1.0  0.66103  0.98572  0.58955  1.0000 -0.1097468374
C   C243      1.0  0.16103  0.51428  0.41045  1.0000 -0.1097468374
C   C244      1.0  0.33897  0.48572  0.91045  1.0000 -0.1097468374
C   C245      1.0  0.08955  0.83897  0.01428  1.0000 -0.1097468374
C   C246      1.0  0.58955  0.66103  0.98572  1.0000 -0.1097468374
C   C247      1.0  0.41045  0.16103  0.51428  1.0000 -0.1097468374
C   C248      1.0  0.91045  0.33897  0.48572  1.0000 -0.1097468374
C   C249      1.0  0.01428  0.08955  0.83897  1.0000 -0.1097468374
C   C250      1.0  0.98572  0.58955  0.66103  1.0000 -0.1097468374
C   C251      1.0  0.51428  0.41045  0.16103  1.0000 -0.1097468374
C   C252      1.0  0.48572  0.91045  0.33897  1.0000 -0.1097468374
C   C253      1.0  0.16103  0.98572  0.91045  1.0000 -0.1097468374
C   C254      1.0  0.33897  0.01428  0.41045  1.0000 -0.1097468374
C   C255      1.0  0.83897  0.48572  0.58955  1.0000 -0.1097468374
C   C256      1.0  0.66103  0.51428  0.08955  1.0000 -0.1097468374
C   C257      1.0  0.91045  0.16103  0.98572  1.0000 -0.1097468374
C   C258      1.0  0.41045  0.33897  0.01428  1.0000 -0.1097468374
C   C259      1.0  0.58955  0.83897  0.48572  1.0000 -0.1097468374
C   C260      1.0  0.08955  0.66103  0.51428  1.0000 -0.1097468374
C   C261      1.0  0.98572  0.91045  0.16103  1.0000 -0.1097468374
C   C262      1.0  0.01428  0.41045  0.33897  1.0000 -0.1097468374
C   C263      1.0  0.48572  0.58955  0.83897  1.0000 -0.1097468374
C   C264      1.0  0.51428  0.08955  0.66103  1.0000 -0.1097468374
C   C265      1.0  0.63915  0.99058  0.38793  1.0000 -0.1200954576
C   C266      1.0  0.86085  0.00942  0.88793  1.0000 -0.1200954576
C   C267      1.0  0.36085  0.49058  0.11207  1.0000 -0.1200954576
C   C268      1.0  0.13915  0.50942  0.61207  1.0000 -0.1200954576
C   C269      1.0  0.38793  0.63915  0.99058  1.0000 -0.1200954576
C   C270      1.0  0.88793  0.86085  0.00942  1.0000 -0.1200954576
C   C271      1.0  0.11207  0.36085  0.49058  1.0000 -0.1200954576
C   C272      1.0  0.61207  0.13915  0.50942  1.0000 -0.1200954576
C   C273      1.0  0.99058  0.38793  0.63915  1.0000 -0.1200954576
C   C274      1.0  0.00942  0.88793  0.86085  1.0000 -0.1200954576
C   C275      1.0  0.49058  0.11207  0.36085  1.0000 -0.1200954576
C   C276      1.0  0.50942  0.61207  0.13915  1.0000 -0.1200954576
C   C277      1.0  0.36085  0.00942  0.61207  1.0000 -0.1200954576
C   C278      1.0  0.13915  0.99058  0.11207  1.0000 -0.1200954576
C   C279      1.0  0.63915  0.50942  0.88793  1.0000 -0.1200954576
C   C280      1.0  0.86085  0.49058  0.38793  1.0000 -0.1200954576
C   C281      1.0  0.61207  0.36085  0.00942  1.0000 -0.1200954576
C   C282      1.0  0.11207  0.13915  0.99058  1.0000 -0.1200954576
C   C283      1.0  0.88793  0.63915  0.50942  1.0000 -0.1200954576
C   C284      1.0  0.38793  0.86085  0.49058  1.0000 -0.1200954576
C   C285      1.0  0.00942  0.61207  0.36085  1.0000 -0.1200954576
C   C286      1.0  0.99058  0.11207  0.13915  1.0000 -0.1200954576
C   C287      1.0  0.50942  0.88793  0.63915  1.0000 -0.1200954576
C   C288      1.0  0.49058  0.38793  0.86085  1.0000 -0.1200954576
C   C289      1.0  0.81397  0.01598  0.07121  1.0000 -0.0694066996
C   C290      1.0  0.68603  0.98402  0.57121  1.0000 -0.0694066996
C   C291      1.0  0.18603  0.51598  0.42879  1.0000 -0.0694066996
C   C292      1.0  0.31397  0.48402  0.92879  1.0000 -0.0694066996
C   C293      1.0  0.07121  0.81397  0.01598  1.0000 -0.0694066996
C   C294      1.0  0.57121  0.68603  0.98402  1.0000 -0.0694066996
C   C295      1.0  0.42879  0.18603  0.51598  1.0000 -0.0694066996
C   C296      1.0  0.92879  0.31397  0.48402  1.0000 -0.0694066996
C   C297      1.0  0.01598  0.07121  0.81397  1.0000 -0.0694066996
C   C298      1.0  0.98402  0.57121  0.68603  1.0000 -0.0694066996
C   C299      1.0  0.51598  0.42879  0.18603  1.0000 -0.0694066996
C   C300      1.0  0.48402  0.92879  0.31397  1.0000 -0.0694066996
C   C301      1.0  0.18603  0.98402  0.92879  1.0000 -0.0694066996
C   C302      1.0  0.31397  0.01598  0.42879  1.0000 -0.0694066996
C   C303      1.0  0.81397  0.48402  0.57121  1.0000 -0.0694066996
C   C304      1.0  0.68603  0.51598  0.07121  1.0000 -0.0694066996
C   C305      1.0  0.92879  0.18603  0.98402  1.0000 -0.0694066996
C   C306      1.0  0.42879  0.31397  0.01598  1.0000 -0.0694066996
C   C307      1.0  0.57121  0.81397  0.48402  1.0000 -0.0694066996
C   C308      1.0  0.07121  0.68603  0.51598  1.0000 -0.0694066996
C   C309      1.0  0.98402  0.92879  0.18603  1.0000 -0.0694066996
C   C310      1.0  0.01598  0.42879  0.31397  1.0000 -0.0694066996
C   C311      1.0  0.48402  0.57121  0.81397  1.0000 -0.0694066996
C   C312      1.0  0.51598  0.07121  0.68603  1.0000 -0.0694066996
C   C313      1.0  0.66644  0.98479  0.40154  1.0000 -0.0694066996
C   C314      1.0  0.83356  0.01521  0.90154  1.0000 -0.0644725517
C   C315      1.0  0.33356  0.48479  0.09846  1.0000 -0.0644725517
C   C316      1.0  0.16644  0.51521  0.59846  1.0000 -0.0644725517
C   C317      1.0  0.40154  0.66644  0.98479  1.0000 -0.0644725517
C   C318      1.0  0.90154  0.83356  0.01521  1.0000 -0.0694066996
C   C319      1.0  0.09846  0.33356  0.48479  1.0000 -0.0644725517
C   C320      1.0  0.59846  0.16644  0.51521  1.0000 -0.0644725517
C   C321      1.0  0.98479  0.40154  0.66644  1.0000 -0.0694066996
C   C322      1.0  0.01521  0.90154  0.83356  1.0000 -0.0644725517
C   C323      1.0  0.48479  0.09846  0.33356  1.0000 -0.0644725517
C   C324      1.0  0.51521  0.59846  0.16644  1.0000 -0.0644725517
C   C325      1.0  0.33356  0.01521  0.59846  1.0000 -0.0644725517
C   C326      1.0  0.16644  0.98479  0.09846  1.0000 -0.0694066996
C   C327      1.0  0.66644  0.51521  0.90154  1.0000 -0.0644725517
C   C328      1.0  0.83356  0.48479  0.40154  1.0000 -0.0644725517
C   C329      1.0  0.59846  0.33356  0.01521  1.0000 -0.0644725517
C   C330      1.0  0.09846  0.16644  0.98479  1.0000 -0.0644725517
C   C331      1.0  0.90154  0.66644  0.51521  1.0000 -0.0694066996
C   C332      1.0  0.40154  0.83356  0.48479  1.0000 -0.0644725517
C   C333      1.0  0.01521  0.59846  0.33356  1.0000 -0.0644725517
C   C334      1.0  0.98479  0.09846  0.16644  1.0000 -0.0694066996
C   C335      1.0  0.51521  0.90154  0.66644  1.0000 -0.0694066996
C   C336      1.0  0.48479  0.40154  0.83356  1.0000 -0.0644725517
C   C337      1.0  0.81782  0.01412  0.03964  1.0000 0.5795812832
C   C338      1.0  0.68218  0.98588  0.53964  1.0000 0.5795812832
C   C339      1.0  0.18218  0.51412  0.46036  1.0000 0.5795812832
C   C340      1.0  0.31782  0.48588  0.96036  1.0000 0.5795812832
C   C341      1.0  0.03964  0.81782  0.01412  1.0000 0.5795812832
C   C342      1.0  0.53964  0.68218  0.98588  1.0000 0.5795812832
C   C343      1.0  0.46036  0.18218  0.51412  1.0000 0.5795812832
C   C344      1.0  0.96036  0.31782  0.48588  1.0000 0.5795812832
C   C345      1.0  0.01412  0.03964  0.81782  1.0000 0.5795812832
C   C346      1.0  0.98588  0.53964  0.68218  1.0000 0.5795812832
C   C347      1.0  0.51412  0.46036  0.18218  1.0000 0.5795812832
C   C348      1.0  0.48588  0.96036  0.31782  1.0000 0.5795812832
C   C349      1.0  0.18218  0.98588  0.96036  1.0000 0.5795812832
C   C350      1.0  0.31782  0.01412  0.46036  1.0000 0.5795812832
C   C351      1.0  0.81782  0.48588  0.53964  1.0000 0.5795812832
C   C352      1.0  0.68218  0.51412  0.03964  1.0000 0.5795812832
C   C353      1.0  0.96036  0.18218  0.98588  1.0000 0.5795812832
C   C354      1.0  0.46036  0.31782  0.01412  1.0000 0.5795812832
C   C355      1.0  0.53964  0.81782  0.48588  1.0000 0.5795812832
C   C356      1.0  0.03964  0.68218  0.51412  1.0000 0.5795812832
C   C357      1.0  0.98588  0.96036  0.18218  1.0000 0.5795812832
C   C358      1.0  0.01412  0.46036  0.31782  1.0000 0.5795812832
C   C359      1.0  0.48588  0.53964  0.81782  1.0000 0.5795812832
C   C360      1.0  0.51412  0.03964  0.68218  1.0000 0.5795812832
C   C361      1.0  0.66944  0.98366  0.43321  1.0000 0.5795812832
C   C362      1.0  0.83056  0.01634  0.93321  1.0000 0.5743065496
C   C363      1.0  0.33056  0.48366  0.06679  1.0000 0.5795812832
C   C364      1.0  0.16944  0.51634  0.56679  1.0000 0.5795812832
C   C365      1.0  0.43321  0.66944  0.98366  1.0000 0.5795812832
C   C366      1.0  0.93321  0.83056  0.01634  1.0000 0.5743065496
C   C367      1.0  0.06679  0.33056  0.48366  1.0000 0.5795812832
C   C368      1.0  0.56679  0.16944  0.51634  1.0000 0.5795812832
C   C369      1.0  0.98366  0.43321  0.66944  1.0000 0.5795812832
C   C370      1.0  0.01634  0.93321  0.83056  1.0000 0.5743065496
C   C371      1.0  0.48366  0.06679  0.33056  1.0000 0.5795812832
C   C372      1.0  0.51634  0.56679  0.16944  1.0000 0.5795812832
C   C373      1.0  0.33056  0.01634  0.56679  1.0000 0.5795812832
C   C374      1.0  0.16944  0.98366  0.06679  1.0000 0.5795812832
C   C375      1.0  0.66944  0.51634  0.93321  1.0000 0.5795812832
C   C376      1.0  0.83056  0.48366  0.43321  1.0000 0.5743065496
C   C377      1.0  0.56679  0.33056  0.01634  1.0000 0.5795812832
C   C378      1.0  0.06679  0.16944  0.98366  1.0000 0.5795812832
C   C379      1.0  0.93321  0.66944  0.51634  1.0000 0.5795812832
C   C380      1.0  0.43321  0.83056  0.48366  1.0000 0.5743065496
C   C381      1.0  0.01634  0.56679  0.33056  1.0000 0.5795812832
C   C382      1.0  0.98366  0.06679  0.16944  1.0000 0.5795812832
C   C383      1.0  0.51634  0.93321  0.66944  1.0000 0.5795812832
C   C384      1.0  0.48366  0.43321  0.83056  1.0000 0.5743065496
C   C385      1.0  0.93006  0.01146  0.17310  1.0000 0.5795812832
C   C386      1.0  0.56994  0.98854  0.67310  1.0000 0.5795812832
C   C387      1.0  0.06994  0.51146  0.32690  1.0000 0.5795812832
C   C388      1.0  0.43006  0.48854  0.82690  1.0000 0.5795812832
C   C389      1.0  0.17310  0.93006  0.01146  1.0000 0.5795812832
C   C390      1.0  0.67310  0.56994  0.98854  1.0000 0.5795812832
C   C391      1.0  0.32690  0.06994  0.51146  1.0000 0.5795812832
C   C392      1.0  0.82690  0.43006  0.48854  1.0000 0.5795812832
C   C393      1.0  0.01146  0.17310  0.93006  1.0000 0.5795812832
C   C394      1.0  0.98854  0.67310  0.56994  1.0000 0.5795812832
C   C395      1.0  0.51146  0.32690  0.06994  1.0000 0.5795812832
C   C396      1.0  0.48854  0.82690  0.43006  1.0000 0.5795812832
C   C397      1.0  0.06994  0.98854  0.82690  1.0000 0.5795812832
C   C398      1.0  0.43006  0.01146  0.32690  1.0000 0.5795812832
C   C399      1.0  0.93006  0.48854  0.67310  1.0000 0.5795812832
C   C400      1.0  0.56994  0.51146  0.17310  1.0000 0.5795812832
C   C401      1.0  0.82690  0.06994  0.98854  1.0000 0.5795812832
C   C402      1.0  0.32690  0.43006  0.01146  1.0000 0.5795812832
C   C403      1.0  0.67310  0.93006  0.48854  1.0000 0.5795812832
C   C404      1.0  0.17310  0.56994  0.51146  1.0000 0.5795812832
C   C405      1.0  0.98854  0.82690  0.06994  1.0000 0.5795812832
C   C406      1.0  0.01146  0.32690  0.43006  1.0000 0.5795812832
C   C407      1.0  0.48854  0.67310  0.93006  1.0000 0.5795812832
C   C408      1.0  0.51146  0.17310  0.56994  1.0000 0.5795812832
C   C409      1.0  0.53706  0.01474  0.32186  1.0000 0.5795812832
C   C410      1.0  0.96294  0.98526  0.82186  1.0000 0.5795812832
C   C411      1.0  0.46294  0.51474  0.17814  1.0000 0.5743065496
C   C412      1.0  0.03706  0.48526  0.67814  1.0000 0.5795812832
C   C413      1.0  0.32186  0.53706  0.01474  1.0000 0.5795812832
C   C414      1.0  0.82186  0.96294  0.98526  1.0000 0.5795812832
C   C415      1.0  0.17814  0.46294  0.51474  1.0000 0.5743065496
C   C416      1.0  0.67814  0.03706  0.48526  1.0000 0.5795812832
C   C417      1.0  0.01474  0.32186  0.53706  1.0000 0.5795812832
C   C418      1.0  0.98526  0.82186  0.96294  1.0000 0.5795812832
C   C419      1.0  0.51474  0.17814  0.46294  1.0000 0.5743065496
C   C420      1.0  0.48526  0.67814  0.03706  1.0000 0.5795812832
C   C421      1.0  0.46294  0.98526  0.67814  1.0000 0.5795812832
C   C422      1.0  0.03706  0.01474  0.17814  1.0000 0.5795812832
C   C423      1.0  0.53706  0.48526  0.82186  1.0000 0.5795812832
C   C424      1.0  0.96294  0.51474  0.32186  1.0000 0.5795812832
C   C425      1.0  0.67814  0.46294  0.98526  1.0000 0.5795812832
C   C426      1.0  0.17814  0.03706  0.01474  1.0000 0.5795812832
C   C427      1.0  0.82186  0.53706  0.48526  1.0000 0.5795812832
C   C428      1.0  0.32186  0.96294  0.51474  1.0000 0.5795812832
C   C429      1.0  0.98526  0.67814  0.46294  1.0000 0.5795812832
C   C430      1.0  0.01474  0.17814  0.03706  1.0000 0.5795812832
C   C431      1.0  0.48526  0.82186  0.53706  1.0000 0.5795812832
C   C432      1.0  0.51474  0.32186  0.96294  1.0000 0.5795812832
C   C433      1.0  0.89850  0.01382  0.17172  1.0000 -0.0801646438
C   C434      1.0  0.60150  0.98618  0.67172  1.0000 -0.0801646438
C   C435      1.0  0.10150  0.51382  0.32828  1.0000 -0.0801646438
C   C436      1.0  0.39850  0.48618  0.82828  1.0000 -0.0801646438
C   C437      1.0  0.17172  0.89850  0.01382  1.0000 -0.0801646438
C   C438      1.0  0.67172  0.60150  0.98618  1.0000 -0.0801646438
C   C439      1.0  0.32828  0.10150  0.51382  1.0000 -0.0801646438
C   C440      1.0  0.82828  0.39850  0.48618  1.0000 -0.0801646438
C   C441      1.0  0.01382  0.17172  0.89850  1.0000 -0.0801646438
C   C442      1.0  0.98618  0.67172  0.60150  1.0000 -0.0801646438
C   C443      1.0  0.51382  0.32828  0.10150  1.0000 -0.0801646438
C   C444      1.0  0.48618  0.82828  0.39850  1.0000 -0.0801646438
C   C445      1.0  0.10150  0.98618  0.82828  1.0000 -0.0801646438
C   C446      1.0  0.39850  0.01382  0.32828  1.0000 -0.0801646438
C   C447      1.0  0.89850  0.48618  0.67172  1.0000 -0.0801646438
C   C448      1.0  0.60150  0.51382  0.17172  1.0000 -0.0801646438
C   C449      1.0  0.82828  0.10150  0.98618  1.0000 -0.0801646438
C   C450      1.0  0.32828  0.39850  0.01382  1.0000 -0.0801646438
C   C451      1.0  0.67172  0.89850  0.48618  1.0000 -0.0801646438
C   C452      1.0  0.17172  0.60150  0.51382  1.0000 -0.0801646438
C   C453      1.0  0.98618  0.82828  0.10150  1.0000 -0.0801646438
C   C454      1.0  0.01382  0.32828  0.39850  1.0000 -0.0801646438
C   C455      1.0  0.48618  0.67172  0.89850  1.0000 -0.0801646438
C   C456      1.0  0.51382  0.17172  0.60150  1.0000 -0.0801646438
C   C457      1.0  0.56878  0.01459  0.31938  1.0000 -0.0694066996
C   C458      1.0  0.93122  0.98541  0.81938  1.0000 -0.0694066996
C   C459      1.0  0.43122  0.51459  0.18062  1.0000 -0.0694066996
C   C460      1.0  0.06878  0.48541  0.68062  1.0000 -0.0694066996
C   C461      1.0  0.31938  0.56878  0.01459  1.0000 -0.0694066996
C   C462      1.0  0.81938  0.93122  0.98541  1.0000 -0.0694066996
C   C463      1.0  0.18062  0.43122  0.51459  1.0000 -0.0694066996
C   C464      1.0  0.68062  0.06878  0.48541  1.0000 -0.0694066996
C   C465      1.0  0.01459  0.31938  0.56878  1.0000 -0.0694066996
C   C466      1.0  0.98541  0.81938  0.93122  1.0000 -0.0694066996
C   C467      1.0  0.51459  0.18062  0.43122  1.0000 -0.0694066996
C   C468      1.0  0.48541  0.68062  0.06878  1.0000 -0.0694066996
C   C469      1.0  0.43122  0.98541  0.68062  1.0000 -0.0694066996
C   C470      1.0  0.06878  0.01459  0.18062  1.0000 -0.0694066996
C   C471      1.0  0.56878  0.48541  0.81938  1.0000 -0.0694066996
C   C472      1.0  0.93122  0.51459  0.31938  1.0000 -0.0694066996
C   C473      1.0  0.68062  0.43122  0.98541  1.0000 -0.0694066996
C   C474      1.0  0.18062  0.06878  0.01459  1.0000 -0.0694066996
C   C475      1.0  0.81938  0.56878  0.48541  1.0000 -0.0694066996
C   C476      1.0  0.31938  0.93122  0.51459  1.0000 -0.0694066996
C   C477      1.0  0.98541  0.68062  0.43122  1.0000 -0.0694066996
C   C478      1.0  0.01459  0.18062  0.06878  1.0000 -0.0694066996
C   C479      1.0  0.48541  0.81938  0.56878  1.0000 -0.0694066996
C   C480      1.0  0.51459  0.31938  0.93122  1.0000 -0.0694066996
C   C481      1.0  0.88473  0.01324  0.14388  1.0000 -0.1097468374
C   C482      1.0  0.61527  0.98676  0.64388  1.0000 -0.1097468374
C   C483      1.0  0.11527  0.51324  0.35612  1.0000 -0.1097468374
C   C484      1.0  0.38473  0.48676  0.85612  1.0000 -0.1097468374
C   C485      1.0  0.14388  0.88473  0.01324  1.0000 -0.1097468374
C   C486      1.0  0.64388  0.61527  0.98676  1.0000 -0.1097468374
C   C487      1.0  0.35612  0.11527  0.51324  1.0000 -0.1097468374
C   C488      1.0  0.85612  0.38473  0.48676  1.0000 -0.1097468374
C   C489      1.0  0.01324  0.14388  0.88473  1.0000 -0.1097468374
C   C490      1.0  0.98676  0.64388  0.61527  1.0000 -0.1097468374
C   C491      1.0  0.51324  0.35612  0.11527  1.0000 -0.1097468374
C   C492      1.0  0.48676  0.85612  0.38473  1.0000 -0.1097468374
C   C493      1.0  0.11527  0.98676  0.85612  1.0000 -0.1097468374
C   C494      1.0  0.38473  0.01324  0.35612  1.0000 -0.1097468374
C   C495      1.0  0.88473  0.48676  0.64388  1.0000 -0.1097468374
C   C496      1.0  0.61527  0.51324  0.14388  1.0000 -0.1097468374
C   C497      1.0  0.85612  0.11527  0.98676  1.0000 -0.1097468374
C   C498      1.0  0.35612  0.38473  0.01324  1.0000 -0.1097468374
C   C499      1.0  0.64388  0.88473  0.48676  1.0000 -0.1097468374
C   C500      1.0  0.14388  0.61527  0.51324  1.0000 -0.1097468374
C   C501      1.0  0.98676  0.85612  0.11527  1.0000 -0.1097468374
C   C502      1.0  0.01324  0.35612  0.38473  1.0000 -0.1097468374
C   C503      1.0  0.48676  0.64388  0.88473  1.0000 -0.1097468374
C   C504      1.0  0.51324  0.14388  0.61527  1.0000 -0.1097468374
C   C505      1.0  0.58647  0.00650  0.34354  1.0000 -0.1200954576
C   C506      1.0  0.91353  0.99350  0.84354  1.0000 -0.1200954576
C   C507      1.0  0.41353  0.50650  0.15646  1.0000 -0.1200954576
C   C508      1.0  0.08647  0.49350  0.65646  1.0000 -0.1200954576
C   C509      1.0  0.34354  0.58647  0.00650  1.0000 -0.1200954576
C   C510      1.0  0.84354  0.91353  0.99350  1.0000 -0.1200954576
C   C511      1.0  0.15646  0.41353  0.50650  1.0000 -0.1200954576
C   C512      1.0  0.65646  0.08647  0.49350  1.0000 -0.1200954576
C   C513      1.0  0.00650  0.34354  0.58647  1.0000 -0.1200954576
C   C514      1.0  0.99350  0.84354  0.91353  1.0000 -0.1200954576
C   C515      1.0  0.50650  0.15646  0.41353  1.0000 -0.1200954576
C   C516      1.0  0.49350  0.65646  0.08647  1.0000 -0.1200954576
C   C517      1.0  0.41353  0.99350  0.65646  1.0000 -0.1200954576
C   C518      1.0  0.08647  0.00650  0.15646  1.0000 -0.1200954576
C   C519      1.0  0.58647  0.49350  0.84354  1.0000 -0.1200954576
C   C520      1.0  0.91353  0.50650  0.34354  1.0000 -0.1200954576
C   C521      1.0  0.65646  0.41353  0.99350  1.0000 -0.1200954576
C   C522      1.0  0.15646  0.08647  0.00650  1.0000 -0.1200954576
C   C523      1.0  0.84354  0.58647  0.49350  1.0000 -0.1200954576
C   C524      1.0  0.34354  0.91353  0.50650  1.0000 -0.1200954576
C   C525      1.0  0.99350  0.65646  0.41353  1.0000 -0.1200954576
C   C526      1.0  0.00650  0.15646  0.08647  1.0000 -0.1200954576
C   C527      1.0  0.49350  0.84354  0.58647  1.0000 -0.1200954576
C   C528      1.0  0.50650  0.34354  0.91353  1.0000 -0.1200954576
C   C529      1.0  0.85508  0.02065  0.14234  1.0000 -0.0259743008
C   C530      1.0  0.64492  0.97935  0.64234  1.0000 -0.0259743008
C   C531      1.0  0.14492  0.52065  0.35766  1.0000 -0.0259743008
C   C532      1.0  0.35508  0.47935  0.85766  1.0000 -0.0259743008
C   C533      1.0  0.14234  0.85508  0.02065  1.0000 -0.0259743008
C   C534      1.0  0.64234  0.64492  0.97935  1.0000 -0.0259743008
C   C535      1.0  0.35766  0.14492  0.52065  1.0000 -0.0259743008
C   C536      1.0  0.85766  0.35508  0.47935  1.0000 -0.0259743008
C   C537      1.0  0.02065  0.14234  0.85508  1.0000 -0.0259743008
C   C538      1.0  0.97935  0.64234  0.64492  1.0000 -0.0259743008
C   C539      1.0  0.52065  0.35766  0.14492  1.0000 -0.0259743008
C   C540      1.0  0.47935  0.85766  0.35508  1.0000 -0.0259743008
C   C541      1.0  0.14492  0.97935  0.85766  1.0000 -0.0259743008
C   C542      1.0  0.35508  0.02065  0.35766  1.0000 -0.0259743008
C   C543      1.0  0.85508  0.47935  0.64234  1.0000 -0.0259743008
C   C544      1.0  0.64492  0.52065  0.14234  1.0000 -0.0259743008
C   C545      1.0  0.85766  0.14492  0.97935  1.0000 -0.0259743008
C   C546      1.0  0.35766  0.35508  0.02065  1.0000 -0.0259743008
C   C547      1.0  0.64234  0.85508  0.47935  1.0000 -0.0259743008
C   C548      1.0  0.14234  0.64492  0.52065  1.0000 -0.0259743008
C   C549      1.0  0.97935  0.85766  0.14492  1.0000 -0.0259743008
C   C550      1.0  0.02065  0.35766  0.35508  1.0000 -0.0259743008
C   C551      1.0  0.47935  0.64234  0.85508  1.0000 -0.0259743008
C   C552      1.0  0.52065  0.14234  0.64492  1.0000 -0.0259743008
C   C553      1.0  0.61651  0.00327  0.33893  1.0000 -0.0233177482
C   C554      1.0  0.88349  0.99673  0.83893  1.0000 -0.0233177482
C   C555      1.0  0.38349  0.50327  0.16107  1.0000 -0.0233177482
C   C556      1.0  0.11651  0.49673  0.66107  1.0000 -0.0233177482
C   C557      1.0  0.33893  0.61651  0.00327  1.0000 -0.0233177482
C   C558      1.0  0.83893  0.88349  0.99673  1.0000 -0.0233177482
C   C559      1.0  0.16107  0.38349  0.50327  1.0000 -0.0233177482
C   C560      1.0  0.66107  0.11651  0.49673  1.0000 -0.0233177482
C   C561      1.0  0.00327  0.33893  0.61651  1.0000 -0.0233177482
C   C562      1.0  0.99673  0.83893  0.88349  1.0000 -0.0233177482
C   C563      1.0  0.50327  0.16107  0.38349  1.0000 -0.0233177482
C   C564      1.0  0.49673  0.66107  0.11651  1.0000 -0.0233177482
C   C565      1.0  0.38349  0.99673  0.66107  1.0000 -0.0233177482
C   C566      1.0  0.11651  0.00327  0.16107  1.0000 -0.0233177482
C   C567      1.0  0.61651  0.49673  0.83893  1.0000 -0.0233177482
C   C568      1.0  0.88349  0.50327  0.33893  1.0000 -0.0233177482
C   C569      1.0  0.66107  0.38349  0.99673  1.0000 -0.0233177482
C   C570      1.0  0.16107  0.11651  0.00327  1.0000 -0.0233177482
C   C571      1.0  0.83893  0.61651  0.49673  1.0000 -0.0233177482
C   C572      1.0  0.33893  0.88349  0.50327  1.0000 -0.0233177482
C   C573      1.0  0.99673  0.66107  0.38349  1.0000 -0.0233177482
C   C574      1.0  0.00327  0.16107  0.11651  1.0000 -0.0233177482
C   C575      1.0  0.49673  0.83893  0.61651  1.0000 -0.0233177482
C   C576      1.0  0.50327  0.33893  0.88349  1.0000 -0.0233177482
C   C577      1.0  0.83917  0.02830  0.16693  1.0000 0.1202171086
C   C578      1.0  0.66083  0.97170  0.66693  1.0000 0.1202171086
C   C579      1.0  0.16083  0.52830  0.33307  1.0000 0.1202171086
C   C580      1.0  0.33917  0.47170  0.83307  1.0000 0.1202171086
C   C581      1.0  0.16693  0.83917  0.02830  1.0000 0.1202171086
C   C582      1.0  0.66693  0.66083  0.97170  1.0000 0.1202171086
C   C583      1.0  0.33307  0.16083  0.52830  1.0000 0.1202171086
C   C584      1.0  0.83307  0.33917  0.47170  1.0000 0.1202171086
C   C585      1.0  0.02830  0.16693  0.83917  1.0000 0.1202171086
C   C586      1.0  0.97170  0.66693  0.66083  1.0000 0.1202171086
C   C587      1.0  0.52830  0.33307  0.16083  1.0000 0.1202171086
C   C588      1.0  0.47170  0.83307  0.33917  1.0000 0.1202171086
C   C589      1.0  0.16083  0.97170  0.83307  1.0000 0.1202171086
C   C590      1.0  0.33917  0.02830  0.33307  1.0000 0.1202171086
C   C591      1.0  0.83917  0.47170  0.66693  1.0000 0.1202171086
C   C592      1.0  0.66083  0.52830  0.16693  1.0000 0.1202171086
C   C593      1.0  0.83307  0.16083  0.97170  1.0000 0.1202171086
C   C594      1.0  0.33307  0.33917  0.02830  1.0000 0.1202171086
C   C595      1.0  0.66693  0.83917  0.47170  1.0000 0.1202171086
C   C596      1.0  0.16693  0.66083  0.52830  1.0000 0.1202171086
C   C597      1.0  0.97170  0.83307  0.16083  1.0000 0.1202171086
C   C598      1.0  0.02830  0.33307  0.33917  1.0000 0.1202171086
C   C599      1.0  0.47170  0.66693  0.83917  1.0000 0.1202171086
C   C600      1.0  0.52830  0.16693  0.66083  1.0000 0.1202171086
C   C601      1.0  0.62927  0.00782  0.31184  1.0000 0.1202171086
C   C602      1.0  0.87073  0.99218  0.81184  1.0000 0.1202171086
C   C603      1.0  0.37073  0.50782  0.18816  1.0000 0.1202171086
C   C604      1.0  0.12927  0.49218  0.68816  1.0000 0.1202171086
C   C605      1.0  0.31184  0.62927  0.00782  1.0000 0.1202171086
C   C606      1.0  0.81184  0.87073  0.99218  1.0000 0.1202171086
C   C607      1.0  0.18816  0.37073  0.50782  1.0000 0.1202171086
C   C608      1.0  0.68816  0.12927  0.49218  1.0000 0.1202171086
C   C609      1.0  0.00782  0.31184  0.62927  1.0000 0.1202171086
C   C610      1.0  0.99218  0.81184  0.87073  1.0000 0.1202171086
C   C611      1.0  0.50782  0.18816  0.37073  1.0000 0.1202171086
C   C612      1.0  0.49218  0.68816  0.12927  1.0000 0.1202171086
C   C613      1.0  0.37073  0.99218  0.68816  1.0000 0.1202171086
C   C614      1.0  0.12927  0.00782  0.18816  1.0000 0.1202171086
C   C615      1.0  0.62927  0.49218  0.81184  1.0000 0.1202171086
C   C616      1.0  0.87073  0.50782  0.31184  1.0000 0.1202171086
C   C617      1.0  0.68816  0.37073  0.99218  1.0000 0.1202171086
C   C618      1.0  0.18816  0.12927  0.00782  1.0000 0.1202171086
C   C619      1.0  0.81184  0.62927  0.49218  1.0000 0.1202171086
C   C620      1.0  0.31184  0.87073  0.50782  1.0000 0.1202171086
C   C621      1.0  0.99218  0.68816  0.37073  1.0000 0.1202171086
C   C622      1.0  0.00782  0.18816  0.12927  1.0000 0.1202171086
C   C623      1.0  0.49218  0.81184  0.62927  1.0000 0.1202171086
C   C624      1.0  0.50782  0.31184  0.87073  1.0000 0.1202171086
C   C625      1.0  0.85212  0.02907  0.19461  1.0000 -0.19225251
C   C626      1.0  0.64788  0.97093  0.69461  1.0000 -0.19225251
C   C627      1.0  0.14788  0.52907  0.30539  1.0000 -0.19225251
C   C628      1.0  0.35212  0.47093  0.80539  1.0000 -0.19225251
C   C629      1.0  0.19461  0.85212  0.02907  1.0000 -0.19225251
C   C630      1.0  0.69461  0.64788  0.97093  1.0000 -0.19225251
C   C631      1.0  0.30539  0.14788  0.52907  1.0000 -0.19225251
C   C632      1.0  0.80539  0.35212  0.47093  1.0000 -0.19225251
C   C633      1.0  0.02907  0.19461  0.85212  1.0000 -0.19225251
C   C634      1.0  0.97093  0.69461  0.64788  1.0000 -0.19225251
C   C635      1.0  0.52907  0.30539  0.14788  1.0000 -0.19225251
C   C636      1.0  0.47093  0.80539  0.35212  1.0000 -0.19225251
C   C637      1.0  0.14788  0.97093  0.80539  1.0000 -0.19225251
C   C638      1.0  0.35212  0.02907  0.30539  1.0000 -0.19225251
C   C639      1.0  0.85212  0.47093  0.69461  1.0000 -0.19225251
C   C640      1.0  0.64788  0.52907  0.19461  1.0000 -0.19225251
C   C641      1.0  0.80539  0.14788  0.97093  1.0000 -0.19225251
C   C642      1.0  0.30539  0.35212  0.02907  1.0000 -0.19225251
C   C643      1.0  0.69461  0.85212  0.47093  1.0000 -0.19225251
C   C644      1.0  0.19461  0.64788  0.52907  1.0000 -0.19225251
C   C645      1.0  0.97093  0.80539  0.14788  1.0000 -0.19225251
C   C646      1.0  0.02907  0.30539  0.35212  1.0000 -0.19225251
C   C647      1.0  0.47093  0.69461  0.85212  1.0000 -0.19225251
C   C648      1.0  0.52907  0.19461  0.64788  1.0000 -0.19225251
C   C649      1.0  0.61246  0.01645  0.28776  1.0000 -0.19225251
C   C650      1.0  0.88754  0.98355  0.78776  1.0000 -0.19225251
C   C651      1.0  0.38754  0.51645  0.21224  1.0000 -0.19225251
C   C652      1.0  0.11246  0.48355  0.71224  1.0000 -0.19225251
C   C653      1.0  0.28776  0.61246  0.01645  1.0000 -0.19225251
C   C654      1.0  0.78776  0.88754  0.98355  1.0000 -0.19225251
C   C655      1.0  0.21224  0.38754  0.51645  1.0000 -0.19225251
C   C656      1.0  0.71224  0.11246  0.48355  1.0000 -0.19225251
C   C657      1.0  0.01645  0.28776  0.61246  1.0000 -0.19225251
C   C658      1.0  0.98355  0.78776  0.88754  1.0000 -0.19225251
C   C659      1.0  0.51645  0.21224  0.38754  1.0000 -0.19225251
C   C660      1.0  0.48355  0.71224  0.11246  1.0000 -0.19225251
C   C661      1.0  0.38754  0.98355  0.71224  1.0000 -0.19225251
C   C662      1.0  0.11246  0.01645  0.21224  1.0000 -0.19225251
C   C663      1.0  0.61246  0.48355  0.78776  1.0000 -0.19225251
C   C664      1.0  0.88754  0.51645  0.28776  1.0000 -0.19225251
C   C665      1.0  0.71224  0.38754  0.98355  1.0000 -0.19225251
C   C666      1.0  0.21224  0.11246  0.01645  1.0000 -0.19225251
C   C667      1.0  0.78776  0.61246  0.48355  1.0000 -0.19225251
C   C668      1.0  0.28776  0.88754  0.51645  1.0000 -0.19225251
C   C669      1.0  0.98355  0.71224  0.38754  1.0000 -0.19225251
C   C670      1.0  0.01645  0.21224  0.11246  1.0000 -0.19225251
C   C671      1.0  0.48355  0.78776  0.61246  1.0000 -0.19225251
C   C672      1.0  0.51645  0.28776  0.88754  1.0000 -0.19225251
C   C673      1.0  0.88198  0.02197  0.19686  1.0000 -0.0694066996
C   C674      1.0  0.61802  0.97803  0.69686  1.0000 -0.0694066996
C   C675      1.0  0.11802  0.52197  0.30314  1.0000 -0.0694066996
C   C676      1.0  0.38198  0.47803  0.80314  1.0000 -0.0694066996
C   C677      1.0  0.19686  0.88198  0.02197  1.0000 -0.0694066996
C   C678      1.0  0.69686  0.61802  0.97803  1.0000 -0.0694066996
C   C679      1.0  0.30314  0.11802  0.52197  1.0000 -0.0694066996
C   C680      1.0  0.80314  0.38198  0.47803  1.0000 -0.0694066996
C   C681      1.0  0.02197  0.19686  0.88198  1.0000 -0.0694066996
C   C682      1.0  0.97803  0.69686  0.61802  1.0000 -0.0694066996
C   C683      1.0  0.52197  0.30314  0.11802  1.0000 -0.0694066996
C   C684      1.0  0.47803  0.80314  0.38198  1.0000 -0.0694066996
C   C685      1.0  0.11802  0.97803  0.80314  1.0000 -0.0694066996
C   C686      1.0  0.38198  0.02197  0.30314  1.0000 -0.0694066996
C   C687      1.0  0.88198  0.47803  0.69686  1.0000 -0.0694066996
C   C688      1.0  0.61802  0.52197  0.19686  1.0000 -0.0694066996
C   C689      1.0  0.80314  0.11802  0.97803  1.0000 -0.0694066996
C   C690      1.0  0.30314  0.38198  0.02197  1.0000 -0.0694066996
C   C691      1.0  0.69686  0.88198  0.47803  1.0000 -0.0694066996
C   C692      1.0  0.19686  0.61802  0.52197  1.0000 -0.0694066996
C   C693      1.0  0.97803  0.80314  0.11802  1.0000 -0.0694066996
C   C694      1.0  0.02197  0.30314  0.38198  1.0000 -0.0694066996
C   C695      1.0  0.47803  0.69686  0.88198  1.0000 -0.0694066996
C   C696      1.0  0.52197  0.19686  0.61802  1.0000 -0.0694066996
C   C697      1.0  0.58205  0.01958  0.29163  1.0000 -0.0694066996
C   C698      1.0  0.91795  0.98042  0.79163  1.0000 -0.0694066996
C   C699      1.0  0.41795  0.51958  0.20837  1.0000 -0.0694066996
C   C700      1.0  0.08205  0.48042  0.70837  1.0000 -0.0694066996
C   C701      1.0  0.29163  0.58205  0.01958  1.0000 -0.0694066996
C   C702      1.0  0.79163  0.91795  0.98042  1.0000 -0.0694066996
C   C703      1.0  0.20837  0.41795  0.51958  1.0000 -0.0694066996
C   C704      1.0  0.70837  0.08205  0.48042  1.0000 -0.0694066996
C   C705      1.0  0.01958  0.29163  0.58205  1.0000 -0.0694066996
C   C706      1.0  0.98042  0.79163  0.91795  1.0000 -0.0694066996
C   C707      1.0  0.51958  0.20837  0.41795  1.0000 -0.0694066996
C   C708      1.0  0.48042  0.70837  0.08205  1.0000 -0.0694066996
C   C709      1.0  0.41795  0.98042  0.70837  1.0000 -0.0694066996
C   C710      1.0  0.08205  0.01958  0.20837  1.0000 -0.0694066996
C   C711      1.0  0.58205  0.48042  0.79163  1.0000 -0.0694066996
C   C712      1.0  0.91795  0.51958  0.29163  1.0000 -0.0694066996
C   C713      1.0  0.70837  0.41795  0.98042  1.0000 -0.0694066996
C   C714      1.0  0.20837  0.08205  0.01958  1.0000 -0.0694066996
C   C715      1.0  0.79163  0.58205  0.48042  1.0000 -0.0694066996
C   C716      1.0  0.29163  0.91795  0.51958  1.0000 -0.0694066996
C   C717      1.0  0.98042  0.70837  0.41795  1.0000 -0.0694066996
C   C718      1.0  0.01958  0.20837  0.08205  1.0000 -0.0694066996
C   C719      1.0  0.48042  0.79163  0.58205  1.0000 -0.0694066996
C   C720      1.0  0.51958  0.29163  0.91795  1.0000 -0.0694066996
C   C721      1.0  0.78700  0.03122  0.18015  1.0000 0.1592604401
C   C722      1.0  0.71300  0.96878  0.68015  1.0000 0.1592604401
C   C723      1.0  0.21300  0.53122  0.31985  1.0000 0.1592604401
C   C724      1.0  0.28700  0.46878  0.81985  1.0000 0.1592604401
C   C725      1.0  0.18015  0.78700  0.03122  1.0000 0.1592604401
C   C726      1.0  0.68015  0.71300  0.96878  1.0000 0.1592604401
C   C727      1.0  0.31985  0.21300  0.53122  1.0000 0.1592604401
C   C728      1.0  0.81985  0.28700  0.46878  1.0000 0.1592604401
C   C729      1.0  0.03122  0.18015  0.78700  1.0000 0.1592604401
C   C730      1.0  0.96878  0.68015  0.71300  1.0000 0.1592604401
C   C731      1.0  0.53122  0.31985  0.21300  1.0000 0.1592604401
C   C732      1.0  0.46878  0.81985  0.28700  1.0000 0.1592604401
C   C733      1.0  0.21300  0.96878  0.81985  1.0000 0.1592604401
C   C734      1.0  0.28700  0.03122  0.31985  1.0000 0.1592604401
C   C735      1.0  0.78700  0.46878  0.68015  1.0000 0.1592604401
C   C736      1.0  0.71300  0.53122  0.18015  1.0000 0.1592604401
C   C737      1.0  0.81985  0.21300  0.96878  1.0000 0.1592604401
C   C738      1.0  0.31985  0.28700  0.03122  1.0000 0.1592604401
C   C739      1.0  0.68015  0.78700  0.46878  1.0000 0.1592604401
C   C740      1.0  0.18015  0.71300  0.53122  1.0000 0.1592604401
C   C741      1.0  0.96878  0.81985  0.21300  1.0000 0.1592604401
C   C742      1.0  0.03122  0.31985  0.28700  1.0000 0.1592604401
C   C743      1.0  0.46878  0.68015  0.78700  1.0000 0.1592604401
C   C744      1.0  0.53122  0.18015  0.71300  1.0000 0.1592604401
C   C745      1.0  0.67936  0.00927  0.29068  1.0000 0.1693561991
C   C746      1.0  0.82064  0.99073  0.79068  1.0000 0.1693561991
C   C747      1.0  0.32064  0.50927  0.20932  1.0000 0.1693561991
C   C748      1.0  0.17936  0.49073  0.70932  1.0000 0.1693561991
C   C749      1.0  0.29068  0.67936  0.00927  1.0000 0.1693561991
C   C750      1.0  0.79068  0.82064  0.99073  1.0000 0.1693561991
C   C751      1.0  0.20932  0.32064  0.50927  1.0000 0.1693561991
C   C752      1.0  0.70932  0.17936  0.49073  1.0000 0.1693561991
C   C753      1.0  0.00927  0.29068  0.67936  1.0000 0.1693561991
C   C754      1.0  0.99073  0.79068  0.82064  1.0000 0.1693561991
C   C755      1.0  0.50927  0.20932  0.32064  1.0000 0.1693561991
C   C756      1.0  0.49073  0.70932  0.17936  1.0000 0.1693561991
C   C757      1.0  0.32064  0.99073  0.70932  1.0000 0.1693561991
C   C758      1.0  0.17936  0.00927  0.20932  1.0000 0.1693561991
C   C759      1.0  0.67936  0.49073  0.79068  1.0000 0.1693561991
C   C760      1.0  0.82064  0.50927  0.29068  1.0000 0.1693561991
C   C761      1.0  0.70932  0.32064  0.99073  1.0000 0.1693561991
C   C762      1.0  0.20932  0.17936  0.00927  1.0000 0.1693561991
C   C763      1.0  0.79068  0.67936  0.49073  1.0000 0.1693561991
C   C764      1.0  0.29068  0.82064  0.50927  1.0000 0.1693561991
C   C765      1.0  0.99073  0.70932  0.32064  1.0000 0.1693561991
C   C766      1.0  0.00927  0.20932  0.17936  1.0000 0.1693561991
C   C767      1.0  0.49073  0.79068  0.67936  1.0000 0.1693561991
C   C768      1.0  0.50927  0.29068  0.82064  1.0000 0.1693561991
C   C769      1.0  0.78261  0.05267  0.20164  1.0000 -0.1734078312
C   C770      1.0  0.71739  0.94733  0.70164  1.0000 -0.1734078312
C   C771      1.0  0.21739  0.55267  0.29836  1.0000 -0.1734078312
C   C772      1.0  0.28261  0.44733  0.79836  1.0000 -0.1734078312
C   C773      1.0  0.20164  0.78261  0.05267  1.0000 -0.1734078312
C   C774      1.0  0.70164  0.71739  0.94733  1.0000 -0.1734078312
C   C775      1.0  0.29836  0.21739  0.55267  1.0000 -0.1734078312
C   C776      1.0  0.79836  0.28261  0.44733  1.0000 -0.1734078312
C   C777      1.0  0.05267  0.20164  0.78261  1.0000 -0.1734078312
C   C778      1.0  0.94733  0.70164  0.71739  1.0000 -0.1734078312
C   C779      1.0  0.55267  0.29836  0.21739  1.0000 -0.1734078312
C   C780      1.0  0.44733  0.79836  0.28261  1.0000 -0.1734078312
C   C781      1.0  0.21739  0.94733  0.79836  1.0000 -0.1734078312
C   C782      1.0  0.28261  0.05267  0.29836  1.0000 -0.1734078312
C   C783      1.0  0.78261  0.44733  0.70164  1.0000 -0.1734078312
C   C784      1.0  0.71739  0.55267  0.20164  1.0000 -0.1734078312
C   C785      1.0  0.79836  0.21739  0.94733  1.0000 -0.1734078312
C   C786      1.0  0.29836  0.28261  0.05267  1.0000 -0.1734078312
C   C787      1.0  0.70164  0.78261  0.44733  1.0000 -0.1734078312
C   C788      1.0  0.20164  0.71739  0.55267  1.0000 -0.1734078312
C   C789      1.0  0.94733  0.79836  0.21739  1.0000 -0.1734078312
C   C790      1.0  0.05267  0.29836  0.28261  1.0000 -0.1734078312
C   C791      1.0  0.44733  0.70164  0.78261  1.0000 -0.1734078312
C   C792      1.0  0.55267  0.20164  0.71739  1.0000 -0.1734078312
C   C793      1.0  0.70402  0.02685  0.29595  1.0000 -0.1734078312
C   C794      1.0  0.79598  0.97315  0.79595  1.0000 -0.181021762
C   C795      1.0  0.29598  0.52685  0.20405  1.0000 -0.1734078312
C   C796      1.0  0.20402  0.47315  0.70405  1.0000 -0.181021762
C   C797      1.0  0.29595  0.70402  0.02685  1.0000 -0.1734078312
C   C798      1.0  0.79595  0.79598  0.97315  1.0000 -0.181021762
C   C799      1.0  0.20405  0.29598  0.52685  1.0000 -0.1734078312
C   C800      1.0  0.70405  0.20402  0.47315  1.0000 -0.1734078312
C   C801      1.0  0.02685  0.29595  0.70402  1.0000 -0.1734078312
C   C802      1.0  0.97315  0.79595  0.79598  1.0000 -0.181021762
C   C803      1.0  0.52685  0.20405  0.29598  1.0000 -0.1734078312
C   C804      1.0  0.47315  0.70405  0.20402  1.0000 -0.1734078312
C   C805      1.0  0.29598  0.97315  0.70405  1.0000 -0.181021762
C   C806      1.0  0.20402  0.02685  0.20405  1.0000 -0.181021762
C   C807      1.0  0.70402  0.47315  0.79595  1.0000 -0.1734078312
C   C808      1.0  0.79598  0.52685  0.29595  1.0000 -0.1734078312
C   C809      1.0  0.70405  0.29598  0.97315  1.0000 -0.181021762
C   C810      1.0  0.20405  0.20402  0.02685  1.0000 -0.181021762
C   C811      1.0  0.79595  0.70402  0.47315  1.0000 -0.1734078312
C   C812      1.0  0.29595  0.79598  0.52685  1.0000 -0.181021762
C   C813      1.0  0.97315  0.70405  0.29598  1.0000 -0.181021762
C   C814      1.0  0.02685  0.20405  0.20402  1.0000 -0.181021762
C   C815      1.0  0.47315  0.79595  0.70402  1.0000 -0.1734078312
C   C816      1.0  0.52685  0.29595  0.79598  1.0000 -0.181021762
C   C817      1.0  0.76066  0.04910  0.22272  1.0000 -0.1200954576
C   C818      1.0  0.73934  0.95090  0.72272  1.0000 -0.1200954576
C   C819      1.0  0.23934  0.54910  0.27728  1.0000 -0.1200954576
C   C820      1.0  0.26066  0.45090  0.77728  1.0000 -0.1200954576
C   C821      1.0  0.22272  0.76066  0.04910  1.0000 -0.1200954576
C   C822      1.0  0.72272  0.73934  0.95090  1.0000 -0.1200954576
C   C823      1.0  0.27728  0.23934  0.54910  1.0000 -0.1200954576
C   C824      1.0  0.77728  0.26066  0.45090  1.0000 -0.1200954576
C   C825      1.0  0.04910  0.22272  0.76066  1.0000 -0.1200954576
C   C826      1.0  0.95090  0.72272  0.73934  1.0000 -0.1200954576
C   C827      1.0  0.54910  0.27728  0.23934  1.0000 -0.1200954576
C   C828      1.0  0.45090  0.77728  0.26066  1.0000 -0.1200954576
C   C829      1.0  0.23934  0.95090  0.77728  1.0000 -0.1200954576
C   C830      1.0  0.26066  0.04910  0.27728  1.0000 -0.1200954576
C   C831      1.0  0.76066  0.45090  0.72272  1.0000 -0.1200954576
C   C832      1.0  0.73934  0.54910  0.22272  1.0000 -0.1200954576
C   C833      1.0  0.77728  0.23934  0.95090  1.0000 -0.1200954576
C   C834      1.0  0.27728  0.26066  0.04910  1.0000 -0.1200954576
C   C835      1.0  0.72272  0.76066  0.45090  1.0000 -0.1200954576
C   C836      1.0  0.22272  0.73934  0.54910  1.0000 -0.1200954576
C   C837      1.0  0.95090  0.77728  0.23934  1.0000 -0.1200954576
C   C838      1.0  0.04910  0.27728  0.26066  1.0000 -0.1200954576
C   C839      1.0  0.45090  0.72272  0.76066  1.0000 -0.1200954576
C   C840      1.0  0.54910  0.22272  0.73934  1.0000 -0.1200954576
C   C841      1.0  0.72472  0.03152  0.27391  1.0000 -0.1200954576
C   C842      1.0  0.77528  0.96848  0.77391  1.0000 -0.1200954576
C   C843      1.0  0.27528  0.53152  0.22609  1.0000 -0.1200954576
C   C844      1.0  0.22472  0.46848  0.72609  1.0000 -0.1200954576
C   C845      1.0  0.27391  0.72472  0.03152  1.0000 -0.1200954576
C   C846      1.0  0.77391  0.77528  0.96848  1.0000 -0.1200954576
C   C847      1.0  0.22609  0.27528  0.53152  1.0000 -0.1200954576
C   C848      1.0  0.72609  0.22472  0.46848  1.0000 -0.1200954576
C   C849      1.0  0.03152  0.27391  0.72472  1.0000 -0.1200954576
C   C850      1.0  0.96848  0.77391  0.77528  1.0000 -0.1200954576
C   C851      1.0  0.53152  0.22609  0.27528  1.0000 -0.1200954576
C   C852      1.0  0.46848  0.72609  0.22472  1.0000 -0.1200954576
C   C853      1.0  0.27528  0.96848  0.72609  1.0000 -0.1200954576
C   C854      1.0  0.22472  0.03152  0.22609  1.0000 -0.1200954576
C   C855      1.0  0.72472  0.46848  0.77391  1.0000 -0.1200954576
C   C856      1.0  0.77528  0.53152  0.27391  1.0000 -0.1200954576
C   C857      1.0  0.72609  0.27528  0.96848  1.0000 -0.1200954576
C   C858      1.0  0.22609  0.22472  0.03152  1.0000 -0.1200954576
C   C859      1.0  0.77391  0.72472  0.46848  1.0000 -0.1200954576
C   C860      1.0  0.27391  0.77528  0.53152  1.0000 -0.1200954576
C   C861      1.0  0.96848  0.72609  0.27528  1.0000 -0.1200954576
C   C862      1.0  0.03152  0.22609  0.22472  1.0000 -0.1200954576
C   C863      1.0  0.46848  0.77391  0.72472  1.0000 -0.1200954576
C   C864      1.0  0.53152  0.27391  0.77528  1.0000 -0.1200954576
C   C865      1.0  0.74308  0.02367  0.22293  1.0000 0.0596793186
C   C866      1.0  0.75692  0.97633  0.72293  1.0000 0.0596793186
C   C867      1.0  0.25692  0.52367  0.27707  1.0000 0.0596793186
C   C868      1.0  0.24308  0.47633  0.77707  1.0000 0.0596793186
C   C869      1.0  0.22293  0.74308  0.02367  1.0000 0.0596793186
C   C870      1.0  0.72293  0.75692  0.97633  1.0000 0.0596793186
C   C871      1.0  0.27707  0.25692  0.52367  1.0000 0.0596793186
C   C872      1.0  0.77707  0.24308  0.47633  1.0000 0.0596793186
C   C873      1.0  0.02367  0.22293  0.74308  1.0000 0.0596793186
C   C874      1.0  0.97633  0.72293  0.75692  1.0000 0.0596793186
C   C875      1.0  0.52367  0.27707  0.25692  1.0000 0.0596793186
C   C876      1.0  0.47633  0.77707  0.24308  1.0000 0.0596793186
C   C877      1.0  0.25692  0.97633  0.77707  1.0000 0.0596793186
C   C878      1.0  0.24308  0.02367  0.27707  1.0000 0.0596793186
C   C879      1.0  0.74308  0.47633  0.72293  1.0000 0.0596793186
C   C880      1.0  0.75692  0.52367  0.22293  1.0000 0.0596793186
C   C881      1.0  0.77707  0.25692  0.97633  1.0000 0.0596793186
C   C882      1.0  0.27707  0.24308  0.02367  1.0000 0.0596793186
C   C883      1.0  0.72293  0.74308  0.47633  1.0000 0.0596793186
C   C884      1.0  0.22293  0.75692  0.52367  1.0000 0.0596793186
C   C885      1.0  0.97633  0.77707  0.25692  1.0000 0.0596793186
C   C886      1.0  0.02367  0.27707  0.24308  1.0000 0.0596793186
C   C887      1.0  0.47633  0.72293  0.74308  1.0000 0.0596793186
C   C888      1.0  0.52367  0.22293  0.75692  1.0000 0.0596793186
C   C889      1.0  0.72094  0.01907  0.24591  1.0000 0.0596793186
C   C890      1.0  0.77906  0.98093  0.74591  1.0000 0.0596793186
C   C891      1.0  0.27906  0.51907  0.25409  1.0000 0.0596793186
C   C892      1.0  0.22094  0.48093  0.75409  1.0000 0.0596793186
C   C893      1.0  0.24591  0.72094  0.01907  1.0000 0.0596793186
C   C894      1.0  0.74591  0.77906  0.98093  1.0000 0.0596793186
C   C895      1.0  0.25409  0.27906  0.51907  1.0000 0.0596793186
C   C896      1.0  0.75409  0.22094  0.48093  1.0000 0.0596793186
C   C897      1.0  0.01907  0.24591  0.72094  1.0000 0.0596793186
C   C898      1.0  0.98093  0.74591  0.77906  1.0000 0.0596793186
C   C899      1.0  0.51907  0.25409  0.27906  1.0000 0.0596793186
C   C900      1.0  0.48093  0.75409  0.22094  1.0000 0.0596793186
C   C901      1.0  0.27906  0.98093  0.75409  1.0000 0.0596793186
C   C902      1.0  0.22094  0.01907  0.25409  1.0000 0.0596793186
C   C903      1.0  0.72094  0.48093  0.74591  1.0000 0.0596793186
C   C904      1.0  0.77906  0.51907  0.24591  1.0000 0.0596793186
C   C905      1.0  0.75409  0.27906  0.98093  1.0000 0.0596793186
C   C906      1.0  0.25409  0.22094  0.01907  1.0000 0.0596793186
C   C907      1.0  0.74591  0.72094  0.48093  1.0000 0.0596793186
C   C908      1.0  0.24591  0.77906  0.51907  1.0000 0.0596793186
C   C909      1.0  0.98093  0.75409  0.27906  1.0000 0.0596793186
C   C910      1.0  0.01907  0.25409  0.22094  1.0000 0.0596793186
C   C911      1.0  0.48093  0.74591  0.72094  1.0000 0.0596793186
C   C912      1.0  0.51907  0.24591  0.77906  1.0000 0.0596793186
C   C913      1.0  0.76887  0.00645  0.17943  1.0000 -0.1626483244
C   C914      1.0  0.73113  0.99355  0.67943  1.0000 -0.1626483244
C   C915      1.0  0.23113  0.50645  0.32057  1.0000 -0.1626483244
C   C916      1.0  0.26887  0.49355  0.82057  1.0000 -0.1626483244
C   C917      1.0  0.17943  0.76887  0.00645  1.0000 -0.1626483244
C   C918      1.0  0.67943  0.73113  0.99355  1.0000 -0.1626483244
C   C919      1.0  0.32057  0.23113  0.50645  1.0000 -0.1626483244
C   C920      1.0  0.82057  0.26887  0.49355  1.0000 -0.1626483244
C   C921      1.0  0.00645  0.17943  0.76887  1.0000 -0.1626483244
C   C922      1.0  0.99355  0.67943  0.73113  1.0000 -0.1626483244
C   C923      1.0  0.50645  0.32057  0.23113  1.0000 -0.1626483244
C   C924      1.0  0.49355  0.82057  0.26887  1.0000 -0.1626483244
C   C925      1.0  0.23113  0.99355  0.82057  1.0000 -0.1626483244
C   C926      1.0  0.26887  0.00645  0.32057  1.0000 -0.1626483244
C   C927      1.0  0.76887  0.49355  0.67943  1.0000 -0.1626483244
C   C928      1.0  0.73113  0.50645  0.17943  1.0000 -0.1626483244
C   C929      1.0  0.82057  0.23113  0.99355  1.0000 -0.1626483244
C   C930      1.0  0.32057  0.26887  0.00645  1.0000 -0.1626483244
C   C931      1.0  0.67943  0.76887  0.49355  1.0000 -0.1626483244
C   C932      1.0  0.17943  0.73113  0.50645  1.0000 -0.1626483244
C   C933      1.0  0.99355  0.82057  0.23113  1.0000 -0.1626483244
C   C934      1.0  0.00645  0.32057  0.26887  1.0000 -0.1626483244
C   C935      1.0  0.49355  0.67943  0.76887  1.0000 -0.1626483244
C   C936      1.0  0.50645  0.17943  0.73113  1.0000 -0.1626483244
C   C937      1.0  0.74719  0.00259  0.20073  1.0000 -0.1097468374
C   C938      1.0  0.75281  0.99741  0.70073  1.0000 -0.1097468374
C   C939      1.0  0.25281  0.50259  0.29927  1.0000 -0.1003485589
C   C940      1.0  0.24719  0.49741  0.79927  1.0000 -0.1003485589
C   C941      1.0  0.20073  0.74719  0.00259  1.0000 -0.1097468374
C   C942      1.0  0.70073  0.75281  0.99741  1.0000 -0.1097468374
C   C943      1.0  0.29927  0.25281  0.50259  1.0000 -0.1097468374
C   C944      1.0  0.79927  0.24719  0.49741  1.0000 -0.1003485589
C   C945      1.0  0.00259  0.20073  0.74719  1.0000 -0.1097468374
C   C946      1.0  0.99741  0.70073  0.75281  1.0000 -0.1097468374
C   C947      1.0  0.50259  0.29927  0.25281  1.0000 -0.1003485589
C   C948      1.0  0.49741  0.79927  0.24719  1.0000 -0.1003485589
C   C949      1.0  0.25281  0.99741  0.79927  1.0000 -0.1097468374
C   C950      1.0  0.24719  0.00259  0.29927  1.0000 -0.1097468374
C   C951      1.0  0.74719  0.49741  0.70073  1.0000 -0.1097468374
C   C952      1.0  0.75281  0.50259  0.20073  1.0000 -0.1003485589
C   C953      1.0  0.79927  0.25281  0.99741  1.0000 -0.1097468374
C   C954      1.0  0.29927  0.24719  0.00259  1.0000 -0.1097468374
C   C955      1.0  0.70073  0.74719  0.49741  1.0000 -0.1097468374
C   C956      1.0  0.20073  0.75281  0.50259  1.0000 -0.1003485589
C   C957      1.0  0.99741  0.79927  0.25281  1.0000 -0.1097468374
C   C958      1.0  0.00259  0.29927  0.24719  1.0000 -0.1097468374
C   C959      1.0  0.49741  0.70073  0.74719  1.0000 -0.1097468374
C   C960      1.0  0.50259  0.20073  0.75281  1.0000 -0.1003485589
N   N1        1.0  0.81064  0.03302  0.16020  1.0000 -0.0801646438
N   N2        1.0  0.68936  0.96698  0.66020  1.0000 -0.0801646438
N   N3        1.0  0.18936  0.53302  0.33980  1.0000 -0.0801646438
N   N4        1.0  0.31064  0.46698  0.83980  1.0000 -0.0801646438
N   N5        1.0  0.16020  0.81064  0.03302  1.0000 -0.0801646438
N   N6        1.0  0.66020  0.68936  0.96698  1.0000 -0.0801646438
N   N7        1.0  0.33980  0.18936  0.53302  1.0000 -0.0801646438
N   N8        1.0  0.83980  0.31064  0.46698  1.0000 -0.0801646438
N   N9        1.0  0.03302  0.16020  0.81064  1.0000 -0.0801646438
N   N10       1.0  0.96698  0.66020  0.68936  1.0000 -0.0801646438
N   N11       1.0  0.53302  0.33980  0.18936  1.0000 -0.0801646438
N   N12       1.0  0.46698  0.83980  0.31064  1.0000 -0.0801646438
N   N13       1.0  0.18936  0.96698  0.83980  1.0000 -0.0801646438
N   N14       1.0  0.31064  0.03302  0.33980  1.0000 -0.0801646438
N   N15       1.0  0.81064  0.46698  0.66020  1.0000 -0.0801646438
N   N16       1.0  0.68936  0.53302  0.16020  1.0000 -0.0801646438
N   N17       1.0  0.83980  0.18936  0.96698  1.0000 -0.0801646438
N   N18       1.0  0.33980  0.31064  0.03302  1.0000 -0.0801646438
N   N19       1.0  0.66020  0.81064  0.46698  1.0000 -0.0801646438
N   N20       1.0  0.16020  0.68936  0.53302  1.0000 -0.0801646438
N   N21       1.0  0.96698  0.83980  0.18936  1.0000 -0.0801646438
N   N22       1.0  0.03302  0.33980  0.31064  1.0000 -0.0801646438
N   N23       1.0  0.46698  0.66020  0.81064  1.0000 -0.0801646438
N   N24       1.0  0.53302  0.16020  0.68936  1.0000 -0.0801646438
N   N25       1.0  0.65874  0.00397  0.31312  1.0000 -0.0886434021
N   N26       1.0  0.84126  0.99603  0.81312  1.0000 -0.0886434021
N   N27       1.0  0.34126  0.50397  0.18688  1.0000 -0.0886434021
N   N28       1.0  0.15874  0.49603  0.68688  1.0000 -0.0886434021
N   N29       1.0  0.31312  0.65874  0.00397  1.0000 -0.0886434021
N   N30       1.0  0.81312  0.84126  0.99603  1.0000 -0.0886434021
N   N31       1.0  0.18688  0.34126  0.50397  1.0000 -0.0886434021
N   N32       1.0  0.68688  0.15874  0.49603  1.0000 -0.0886434021
N   N33       1.0  0.00397  0.31312  0.65874  1.0000 -0.0886434021
N   N34       1.0  0.99603  0.81312  0.84126  1.0000 -0.0886434021
N   N35       1.0  0.50397  0.18688  0.34126  1.0000 -0.0886434021
N   N36       1.0  0.49603  0.68688  0.15874  1.0000 -0.0886434021
N   N37       1.0  0.34126  0.99603  0.68688  1.0000 -0.0886434021
N   N38       1.0  0.15874  0.00397  0.18688  1.0000 -0.0886434021
N   N39       1.0  0.65874  0.49603  0.81312  1.0000 -0.0886434021
N   N40       1.0  0.84126  0.50397  0.31312  1.0000 -0.0886434021
N   N41       1.0  0.68688  0.34126  0.99603  1.0000 -0.0886434021
N   N42       1.0  0.18688  0.15874  0.00397  1.0000 -0.0886434021
N   N43       1.0  0.81312  0.65874  0.49603  1.0000 -0.0886434021
N   N44       1.0  0.31312  0.84126  0.50397  1.0000 -0.0886434021
N   N45       1.0  0.99603  0.68688  0.34126  1.0000 -0.0886434021
N   N46       1.0  0.00397  0.18688  0.15874  1.0000 -0.0886434021
N   N47       1.0  0.49603  0.81312  0.65874  1.0000 -0.0886434021
N   N48       1.0  0.50397  0.31312  0.84126  1.0000 -0.0886434021
O   O1        1.0  0.79585  0.01584  0.02295  1.0000 -0.4926288965
O   O2        1.0  0.70415  0.98416  0.52295  1.0000 -0.4926288965
O   O3        1.0  0.20415  0.51584  0.47705  1.0000 -0.4926288965
O   O4        1.0  0.29585  0.48416  0.97705  1.0000 -0.4926288965
O   O5        1.0  0.02295  0.79585  0.01584  1.0000 -0.4926288965
O   O6        1.0  0.52295  0.70415  0.98416  1.0000 -0.4926288965
O   O7        1.0  0.47705  0.20415  0.51584  1.0000 -0.4926288965
O   O8        1.0  0.97705  0.29585  0.48416  1.0000 -0.4926288965
O   O9        1.0  0.01584  0.02295  0.79585  1.0000 -0.4926288965
O   O10       1.0  0.98416  0.52295  0.70415  1.0000 -0.4926288965
O   O11       1.0  0.51584  0.47705  0.20415  1.0000 -0.4926288965
O   O12       1.0  0.48416  0.97705  0.29585  1.0000 -0.4926288965
O   O13       1.0  0.20415  0.98416  0.97705  1.0000 -0.4926288965
O   O14       1.0  0.29585  0.01584  0.47705  1.0000 -0.4926288965
O   O15       1.0  0.79585  0.48416  0.52295  1.0000 -0.4926288965
O   O16       1.0  0.70415  0.51584  0.02295  1.0000 -0.4926288965
O   O17       1.0  0.97705  0.20415  0.98416  1.0000 -0.4926288965
O   O18       1.0  0.47705  0.29585  0.01584  1.0000 -0.4926288965
O   O19       1.0  0.52295  0.79585  0.48416  1.0000 -0.4926288965
O   O20       1.0  0.02295  0.70415  0.51584  1.0000 -0.4926288965
O   O21       1.0  0.98416  0.97705  0.20415  1.0000 -0.4926288965
O   O22       1.0  0.01584  0.47705  0.29585  1.0000 -0.4926288965
O   O23       1.0  0.48416  0.52295  0.79585  1.0000 -0.4926288965
O   O24       1.0  0.51584  0.02295  0.70415  1.0000 -0.4926288965
O   O25       1.0  0.69470  0.98169  0.44439  1.0000 -0.4775185827
O   O26       1.0  0.80530  0.01831  0.94439  1.0000 -0.4775185827
O   O27       1.0  0.30530  0.48169  0.05561  1.0000 -0.4775185827
O   O28       1.0  0.19470  0.51831  0.55561  1.0000 -0.4775185827
O   O29       1.0  0.44439  0.69470  0.98169  1.0000 -0.4775185827
O   O30       1.0  0.94439  0.80530  0.01831  1.0000 -0.4775185827
O   O31       1.0  0.05561  0.30530  0.48169  1.0000 -0.4775185827
O   O32       1.0  0.55561  0.19470  0.51831  1.0000 -0.4775185827
O   O33       1.0  0.98169  0.44439  0.69470  1.0000 -0.4775185827
O   O34       1.0  0.01831  0.94439  0.80530  1.0000 -0.4775185827
O   O35       1.0  0.48169  0.05561  0.30530  1.0000 -0.4775185827
O   O36       1.0  0.51831  0.55561  0.19470  1.0000 -0.4775185827
O   O37       1.0  0.30530  0.01831  0.55561  1.0000 -0.4775185827
O   O38       1.0  0.19470  0.98169  0.05561  1.0000 -0.4775185827
O   O39       1.0  0.69470  0.51831  0.94439  1.0000 -0.4775185827
O   O40       1.0  0.80530  0.48169  0.44439  1.0000 -0.4775185827
O   O41       1.0  0.55561  0.30530  0.01831  1.0000 -0.4775185827
O   O42       1.0  0.05561  0.19470  0.98169  1.0000 -0.4775185827
O   O43       1.0  0.94439  0.69470  0.51831  1.0000 -0.4775185827
O   O44       1.0  0.44439  0.80530  0.48169  1.0000 -0.4775185827
O   O45       1.0  0.01831  0.55561  0.30530  1.0000 -0.4775185827
O   O46       1.0  0.98169  0.05561  0.19470  1.0000 -0.4775185827
O   O47       1.0  0.51831  0.94439  0.69470  1.0000 -0.4775185827
O   O48       1.0  0.48169  0.44439  0.80530  1.0000 -0.4775185827
O   O49       1.0  0.84413  0.01392  0.02906  1.0000 -0.5009641078
O   O50       1.0  0.65587  0.98608  0.52906  1.0000 -0.5066984978
O   O51       1.0  0.15587  0.51392  0.47094  1.0000 -0.5066984978
O   O52       1.0  0.34413  0.48608  0.97094  1.0000 -0.5066984978
O   O53       1.0  0.02906  0.84413  0.01392  1.0000 -0.5009641078
O   O54       1.0  0.52906  0.65587  0.98608  1.0000 -0.5066984978
O   O55       1.0  0.47094  0.15587  0.51392  1.0000 -0.5066984978
O   O56       1.0  0.97094  0.34413  0.48608  1.0000 -0.5066984978
O   O57       1.0  0.01392  0.02906  0.84413  1.0000 -0.5009641078
O   O58       1.0  0.98608  0.52906  0.65587  1.0000 -0.5066984978
O   O59       1.0  0.51392  0.47094  0.15587  1.0000 -0.5066984978
O   O60       1.0  0.48608  0.97094  0.34413  1.0000 -0.5066984978
O   O61       1.0  0.15587  0.98608  0.97094  1.0000 -0.5066984978
O   O62       1.0  0.34413  0.01392  0.47094  1.0000 -0.5066984978
O   O63       1.0  0.84413  0.48608  0.52906  1.0000 -0.5066984978
O   O64       1.0  0.65587  0.51392  0.02906  1.0000 -0.5066984978
O   O65       1.0  0.97094  0.15587  0.98608  1.0000 -0.5066984978
O   O66       1.0  0.47094  0.34413  0.01392  1.0000 -0.5066984978
O   O67       1.0  0.52906  0.84413  0.48608  1.0000 -0.5066984978
O   O68       1.0  0.02906  0.65587  0.51392  1.0000 -0.5066984978
O   O69       1.0  0.98608  0.97094  0.15587  1.0000 -0.5066984978
O   O70       1.0  0.01392  0.47094  0.34413  1.0000 -0.5066984978
O   O71       1.0  0.48608  0.52906  0.84413  1.0000 -0.5066984978
O   O72       1.0  0.51392  0.02906  0.65587  1.0000 -0.5066984978
O   O73       1.0  0.64637  0.98458  0.44960  1.0000 -0.5009641078
O   O74       1.0  0.85363  0.01542  0.94960  1.0000 -0.5009641078
O   O75       1.0  0.35363  0.48458  0.05040  1.0000 -0.5009641078
O   O76       1.0  0.14637  0.51542  0.55040  1.0000 -0.5009641078
O   O77       1.0  0.44960  0.64637  0.98458  1.0000 -0.5009641078
O   O78       1.0  0.94960  0.85363  0.01542  1.0000 -0.5009641078
O   O79       1.0  0.05040  0.35363  0.48458  1.0000 -0.5009641078
O   O80       1.0  0.55040  0.14637  0.51542  1.0000 -0.5009641078
O   O81       1.0  0.98458  0.44960  0.64637  1.0000 -0.5009641078
O   O82       1.0  0.01542  0.94960  0.85363  1.0000 -0.5009641078
O   O83       1.0  0.48458  0.05040  0.35363  1.0000 -0.5009641078
O   O84       1.0  0.51542  0.55040  0.14637  1.0000 -0.5009641078
O   O85       1.0  0.35363  0.01542  0.55040  1.0000 -0.5009641078
O   O86       1.0  0.14637  0.98458  0.05040  1.0000 -0.5009641078
O   O87       1.0  0.64637  0.51542  0.94960  1.0000 -0.5009641078
O   O88       1.0  0.85363  0.48458  0.44960  1.0000 -0.5009641078
O   O89       1.0  0.55040  0.35363  0.01542  1.0000 -0.5009641078
O   O90       1.0  0.05040  0.14637  0.98458  1.0000 -0.5009641078
O   O91       1.0  0.94960  0.64637  0.51542  1.0000 -0.5009641078
O   O92       1.0  0.44960  0.85363  0.48458  1.0000 -0.5009641078
O   O93       1.0  0.01542  0.55040  0.35363  1.0000 -0.5009641078
O   O94       1.0  0.98458  0.05040  0.14637  1.0000 -0.5009641078
O   O95       1.0  0.51542  0.94960  0.64637  1.0000 -0.5009641078
O   O96       1.0  0.48458  0.44960  0.85363  1.0000 -0.5009641078
O   O97       1.0  0.94472  0.00970  0.14893  1.0000 -0.5009641078
O   O98       1.0  0.55528  0.99030  0.64893  1.0000 -0.5009641078
O   O99       1.0  0.05528  0.50970  0.35107  1.0000 -0.5009641078
O   O100      1.0  0.44472  0.49030  0.85107  1.0000 -0.5009641078
O   O101      1.0  0.14893  0.94472  0.00970  1.0000 -0.5009641078
O   O102      1.0  0.64893  0.55528  0.99030  1.0000 -0.5009641078
O   O103      1.0  0.35107  0.05528  0.50970  1.0000 -0.5009641078
O   O104      1.0  0.85107  0.44472  0.49030  1.0000 -0.5009641078
O   O105      1.0  0.00970  0.14893  0.94472  1.0000 -0.5009641078
O   O106      1.0  0.99030  0.64893  0.55528  1.0000 -0.5009641078
O   O107      1.0  0.50970  0.35107  0.05528  1.0000 -0.5009641078
O   O108      1.0  0.49030  0.85107  0.44472  1.0000 -0.5009641078
O   O109      1.0  0.05528  0.99030  0.85107  1.0000 -0.5009641078
O   O110      1.0  0.44472  0.00970  0.35107  1.0000 -0.5009641078
O   O111      1.0  0.94472  0.49030  0.64893  1.0000 -0.5009641078
O   O112      1.0  0.55528  0.50970  0.14893  1.0000 -0.5009641078
O   O113      1.0  0.85107  0.05528  0.99030  1.0000 -0.5009641078
O   O114      1.0  0.35107  0.44472  0.00970  1.0000 -0.5009641078
O   O115      1.0  0.64893  0.94472  0.49030  1.0000 -0.5009641078
O   O116      1.0  0.14893  0.55528  0.50970  1.0000 -0.5009641078
O   O117      1.0  0.99030  0.85107  0.05528  1.0000 -0.5009641078
O   O118      1.0  0.00970  0.35107  0.44472  1.0000 -0.5009641078
O   O119      1.0  0.49030  0.64893  0.94472  1.0000 -0.5009641078
O   O120      1.0  0.50970  0.14893  0.55528  1.0000 -0.5009641078
O   O121      1.0  0.52464  0.01111  0.34708  1.0000 -0.5066984978
O   O122      1.0  0.97536  0.98889  0.84708  1.0000 -0.5066984978
O   O123      1.0  0.47536  0.51111  0.15292  1.0000 -0.5066984978
O   O124      1.0  0.02464  0.48889  0.65292  1.0000 -0.5066984978
O   O125      1.0  0.34708  0.52464  0.01111  1.0000 -0.5066984978
O   O126      1.0  0.84708  0.97536  0.98889  1.0000 -0.5066984978
O   O127      1.0  0.15292  0.47536  0.51111  1.0000 -0.5066984978
O   O128      1.0  0.65292  0.02464  0.48889  1.0000 -0.5066984978
O   O129      1.0  0.01111  0.34708  0.52464  1.0000 -0.5066984978
O   O130      1.0  0.98889  0.84708  0.97536  1.0000 -0.5066984978
O   O131      1.0  0.51111  0.15292  0.47536  1.0000 -0.5066984978
O   O132      1.0  0.48889  0.65292  0.02464  1.0000 -0.5066984978
O   O133      1.0  0.47536  0.98889  0.65292  1.0000 -0.5066984978
O   O134      1.0  0.02464  0.01111  0.15292  1.0000 -0.5066984978
O   O135      1.0  0.52464  0.48889  0.84708  1.0000 -0.5066984978
O   O136      1.0  0.97536  0.51111  0.34708  1.0000 -0.5066984978
O   O137      1.0  0.65292  0.47536  0.98889  1.0000 -0.5066984978
O   O138      1.0  0.15292  0.02464  0.01111  1.0000 -0.5066984978
O   O139      1.0  0.84708  0.52464  0.48889  1.0000 -0.5066984978
O   O140      1.0  0.34708  0.97536  0.51111  1.0000 -0.5066984978
O   O141      1.0  0.98889  0.65292  0.47536  1.0000 -0.5066984978
O   O142      1.0  0.01111  0.15292  0.02464  1.0000 -0.5066984978
O   O143      1.0  0.48889  0.84708  0.52464  1.0000 -0.5066984978
O   O144      1.0  0.51111  0.34708  0.97536  1.0000 -0.5066984978
O   O145      1.0  0.94310  0.01446  0.19737  1.0000 -0.4926288965
O   O146      1.0  0.55690  0.98554  0.69737  1.0000 -0.4926288965
O   O147      1.0  0.05690  0.51446  0.30263  1.0000 -0.4926288965
O   O148      1.0  0.44310  0.48554  0.80263  1.0000 -0.4926288965
O   O149      1.0  0.19737  0.94310  0.01446  1.0000 -0.4926288965
O   O150      1.0  0.69737  0.55690  0.98554  1.0000 -0.4926288965
O   O151      1.0  0.30263  0.05690  0.51446  1.0000 -0.4926288965
O   O152      1.0  0.80263  0.44310  0.48554  1.0000 -0.4926288965
O   O153      1.0  0.01446  0.19737  0.94310  1.0000 -0.4926288965
O   O154      1.0  0.98554  0.69737  0.55690  1.0000 -0.4926288965
O   O155      1.0  0.51446  0.30263  0.05690  1.0000 -0.4926288965
O   O156      1.0  0.48554  0.80263  0.44310  1.0000 -0.4926288965
O   O157      1.0  0.05690  0.98554  0.80263  1.0000 -0.4926288965
O   O158      1.0  0.44310  0.01446  0.30263  1.0000 -0.4926288965
O   O159      1.0  0.94310  0.48554  0.69737  1.0000 -0.4926288965
O   O160      1.0  0.55690  0.51446  0.19737  1.0000 -0.4926288965
O   O161      1.0  0.80263  0.05690  0.98554  1.0000 -0.4926288965
O   O162      1.0  0.30263  0.44310  0.01446  1.0000 -0.4926288965
O   O163      1.0  0.69737  0.94310  0.48554  1.0000 -0.4926288965
O   O164      1.0  0.19737  0.55690  0.51446  1.0000 -0.4926288965
O   O165      1.0  0.98554  0.80263  0.05690  1.0000 -0.4926288965
O   O166      1.0  0.01446  0.30263  0.44310  1.0000 -0.4926288965
O   O167      1.0  0.48554  0.69737  0.94310  1.0000 -0.4926288965
O   O168      1.0  0.51446  0.19737  0.55690  1.0000 -0.4926288965
O   O169      1.0  0.52197  0.01798  0.29892  1.0000 -0.4775185827
O   O170      1.0  0.97803  0.98202  0.79892  1.0000 -0.4746467948
O   O171      1.0  0.47803  0.51798  0.20108  1.0000 -0.4775185827
O   O172      1.0  0.02197  0.48202  0.70108  1.0000 -0.4775185827
O   O173      1.0  0.29892  0.52197  0.01798  1.0000 -0.4775185827
O   O174      1.0  0.79892  0.97803  0.98202  1.0000 -0.4775185827
O   O175      1.0  0.20108  0.47803  0.51798  1.0000 -0.4775185827
O   O176      1.0  0.70108  0.02197  0.48202  1.0000 -0.4775185827
O   O177      1.0  0.01798  0.29892  0.52197  1.0000 -0.4775185827
O   O178      1.0  0.98202  0.79892  0.97803  1.0000 -0.4775185827
O   O179      1.0  0.51798  0.20108  0.47803  1.0000 -0.4775185827
O   O180      1.0  0.48202  0.70108  0.02197  1.0000 -0.4775185827
O   O181      1.0  0.47803  0.98202  0.70108  1.0000 -0.4775185827
O   O182      1.0  0.02197  0.01798  0.20108  1.0000 -0.4775185827
O   O183      1.0  0.52197  0.48202  0.79892  1.0000 -0.4775185827
O   O184      1.0  0.97803  0.51798  0.29892  1.0000 -0.4775185827
O   O185      1.0  0.70108  0.47803  0.98202  1.0000 -0.4775185827
O   O186      1.0  0.20108  0.02197  0.01798  1.0000 -0.4775185827
O   O187      1.0  0.79892  0.52197  0.48202  1.0000 -0.4775185827
O   O188      1.0  0.29892  0.97803  0.51798  1.0000 -0.4775185827
O   O189      1.0  0.98202  0.70108  0.47803  1.0000 -0.4775185827
O   O190      1.0  0.01798  0.20108  0.02197  1.0000 -0.4775185827
O   O191      1.0  0.48202  0.79892  0.52197  1.0000 -0.4775185827
O   O192      1.0  0.51798  0.29892  0.97803  1.0000 -0.4775185827
