# DDEC6 charges by PACMAN v1.1 (https://github.com/mtap-research/PACMAN-charge/)
data_2016[V][bpq]3[ASR]3
_chemical_formula_sum              "V4 H16 C32 O20"
_cell_length_a       6.7999
_cell_length_b       12.7002
_cell_length_c       16.6802
_cell_angle_alpha    90
_cell_angle_beta     90
_cell_angle_gamma    90

_symmetry_space_group_name_H-M    "P 1"
_symmetry_Int_Tables_number       1

loop_
  _symmetry_equiv_pos_as_xyz
  'x, y, z'

loop_
  _atom_site_type_symbol
  _atom_site_label
  _atom_site_symmetry_multiplicity
  _atom_site_fract_x
  _atom_site_fract_y
  _atom_site_fract_z
  _atom_site_occupancy
  _atom_site_charge
V   V1        1.0  0.06350  0.76592  0.00184  1.0000 1.7995535063
V   V2        1.0  0.43650  0.23408  0.50184  1.0000 1.7995535063
V   V3        1.0  0.93650  0.26592  0.49816  1.0000 1.7995535063
V   V4        1.0  0.56350  0.73408  0.99816  1.0000 1.7995535063
H   H1        1.0  0.46340  0.97130  0.83130  1.0000 0.1305928288
H   H2        1.0  0.03660  0.02870  0.33130  1.0000 0.1305928288
H   H3        1.0  0.53660  0.47130  0.66870  1.0000 0.1305928288
H   H4        1.0  0.96340  0.52870  0.16870  1.0000 0.1305928288
H   H5        1.0  0.44520  0.07440  0.71740  1.0000 0.1305928288
H   H6        1.0  0.05480  0.92560  0.21740  1.0000 0.1305928288
H   H7        1.0  0.55480  0.57440  0.78260  1.0000 0.1305928288
H   H8        1.0  0.94520  0.42560  0.28260  1.0000 0.1305928288
H   H9        1.0  0.04900  0.01690  0.83900  1.0000 0.1305928288
H   H10       1.0  0.45100  0.98310  0.33900  1.0000 0.1305928288
H   H11       1.0  0.95100  0.51690  0.66100  1.0000 0.1305928288
H   H12       1.0  0.54900  0.48310  0.16100  1.0000 0.1305928288
H   H13       1.0  0.02830  0.12070  0.72490  1.0000 0.1305928288
H   H14       1.0  0.47170  0.87930  0.22490  1.0000 0.1305928288
H   H15       1.0  0.97170  0.62070  0.77510  1.0000 0.1305928288
H   H16       1.0  0.52830  0.37930  0.27510  1.0000 0.1305928288
C   C1        1.0  0.77370  0.90280  0.91146  1.0000 0.6182212832
C   C2        1.0  0.72630  0.09720  0.41146  1.0000 0.6182212832
C   C3        1.0  0.22630  0.40280  0.58854  1.0000 0.6182212832
C   C4        1.0  0.27370  0.59720  0.08854  1.0000 0.6182212832
C   C5        1.0  0.75940  0.98070  0.84470  1.0000 -0.0225827617
C   C6        1.0  0.74060  0.01930  0.34470  1.0000 -0.0225827617
C   C7        1.0  0.24060  0.48070  0.65530  1.0000 -0.0225827617
C   C8        1.0  0.25940  0.51930  0.15530  1.0000 -0.0225827617
C   C9        1.0  0.57710  0.99990  0.80930  1.0000 -0.0989302463
C   C10       1.0  0.92290  0.00010  0.30930  1.0000 -0.0989302463
C   C11       1.0  0.42290  0.49990  0.69070  1.0000 -0.0989302463
C   C12       1.0  0.07710  0.50010  0.19070  1.0000 -0.0989302463
C   C13       1.0  0.56640  0.06170  0.74140  1.0000 -0.0989302463
C   C14       1.0  0.93360  0.93830  0.24140  1.0000 -0.0989302463
C   C15       1.0  0.43360  0.56170  0.75860  1.0000 -0.0989302463
C   C16       1.0  0.06640  0.43830  0.25860  1.0000 -0.0989302463
C   C17       1.0  0.92830  0.02730  0.81400  1.0000 -0.1092424763
C   C18       1.0  0.57170  0.97270  0.31400  1.0000 -0.1092424763
C   C19       1.0  0.07170  0.52730  0.68600  1.0000 -0.1092424763
C   C20       1.0  0.42830  0.47270  0.18600  1.0000 -0.1092424763
C   C21       1.0  0.91570  0.08940  0.74570  1.0000 -0.0989302463
C   C22       1.0  0.58430  0.91060  0.24570  1.0000 -0.0989302463
C   C23       1.0  0.08430  0.58940  0.75430  1.0000 -0.0989302463
C   C24       1.0  0.41570  0.41060  0.25430  1.0000 -0.0989302463
C   C25       1.0  0.73600  0.10500  0.70874  1.0000 -0.0258424187
C   C26       1.0  0.76400  0.89500  0.20874  1.0000 -0.0258424187
C   C27       1.0  0.26400  0.60500  0.79126  1.0000 -0.0258424187
C   C28       1.0  0.23600  0.39500  0.29126  1.0000 -0.0258424187
C   C29       1.0  0.72540  0.16280  0.63098  1.0000 0.6182212832
C   C30       1.0  0.77460  0.83720  0.13098  1.0000 0.6182212832
C   C31       1.0  0.27460  0.66280  0.86902  1.0000 0.6182212832
C   C32       1.0  0.22540  0.33720  0.36902  1.0000 0.6182212832
O   O1        1.0  0.28250  0.81331  0.01264  1.0000 -0.7504667414
O   O2        1.0  0.21750  0.18669  0.51264  1.0000 -0.7504667414
O   O3        1.0  0.71750  0.31331  0.48736  1.0000 -0.7504667414
O   O4        1.0  0.78250  0.68669  0.98736  1.0000 -0.7504667414
O   O5        1.0  0.55770  0.17480  0.60049  1.0000 -0.5974470598
O   O6        1.0  0.94230  0.82520  0.10049  1.0000 -0.5974470598
O   O7        1.0  0.44230  0.67480  0.89951  1.0000 -0.5974470598
O   O8        1.0  0.05770  0.32520  0.39951  1.0000 -0.5974470598
O   O9        1.0  0.94200  0.87963  0.93690  1.0000 -0.5974470598
O   O10       1.0  0.55800  0.12037  0.43690  1.0000 -0.5974470598
O   O11       1.0  0.05800  0.37963  0.56310  1.0000 -0.5974470598
O   O12       1.0  0.44200  0.62037  0.06310  1.0000 -0.5974470598
O   O13       1.0  0.88520  0.19260  0.60073  1.0000 -0.5748258306
O   O14       1.0  0.61480  0.80740  0.10073  1.0000 -0.5748258306
O   O15       1.0  0.11480  0.69260  0.89927  1.0000 -0.5748258306
O   O16       1.0  0.38520  0.30740  0.39927  1.0000 -0.5748258306
O   O17       1.0  0.61410  0.86356  0.93584  1.0000 -0.5837223006
O   O18       1.0  0.88590  0.13644  0.43584  1.0000 -0.5837223006
O   O19       1.0  0.38590  0.36356  0.56416  1.0000 -0.5837223006
O   O20       1.0  0.11410  0.63644  0.06416  1.0000 -0.5837223006
