# DDEC6 charges by PACMAN v1.1 (https://github.com/mtap-research/PACMAN-charge/)
data_2016[In][nan]3[ASR]7
_chemical_formula_sum              "In4 H16 C32 O20"
_cell_length_a       12.4584
_cell_length_b       12.4584
_cell_length_c       12.4584
_cell_angle_alpha    103.931
_cell_angle_beta     103.931
_cell_angle_gamma    121.23

_symmetry_space_group_name_H-M    "P 1"
_symmetry_Int_Tables_number       1

loop_
  _symmetry_equiv_pos_as_xyz
  'x, y, z'

loop_
  _atom_site_type_symbol
  _atom_site_label
  _atom_site_symmetry_multiplicity
  _atom_site_fract_x
  _atom_site_fract_y
  _atom_site_fract_z
  _atom_site_occupancy
  _atom_site_charge
In  In1       1.0  0.56240  0.06240  0.12480  1.0000 1.5481191298
In  In2       1.0  0.68760  0.31240  0.00000  1.0000 1.5481191298
In  In3       1.0  0.93760  0.43760  0.87520  1.0000 1.5481191298
In  In4       1.0  0.31240  0.68760  0.00000  1.0000 1.5481191298
H   H1        1.0  0.62500  0.05810  0.93310  1.0000 0.39387122
H   H2        1.0  0.94190  0.37500  0.06690  1.0000 0.39387122
H   H3        1.0  0.12500  0.69190  0.06690  1.0000 0.39387122
H   H4        1.0  0.30810  0.87500  0.93310  1.0000 0.39387122
H   H5        1.0  0.63340  0.63340  0.00000  1.0000 0.1406539997
H   H6        1.0  0.88340  0.38340  0.50000  1.0000 0.1406539997
H   H7        1.0  0.61660  0.11660  0.50000  1.0000 0.1406539997
H   H8        1.0  0.36660  0.36660  0.00000  1.0000 0.1406539997
H   H9        1.0  0.85860  0.03700  0.05620  1.0000 0.1200141349
H   H10       1.0  0.05240  0.60860  0.32160  1.0000 0.1200141349
H   H11       1.0  0.98080  0.80240  0.94380  1.0000 0.1200141349
H   H12       1.0  0.28700  0.73080  0.67840  1.0000 0.1200141349
H   H13       1.0  0.26920  0.71300  0.32160  1.0000 0.1200141349
H   H14       1.0  0.39140  0.94760  0.67840  1.0000 0.1200141349
H   H15       1.0  0.19760  0.01920  0.05620  1.0000 0.1200141349
H   H16       1.0  0.96300  0.14140  0.94380  1.0000 0.1200141349
C   C1        1.0  0.71110  0.71110  0.00000  1.0000 -0.0925138275
C   C2        1.0  0.96110  0.46110  0.50000  1.0000 -0.0925138275
C   C3        1.0  0.53890  0.03890  0.50000  1.0000 -0.0925138275
C   C4        1.0  0.28890  0.28890  0.00000  1.0000 -0.0925138275
C   C5        1.0  0.72940  0.83610  0.02790  1.0000 -0.0292400104
C   C6        1.0  0.95150  0.47940  0.39330  1.0000 -0.0292400104
C   C7        1.0  0.80820  0.70150  0.97210  1.0000 -0.0292400104
C   C8        1.0  0.08610  0.55820  0.60670  1.0000 -0.0292400104
C   C9        1.0  0.44180  0.91390  0.39330  1.0000 -0.0292400104
C   C10       1.0  0.52060  0.04850  0.60670  1.0000 -0.0292400104
C   C11       1.0  0.29850  0.19180  0.02790  1.0000 -0.0292400104
C   C12       1.0  0.16390  0.27060  0.97210  1.0000 -0.0292400104
C   C13       1.0  0.84430  0.95050  0.03180  1.0000 -0.1306926271
C   C14       1.0  0.06250  0.59430  0.39380  1.0000 -0.1306926271
C   C15       1.0  0.91870  0.81250  0.96820  1.0000 -0.1306926271
C   C16       1.0  0.20050  0.66870  0.60620  1.0000 -0.1306926271
C   C17       1.0  0.33130  0.79950  0.39380  1.0000 -0.1306926271
C   C18       1.0  0.40570  0.93750  0.60620  1.0000 -0.1306926271
C   C19       1.0  0.18750  0.08130  0.03180  1.0000 -0.1306926271
C   C20       1.0  0.04950  0.15570  0.96820  1.0000 -0.1306926271
C   C21       1.0  0.94040  0.94040  0.00000  1.0000 0.067486588
C   C22       1.0  0.19040  0.69040  0.50000  1.0000 0.067486588
C   C23       1.0  0.30960  0.80960  0.50000  1.0000 0.067486588
C   C24       1.0  0.05960  0.05960  0.00000  1.0000 0.067486588
C   C25       1.0  0.62150  0.84310  0.05140  1.0000 0.6000479256
C   C26       1.0  0.82010  0.37150  0.27840  1.0000 0.6000479256
C   C27       1.0  0.79170  0.57010  0.94860  1.0000 0.6000479256
C   C28       1.0  0.09310  0.54170  0.72160  1.0000 0.6000479256
C   C29       1.0  0.45830  0.90690  0.27840  1.0000 0.6000479256
C   C30       1.0  0.62850  0.17990  0.72160  1.0000 0.6000479256
C   C31       1.0  0.42990  0.20830  0.05140  1.0000 0.6000479256
C   C32       1.0  0.15690  0.37850  0.94860  1.0000 0.6000479256
O   O1        1.0  0.66350  0.96590  0.11660  1.0000 -0.5913311745
O   O2        1.0  0.79690  0.41350  0.19760  1.0000 -0.5913311745
O   O3        1.0  0.84930  0.54690  0.88340  1.0000 -0.5913311745
O   O4        1.0  0.21590  0.59930  0.80240  1.0000 -0.5913311745
O   O5        1.0  0.40070  0.78410  0.19760  1.0000 -0.5913311745
O   O6        1.0  0.58650  0.20310  0.80240  1.0000 -0.5913311745
O   O7        1.0  0.45310  0.15070  0.11660  1.0000 -0.5913311745
O   O8        1.0  0.03410  0.33650  0.88340  1.0000 -0.5913311745
O   O9        1.0  0.50290  0.73110  0.00560  1.0000 -0.5310635472
O   O10       1.0  0.74730  0.25290  0.27180  1.0000 -0.5310635472
O   O11       1.0  0.72550  0.49730  0.99440  1.0000 -0.5310635472
O   O12       1.0  0.98110  0.47550  0.72820  1.0000 -0.5310635472
O   O13       1.0  0.52450  0.01890  0.27180  1.0000 -0.5310635472
O   O14       1.0  0.74710  0.25270  0.72820  1.0000 -0.5310635472
O   O15       1.0  0.50270  0.27450  0.00560  1.0000 -0.5310635472
O   O16       1.0  0.26890  0.49710  0.99440  1.0000 -0.5310635472
O   O17       1.0  0.62500  0.12000  0.99500  1.0000 -0.9330865125
O   O18       1.0  0.88000  0.37500  0.00500  1.0000 -0.9330865125
O   O19       1.0  0.12500  0.63000  0.00500  1.0000 -0.9330865125
O   O20       1.0  0.37000  0.87500  0.99500  1.0000 -0.9330865125
