# DDEC6 charges by PACMAN v1.1 (https://github.com/mtap-research/PACMAN-charge/)
data_2016[Co][nan]3[ASR]26
_chemical_formula_sum              "Co12 H160 C264 N8 O52"
_cell_length_a       17.7087
_cell_length_b       17.7087
_cell_length_c       29.424
_cell_angle_alpha    75.5718
_cell_angle_beta     104.428
_cell_angle_gamma    113.914

_symmetry_space_group_name_H-M    "P 1"
_symmetry_Int_Tables_number       1

loop_
  _symmetry_equiv_pos_as_xyz
  'x, y, z'

loop_
  _atom_site_type_symbol
  _atom_site_label
  _atom_site_symmetry_multiplicity
  _atom_site_fract_x
  _atom_site_fract_y
  _atom_site_fract_z
  _atom_site_occupancy
  _atom_site_charge
Co  Co1       1.0  0.62450  0.02634  0.73030  1.0000 0.9912127796
Co  Co2       1.0  0.97366  0.37550  0.23030  1.0000 0.9912127796
Co  Co3       1.0  0.61199  0.98987  0.61886  1.0000 0.9912127796
Co  Co4       1.0  0.01013  0.38801  0.11886  1.0000 0.9912127796
Co  Co5       1.0  0.47502  0.86070  0.70044  1.0000 1.0211882162
Co  Co6       1.0  0.13930  0.52498  0.20044  1.0000 1.0211882162
Co  Co7       1.0  0.02634  0.62450  0.76970  1.0000 0.9912127796
Co  Co8       1.0  0.37550  0.97366  0.26970  1.0000 0.9912127796
Co  Co9       1.0  0.98987  0.61199  0.88114  1.0000 0.9912127796
Co  Co10      1.0  0.38801  0.01013  0.38114  1.0000 0.9912127796
Co  Co11      1.0  0.86070  0.47502  0.79956  1.0000 1.0211882162
Co  Co12      1.0  0.52498  0.13930  0.29956  1.0000 1.0211882162
H   H1        1.0  0.40630  0.21750  0.73260  1.0000 0.1191178017
H   H2        1.0  0.78250  0.59370  0.23260  1.0000 0.1191178017
H   H3        1.0  0.56330  0.95390  0.51360  1.0000 0.1127100051
H   H4        1.0  0.04610  0.43670  0.01360  1.0000 0.1127100051
H   H5        1.0  0.40580  0.75160  0.56840  1.0000 0.1191178017
H   H6        1.0  0.24840  0.59420  0.06840  1.0000 0.1191178017
H   H7        1.0  0.51430  0.17350  0.54710  1.0000 0.1191178017
H   H8        1.0  0.82650  0.48570  0.04710  1.0000 0.1191178017
H   H9        1.0  0.55850  0.24010  0.67480  1.0000 0.1191178017
H   H10       1.0  0.75990  0.44150  0.17480  1.0000 0.1191178017
H   H11       1.0  0.47270  0.12390  0.74530  1.0000 0.1191178017
H   H12       1.0  0.87610  0.52730  0.24530  1.0000 0.1191178017
H   H13       1.0  0.14510  0.12570  0.68080  1.0000 0.1191178017
H   H14       1.0  0.87430  0.85490  0.18080  1.0000 0.1191178017
H   H15       1.0  0.63250  0.73410  0.61380  1.0000 0.1287198122
H   H16       1.0  0.26590  0.36750  0.11380  1.0000 0.1287198122
H   H17       1.0  0.35270  0.62070  0.54790  1.0000 0.1191178017
H   H18       1.0  0.37930  0.64730  0.04790  1.0000 0.1191178017
H   H19       1.0  0.80710  0.25890  0.43260  1.0000 0.1191178017
H   H20       1.0  0.74110  0.19290  0.93260  1.0000 0.1191178017
H   H21       1.0  0.59910  0.01690  0.43990  1.0000 0.1539043988
H   H22       1.0  0.98310  0.40090  0.93990  1.0000 0.1539043988
H   H23       1.0  0.49570  0.33730  0.64130  1.0000 0.1191178017
H   H24       1.0  0.66270  0.50430  0.14130  1.0000 0.1191178017
H   H25       1.0  0.35970  0.32450  0.67970  1.0000 0.1191178017
H   H26       1.0  0.67550  0.64030  0.17970  1.0000 0.1191178017
H   H27       1.0  0.28910  0.99130  0.65230  1.0000 0.1191178017
H   H28       1.0  0.00870  0.71090  0.15230  1.0000 0.1191178017
H   H29       1.0  0.68350  0.13670  0.38710  1.0000 0.1404092876
H   H30       1.0  0.86330  0.31650  0.88710  1.0000 0.1404092876
H   H31       1.0  0.35360  0.32400  0.49710  1.0000 0.1191178017
H   H32       1.0  0.67600  0.64640  0.99710  1.0000 0.1191178017
H   H33       1.0  0.14680  0.35280  0.68050  1.0000 0.1191178017
H   H34       1.0  0.64720  0.85320  0.18050  1.0000 0.1191178017
H   H35       1.0  0.45850  0.27570  0.51310  1.0000 0.1127100051
H   H36       1.0  0.72430  0.54150  0.01310  1.0000 0.1127100051
H   H37       1.0  0.42360  0.44260  0.70090  1.0000 0.1127100051
H   H38       1.0  0.55740  0.57640  0.20090  1.0000 0.1127100051
H   H39       1.0  0.49690  0.45970  0.59890  1.0000 0.1127100051
H   H40       1.0  0.54030  0.50310  0.09890  1.0000 0.1127100051
H   H41       1.0  0.97720  0.41760  0.32410  1.0000 0.1191178017
H   H42       1.0  0.58240  0.02280  0.82410  1.0000 0.1191178017
H   H43       1.0  0.21100  0.31400  0.44930  1.0000 0.1191178017
H   H44       1.0  0.68600  0.78900  0.94930  1.0000 0.1191178017
H   H45       1.0  0.73440  0.18820  0.31860  1.0000 0.1404092876
H   H46       1.0  0.81180  0.26560  0.81860  1.0000 0.1404092876
H   H47       1.0  0.49520  0.58200  0.70550  1.0000 0.1191178017
H   H48       1.0  0.41800  0.50480  0.20550  1.0000 0.1191178017
H   H49       1.0  0.35290  0.55230  0.49110  1.0000 0.1191178017
H   H50       1.0  0.44770  0.64710  0.99110  1.0000 0.1191178017
H   H51       1.0  0.57910  0.60230  0.59330  1.0000 0.1127100051
H   H52       1.0  0.39770  0.42090  0.09330  1.0000 0.1127100051
H   H53       1.0  0.22070  0.08230  0.64180  1.0000 0.1191178017
H   H54       1.0  0.91770  0.77930  0.14180  1.0000 0.1191178017
H   H55       1.0  0.75510  0.21930  0.49610  1.0000 0.1287198122
H   H56       1.0  0.78070  0.24490  0.99610  1.0000 0.1287198122
H   H57       1.0  0.80450  0.24550  0.25580  1.0000 0.1191178017
H   H58       1.0  0.75450  0.19550  0.75580  1.0000 0.1191178017
H   H59       1.0  0.03990  0.24270  0.73680  1.0000 0.1127100051
H   H60       1.0  0.75730  0.96010  0.23680  1.0000 0.1127100051
H   H61       1.0  0.86580  0.07400  0.62700  1.0000 0.1191178017
H   H62       1.0  0.92600  0.13420  0.12700  1.0000 0.1191178017
H   H63       1.0  0.35190  0.55430  0.41160  1.0000 0.1127100051
H   H64       1.0  0.44570  0.64810  0.91160  1.0000 0.1127100051
H   H65       1.0  0.27360  0.55500  0.33640  1.0000 0.1287198122
H   H66       1.0  0.44500  0.72640  0.83640  1.0000 0.1287198122
H   H67       1.0  0.71600  0.15140  0.56760  1.0000 0.1191178017
H   H68       1.0  0.84860  0.28400  0.06760  1.0000 0.1191178017
H   H69       1.0  0.12750  0.31590  0.37490  1.0000 0.1191178017
H   H70       1.0  0.68410  0.87250  0.87490  1.0000 0.1191178017
H   H71       1.0  0.20880  0.48280  0.65780  1.0000 0.1191178017
H   H72       1.0  0.51720  0.79120  0.15780  1.0000 0.1191178017
H   H73       1.0  0.28010  0.62210  0.66280  1.0000 0.1191178017
H   H74       1.0  0.37790  0.71990  0.16280  1.0000 0.1191178017
H   H75       1.0  0.89930  0.17390  0.74160  1.0000 0.1191178017
H   H76       1.0  0.82610  0.10070  0.24160  1.0000 0.1191178017
H   H77       1.0  0.00860  0.13320  0.62710  1.0000 0.1191178017
H   H78       1.0  0.86680  0.99140  0.12710  1.0000 0.1191178017
H   H79       1.0  0.91260  0.36440  0.39000  1.0000 0.1404092876
H   H80       1.0  0.63560  0.08740  0.89000  1.0000 0.1404092876
H   H81       1.0  0.21750  0.40630  0.76740  1.0000 0.1191178017
H   H82       1.0  0.59370  0.78250  0.26740  1.0000 0.1191178017
H   H83       1.0  0.95390  0.56330  0.98640  1.0000 0.1127100051
H   H84       1.0  0.43670  0.04610  0.48640  1.0000 0.1127100051
H   H85       1.0  0.75160  0.40580  0.93160  1.0000 0.1191178017
H   H86       1.0  0.59420  0.24840  0.43160  1.0000 0.1191178017
H   H87       1.0  0.17350  0.51430  0.95290  1.0000 0.1191178017
H   H88       1.0  0.48570  0.82650  0.45290  1.0000 0.1191178017
H   H89       1.0  0.24010  0.55850  0.82520  1.0000 0.1191178017
H   H90       1.0  0.44150  0.75990  0.32520  1.0000 0.1191178017
H   H91       1.0  0.12390  0.47270  0.75470  1.0000 0.1191178017
H   H92       1.0  0.52730  0.87610  0.25470  1.0000 0.1191178017
H   H93       1.0  0.12570  0.14510  0.81920  1.0000 0.1191178017
H   H94       1.0  0.85490  0.87430  0.31920  1.0000 0.1191178017
H   H95       1.0  0.73410  0.63250  0.88620  1.0000 0.1287198122
H   H96       1.0  0.36750  0.26590  0.38620  1.0000 0.1287198122
H   H97       1.0  0.62070  0.35270  0.95210  1.0000 0.1191178017
H   H98       1.0  0.64730  0.37930  0.45210  1.0000 0.1191178017
H   H99       1.0  0.25890  0.80710  0.06740  1.0000 0.1191178017
H   H100      1.0  0.19290  0.74110  0.56740  1.0000 0.1191178017
H   H101      1.0  0.01690  0.59910  0.06010  1.0000 0.1539043988
H   H102      1.0  0.40090  0.98310  0.56010  1.0000 0.1539043988
H   H103      1.0  0.33730  0.49570  0.85870  1.0000 0.1191178017
H   H104      1.0  0.50430  0.66270  0.35870  1.0000 0.1191178017
H   H105      1.0  0.32450  0.35970  0.82030  1.0000 0.1191178017
H   H106      1.0  0.64030  0.67550  0.32030  1.0000 0.1191178017
H   H107      1.0  0.99130  0.28910  0.84770  1.0000 0.1191178017
H   H108      1.0  0.71090  0.00870  0.34770  1.0000 0.1191178017
H   H109      1.0  0.13670  0.68350  0.11290  1.0000 0.1404092876
H   H110      1.0  0.31650  0.86330  0.61290  1.0000 0.1404092876
H   H111      1.0  0.32400  0.35360  0.00290  1.0000 0.1191178017
H   H112      1.0  0.64640  0.67600  0.50290  1.0000 0.1191178017
H   H113      1.0  0.35280  0.14680  0.81950  1.0000 0.1191178017
H   H114      1.0  0.85320  0.64720  0.31950  1.0000 0.1191178017
H   H115      1.0  0.27570  0.45850  0.98690  1.0000 0.1127100051
H   H116      1.0  0.54150  0.72430  0.48690  1.0000 0.1127100051
H   H117      1.0  0.44260  0.42360  0.79910  1.0000 0.1127100051
H   H118      1.0  0.57640  0.55740  0.29910  1.0000 0.1127100051
H   H119      1.0  0.45970  0.49690  0.90110  1.0000 0.1127100051
H   H120      1.0  0.50310  0.54030  0.40110  1.0000 0.1127100051
H   H121      1.0  0.41760  0.97720  0.17590  1.0000 0.1191178017
H   H122      1.0  0.02280  0.58240  0.67590  1.0000 0.1191178017
H   H123      1.0  0.31400  0.21100  0.05070  1.0000 0.1191178017
H   H124      1.0  0.78900  0.68600  0.55070  1.0000 0.1191178017
H   H125      1.0  0.18820  0.73440  0.18140  1.0000 0.1404092876
H   H126      1.0  0.26560  0.81180  0.68140  1.0000 0.1404092876
H   H127      1.0  0.58200  0.49520  0.79450  1.0000 0.1191178017
H   H128      1.0  0.50480  0.41800  0.29450  1.0000 0.1191178017
H   H129      1.0  0.55230  0.35290  0.00890  1.0000 0.1127100051
H   H130      1.0  0.64710  0.44770  0.50890  1.0000 0.1127100051
H   H131      1.0  0.60230  0.57910  0.90670  1.0000 0.1127100051
H   H132      1.0  0.42090  0.39770  0.40670  1.0000 0.1127100051
H   H133      1.0  0.08230  0.22070  0.85820  1.0000 0.1191178017
H   H134      1.0  0.77930  0.91770  0.35820  1.0000 0.1191178017
H   H135      1.0  0.21930  0.75510  0.00390  1.0000 0.1287198122
H   H136      1.0  0.24490  0.78070  0.50390  1.0000 0.1287198122
H   H137      1.0  0.24550  0.80450  0.24420  1.0000 0.1191178017
H   H138      1.0  0.19550  0.75450  0.74420  1.0000 0.1191178017
H   H139      1.0  0.24270  0.03990  0.76320  1.0000 0.1127100051
H   H140      1.0  0.96010  0.75730  0.26320  1.0000 0.1127100051
H   H141      1.0  0.07400  0.86580  0.87300  1.0000 0.1191178017
H   H142      1.0  0.13420  0.92600  0.37300  1.0000 0.1191178017
H   H143      1.0  0.55430  0.35190  0.08840  1.0000 0.1127100051
H   H144      1.0  0.64810  0.44570  0.58840  1.0000 0.1127100051
H   H145      1.0  0.55500  0.27360  0.16360  1.0000 0.1287198122
H   H146      1.0  0.72640  0.44500  0.66360  1.0000 0.1287198122
H   H147      1.0  0.15140  0.71600  0.93240  1.0000 0.1191178017
H   H148      1.0  0.28400  0.84860  0.43240  1.0000 0.1191178017
H   H149      1.0  0.31590  0.12750  0.12510  1.0000 0.1191178017
H   H150      1.0  0.87250  0.68410  0.62510  1.0000 0.1191178017
H   H151      1.0  0.48280  0.20880  0.84220  1.0000 0.1191178017
H   H152      1.0  0.79120  0.51720  0.34220  1.0000 0.1191178017
H   H153      1.0  0.62210  0.28010  0.83720  1.0000 0.1191178017
H   H154      1.0  0.71990  0.37790  0.33720  1.0000 0.1191178017
H   H155      1.0  0.17390  0.89930  0.75840  1.0000 0.1191178017
H   H156      1.0  0.10070  0.82610  0.25840  1.0000 0.1191178017
H   H157      1.0  0.13320  0.00860  0.87290  1.0000 0.1191178017
H   H158      1.0  0.99140  0.86680  0.37290  1.0000 0.1191178017
H   H159      1.0  0.36440  0.91260  0.11000  1.0000 0.1404092876
H   H160      1.0  0.08740  0.63560  0.61000  1.0000 0.1404092876
C   C1        1.0  0.43439  0.99017  0.70777  1.0000 0.5790313277
C   C2        1.0  0.00983  0.56561  0.20777  1.0000 0.5790313277
C   C3        1.0  0.44068  0.70684  0.69109  1.0000 0.5389308799
C   C4        1.0  0.29316  0.55932  0.19109  1.0000 0.5389308799
C   C5        1.0  0.38226  0.17154  0.71696  1.0000 -0.1508578994
C   C6        1.0  0.82846  0.61774  0.21696  1.0000 -0.1508578994
C   C7        1.0  0.57398  0.12626  0.63707  1.0000 0.5790313277
C   C8        1.0  0.87374  0.42602  0.13707  1.0000 0.5790313277
C   C9        1.0  0.60391  0.00761  0.51020  1.0000 0.0873648336
C   C10       1.0  0.99239  0.39609  0.01020  1.0000 0.0873648336
C   C11       1.0  0.38778  0.04732  0.70058  1.0000 -0.022580337
C   C12       1.0  0.95268  0.61222  0.20058  1.0000 -0.022580337
C   C13       1.0  0.52544  0.75728  0.59163  1.0000 -0.0146677383
C   C14       1.0  0.24272  0.47456  0.09163  1.0000 -0.0146677383
C   C15       1.0  0.39466  0.61706  0.68625  1.0000 -0.0146677383
C   C16       1.0  0.38294  0.60534  0.18625  1.0000 -0.0146677383
C   C17       1.0  0.55968  0.84376  0.60252  1.0000 0.5389308799
C   C18       1.0  0.15624  0.44032  0.10252  1.0000 0.5389308799
C   C19       1.0  0.43212  0.38208  0.55111  1.0000 0.08207564
C   C20       1.0  0.61792  0.56788  0.05111  1.0000 0.08207564
C   C21       1.0  0.44077  0.72203  0.57277  1.0000 -0.0984404541
C   C22       1.0  0.27797  0.55923  0.07277  1.0000 -0.0984404541
C   C23       1.0  0.13055  0.23365  0.68030  1.0000 0.0873648336
C   C24       1.0  0.76635  0.86945  0.18030  1.0000 0.0873648336
C   C25       1.0  0.51109  0.20671  0.56604  1.0000 -0.0984404541
C   C26       1.0  0.79329  0.48891  0.06604  1.0000 -0.0984404541
C   C27       1.0  0.53662  0.24576  0.64251  1.0000 -0.0984404541
C   C28       1.0  0.75424  0.46338  0.14251  1.0000 -0.0984404541
C   C29       1.0  0.68507  0.12417  0.45961  1.0000 0.1677000391
C   C30       1.0  0.87583  0.31493  0.95961  1.0000 0.1677000391
C   C31       1.0  0.77564  0.07506  0.68511  1.0000 0.5976937282
C   C32       1.0  0.92494  0.22436  0.18511  1.0000 0.5976937282
C   C33       1.0  0.54074  0.19516  0.61483  1.0000 -0.022580337
C   C34       1.0  0.80484  0.45926  0.11483  1.0000 -0.022580337
C   C35       1.0  0.42236  0.11570  0.72435  1.0000 -0.0923387219
C   C36       1.0  0.88430  0.57764  0.22435  1.0000 -0.0923387219
C   C37       1.0  0.17412  0.18268  0.68083  1.0000 -0.188558284
C   C38       1.0  0.81732  0.82588  0.18083  1.0000 -0.188558284
C   C39       1.0  0.14206  0.43794  0.29860  1.0000 0.5906913001
C   C40       1.0  0.56206  0.85794  0.79860  1.0000 0.5906913001
C   C41       1.0  0.57655  0.71165  0.59995  1.0000 -0.0923387219
C   C42       1.0  0.28835  0.42345  0.09995  1.0000 -0.0923387219
C   C43       1.0  0.40919  0.64381  0.56062  1.0000 -0.1508578994
C   C44       1.0  0.35619  0.59081  0.06062  1.0000 -0.1508578994
C   C45       1.0  0.46925  0.31675  0.57342  1.0000 0.0704239631
C   C46       1.0  0.68325  0.53075  0.07342  1.0000 0.0704239631
C   C47       1.0  0.30767  0.44589  0.68009  1.0000 0.0704239631
C   C48       1.0  0.55411  0.69233  0.18009  1.0000 0.0704239631
C   C49       1.0  0.78048  0.23072  0.40685  1.0000 -0.1379118395
C   C50       1.0  0.76928  0.21952  0.90685  1.0000 -0.1379118395
C   C51       1.0  0.62520  0.04508  0.46561  1.0000 -0.1676466298
C   C52       1.0  0.95492  0.37480  0.96561  1.0000 -0.1676466298
C   C53       1.0  0.49992  0.30502  0.62218  1.0000 -0.1585315941
C   C54       1.0  0.69498  0.50008  0.12218  1.0000 -0.1585315941
C   C55       1.0  0.25975  0.21605  0.68144  1.0000 0.08207564
C   C56       1.0  0.78395  0.74025  0.18144  1.0000 0.08207564
C   C57       1.0  0.30568  0.15908  0.68600  1.0000 0.0704239631
C   C58       1.0  0.84092  0.69432  0.18600  1.0000 0.0704239631
C   C59       1.0  0.30238  0.30178  0.68021  1.0000 -0.188558284
C   C60       1.0  0.69822  0.69762  0.18021  1.0000 -0.188558284
C   C61       1.0  0.31209  0.03599  0.66891  1.0000 -0.0984404541
C   C62       1.0  0.96401  0.68791  0.16891  1.0000 -0.0984404541
C   C63       1.0  0.71420  0.16260  0.41333  1.0000 -0.0984404541
C   C64       1.0  0.83740  0.28580  0.91333  1.0000 -0.0984404541
C   C65       1.0  0.81673  0.26687  0.36320  1.0000 0.1677000391
C   C66       1.0  0.73313  0.18327  0.86320  1.0000 0.1677000391
C   C67       1.0  0.37359  0.37341  0.50949  1.0000 -0.188558284
C   C68       1.0  0.62659  0.62641  0.00949  1.0000 -0.188558284
C   C69       1.0  0.17514  0.31888  0.68021  1.0000 -0.188558284
C   C70       1.0  0.68112  0.82486  0.18021  1.0000 -0.188558284
C   C71       1.0  0.28971  0.43469  0.43869  1.0000 0.0704239631
C   C72       1.0  0.56531  0.71029  0.93869  1.0000 0.0704239631
C   C73       1.0  0.47687  0.26753  0.54576  1.0000 -0.1508578994
C   C74       1.0  0.73247  0.52313  0.04576  1.0000 -0.1508578994
C   C75       1.0  0.19219  0.43541  0.34804  1.0000 -0.022580337
C   C76       1.0  0.56459  0.80781  0.84804  1.0000 -0.022580337
C   C77       1.0  0.26055  0.35461  0.67967  1.0000 0.08207564
C   C78       1.0  0.64539  0.73945  0.17967  1.0000 0.08207564
C   C79       1.0  0.39408  0.47832  0.69360  1.0000 -0.1585315941
C   C80       1.0  0.52168  0.60592  0.19360  1.0000 -0.1585315941
C   C81       1.0  0.45874  0.45426  0.57071  1.0000 -0.188558284
C   C82       1.0  0.54574  0.54126  0.07071  1.0000 -0.188558284
C   C83       1.0  0.92867  0.36973  0.32348  1.0000 0.0999471489
C   C84       1.0  0.63027  0.07133  0.82348  1.0000 0.0999471489
C   C85       1.0  0.22285  0.36295  0.42697  1.0000 -0.1585315941
C   C86       1.0  0.63705  0.77715  0.92697  1.0000 -0.1585315941
C   C87       1.0  0.78461  0.23383  0.32111  1.0000 -0.188558284
C   C88       1.0  0.76617  0.21539  0.82111  1.0000 -0.188558284
C   C89       1.0  0.43716  0.56204  0.69657  1.0000 -0.0923387219
C   C90       1.0  0.43796  0.56284  0.19657  1.0000 -0.0923387219
C   C91       1.0  0.37252  0.50948  0.50633  1.0000 -0.188558284
C   C92       1.0  0.49052  0.62748  0.00633  1.0000 -0.188558284
C   C93       1.0  0.54445  0.63255  0.58768  1.0000 -0.1508578994
C   C94       1.0  0.36745  0.45555  0.08768  1.0000 -0.1508578994
C   C95       1.0  0.27159  0.09101  0.66236  1.0000 -0.1508578994
C   C96       1.0  0.90899  0.72841  0.16236  1.0000 -0.1508578994
C   C97       1.0  0.46057  0.59803  0.56702  1.0000 0.0704239631
C   C98       1.0  0.40197  0.53943  0.06702  1.0000 0.0704239631
C   C99       1.0  0.34449  0.43711  0.48614  1.0000 0.08207564
C   C100      1.0  0.56289  0.65551  0.98614  1.0000 0.08207564
C   C101      1.0  0.71716  0.16424  0.49896  1.0000 -0.1960956362
C   C102      1.0  0.83576  0.28284  0.99896  1.0000 -0.1960956362
C   C103      1.0  0.82716  0.26878  0.28344  1.0000 0.0999471489
C   C104      1.0  0.73122  0.17284  0.78344  1.0000 0.0999471489
C   C105      1.0  0.00544  0.20716  0.71534  1.0000 -0.1508578994
C   C106      1.0  0.79284  0.99456  0.21534  1.0000 -0.1508578994
C   C107      1.0  0.42910  0.51870  0.54874  1.0000 0.08207564
C   C108      1.0  0.48130  0.57090  0.04874  1.0000 0.08207564
C   C109      1.0  0.90100  0.10620  0.65000  1.0000 -0.0923387219
C   C110      1.0  0.89380  0.09900  0.15000  1.0000 -0.0923387219
C   C111      1.0  0.30716  0.50584  0.40423  1.0000 -0.1508578994
C   C112      1.0  0.49416  0.69284  0.90423  1.0000 -0.1508578994
C   C113      1.0  0.03907  0.19505  0.68169  1.0000 0.0704239631
C   C114      1.0  0.80495  0.96093  0.18169  1.0000 0.0704239631
C   C115      1.0  0.26002  0.50678  0.35919  1.0000 -0.0923387219
C   C116      1.0  0.49322  0.73998  0.85919  1.0000 -0.0923387219
C   C117      1.0  0.69308  0.12312  0.54181  1.0000 0.0873648336
C   C118      1.0  0.87688  0.30692  0.04181  1.0000 0.0873648336
C   C119      1.0  0.86821  0.11705  0.68503  1.0000 -0.0255694297
C   C120      1.0  0.88295  0.13179  0.18503  1.0000 -0.0255694297
C   C121      1.0  0.17324  0.36356  0.38208  1.0000 -0.0984404541
C   C122      1.0  0.63644  0.82676  0.88208  1.0000 -0.0984404541
C   C123      1.0  0.26649  0.50211  0.66810  1.0000 -0.1585315941
C   C124      1.0  0.49789  0.73351  0.16810  1.0000 -0.1585315941
C   C125      1.0  0.30935  0.58605  0.67113  1.0000 -0.1070916262
C   C126      1.0  0.41395  0.69065  0.17113  1.0000 -0.1070916262
C   C127      1.0  0.92062  0.16698  0.71776  1.0000 -0.0923387219
C   C128      1.0  0.83302  0.07938  0.21776  1.0000 -0.0923387219
C   C129      1.0  0.98640  0.14320  0.64950  1.0000 -0.1508578994
C   C130      1.0  0.85680  0.01360  0.14950  1.0000 -0.1508578994
C   C131      1.0  0.88998  0.33822  0.36338  1.0000 -0.2129893546
C   C132      1.0  0.66178  0.11002  0.86338  1.0000 -0.2129893546
C   C133      1.0  0.99017  0.43439  0.79223  1.0000 0.5790313277
C   C134      1.0  0.56561  0.00983  0.29223  1.0000 0.5790313277
C   C135      1.0  0.70684  0.44068  0.80891  1.0000 0.5389308799
C   C136      1.0  0.55932  0.29316  0.30891  1.0000 0.5389308799
C   C137      1.0  0.17154  0.38226  0.78304  1.0000 -0.1508578994
C   C138      1.0  0.61774  0.82846  0.28304  1.0000 -0.1508578994
C   C139      1.0  0.12626  0.57398  0.86293  1.0000 0.5790313277
C   C140      1.0  0.42602  0.87374  0.36293  1.0000 0.5790313277
C   C141      1.0  0.00761  0.60391  0.98980  1.0000 0.0873648336
C   C142      1.0  0.39609  0.99239  0.48980  1.0000 0.0873648336
C   C143      1.0  0.04732  0.38778  0.79942  1.0000 -0.022580337
C   C144      1.0  0.61222  0.95268  0.29942  1.0000 -0.022580337
C   C145      1.0  0.75728  0.52544  0.90837  1.0000 -0.0146677383
C   C146      1.0  0.47456  0.24272  0.40837  1.0000 -0.0146677383
C   C147      1.0  0.61706  0.39466  0.81375  1.0000 -0.0146677383
C   C148      1.0  0.60534  0.38294  0.31375  1.0000 -0.0146677383
C   C149      1.0  0.84376  0.55968  0.89748  1.0000 0.5389308799
C   C150      1.0  0.44032  0.15624  0.39748  1.0000 0.5389308799
C   C151      1.0  0.38208  0.43212  0.94889  1.0000 0.08207564
C   C152      1.0  0.56788  0.61792  0.44889  1.0000 0.08207564
C   C153      1.0  0.72203  0.44077  0.92723  1.0000 -0.0984404541
C   C154      1.0  0.55923  0.27797  0.42723  1.0000 -0.0984404541
C   C155      1.0  0.23365  0.13055  0.81970  1.0000 0.0873648336
C   C156      1.0  0.86945  0.76635  0.31970  1.0000 0.0873648336
C   C157      1.0  0.20671  0.51109  0.93396  1.0000 -0.0984404541
C   C158      1.0  0.48891  0.79329  0.43396  1.0000 -0.0984404541
C   C159      1.0  0.24576  0.53662  0.85749  1.0000 -0.0984404541
C   C160      1.0  0.46338  0.75424  0.35749  1.0000 -0.0984404541
C   C161      1.0  0.12417  0.68507  0.04039  1.0000 0.1677000391
C   C162      1.0  0.31493  0.87583  0.54039  1.0000 0.1677000391
C   C163      1.0  0.07506  0.77564  0.81489  1.0000 0.5976937282
C   C164      1.0  0.22436  0.92494  0.31489  1.0000 0.5976937282
C   C165      1.0  0.19516  0.54074  0.88517  1.0000 -0.022580337
C   C166      1.0  0.45926  0.80484  0.38517  1.0000 -0.022580337
C   C167      1.0  0.11570  0.42236  0.77565  1.0000 -0.0923387219
C   C168      1.0  0.57764  0.88430  0.27565  1.0000 -0.0923387219
C   C169      1.0  0.18268  0.17412  0.81917  1.0000 -0.188558284
C   C170      1.0  0.82588  0.81732  0.31917  1.0000 -0.188558284
C   C171      1.0  0.43794  0.14206  0.20140  1.0000 0.5906913001
C   C172      1.0  0.85794  0.56206  0.70140  1.0000 0.5906913001
C   C173      1.0  0.71165  0.57655  0.90005  1.0000 -0.0923387219
C   C174      1.0  0.42345  0.28835  0.40005  1.0000 -0.0923387219
C   C175      1.0  0.64381  0.40919  0.93938  1.0000 -0.1508578994
C   C176      1.0  0.59081  0.35619  0.43938  1.0000 -0.1508578994
C   C177      1.0  0.31675  0.46925  0.92658  1.0000 0.0704239631
C   C178      1.0  0.53075  0.68325  0.42658  1.0000 0.0704239631
C   C179      1.0  0.44589  0.30767  0.81991  1.0000 0.0704239631
C   C180      1.0  0.69233  0.55411  0.31991  1.0000 0.0704239631
C   C181      1.0  0.23072  0.78048  0.09315  1.0000 -0.1379118395
C   C182      1.0  0.21952  0.76928  0.59315  1.0000 -0.1379118395
C   C183      1.0  0.04508  0.62520  0.03439  1.0000 -0.1676466298
C   C184      1.0  0.37480  0.95492  0.53439  1.0000 -0.1676466298
C   C185      1.0  0.30502  0.49992  0.87782  1.0000 -0.1585315941
C   C186      1.0  0.50008  0.69498  0.37782  1.0000 -0.1585315941
C   C187      1.0  0.21605  0.25975  0.81856  1.0000 0.08207564
C   C188      1.0  0.74025  0.78395  0.31856  1.0000 0.08207564
C   C189      1.0  0.15908  0.30568  0.81400  1.0000 0.0704239631
C   C190      1.0  0.69432  0.84092  0.31400  1.0000 0.0704239631
C   C191      1.0  0.30178  0.30238  0.81979  1.0000 -0.188558284
C   C192      1.0  0.69762  0.69822  0.31979  1.0000 -0.188558284
C   C193      1.0  0.03599  0.31209  0.83109  1.0000 -0.0984404541
C   C194      1.0  0.68791  0.96401  0.33109  1.0000 -0.0984404541
C   C195      1.0  0.16260  0.71420  0.08667  1.0000 -0.0984404541
C   C196      1.0  0.28580  0.83740  0.58667  1.0000 -0.0984404541
C   C197      1.0  0.26687  0.81673  0.13680  1.0000 0.1677000391
C   C198      1.0  0.18327  0.73313  0.63680  1.0000 0.1677000391
C   C199      1.0  0.37341  0.37359  0.99051  1.0000 -0.188558284
C   C200      1.0  0.62641  0.62659  0.49051  1.0000 -0.188558284
C   C201      1.0  0.31888  0.17514  0.81979  1.0000 -0.188558284
C   C202      1.0  0.82486  0.68112  0.31979  1.0000 -0.188558284
C   C203      1.0  0.43469  0.28971  0.06131  1.0000 0.0704239631
C   C204      1.0  0.71029  0.56531  0.56131  1.0000 0.0704239631
C   C205      1.0  0.26753  0.47687  0.95424  1.0000 -0.1508578994
C   C206      1.0  0.52313  0.73247  0.45424  1.0000 -0.1508578994
C   C207      1.0  0.43541  0.19219  0.15196  1.0000 -0.022580337
C   C208      1.0  0.80781  0.56459  0.65196  1.0000 -0.022580337
C   C209      1.0  0.35461  0.26055  0.82033  1.0000 0.08207564
C   C210      1.0  0.73945  0.64539  0.32033  1.0000 0.08207564
C   C211      1.0  0.47832  0.39408  0.80640  1.0000 -0.1585315941
C   C212      1.0  0.60592  0.52168  0.30640  1.0000 -0.1585315941
C   C213      1.0  0.45426  0.45874  0.92929  1.0000 -0.188558284
C   C214      1.0  0.54126  0.54574  0.42929  1.0000 -0.188558284
C   C215      1.0  0.36973  0.92867  0.17652  1.0000 0.0999471489
C   C216      1.0  0.07133  0.63027  0.67652  1.0000 0.0999471489
C   C217      1.0  0.36295  0.22285  0.07303  1.0000 -0.1585315941
C   C218      1.0  0.77715  0.63705  0.57303  1.0000 -0.1585315941
C   C219      1.0  0.23383  0.78461  0.17889  1.0000 -0.188558284
C   C220      1.0  0.21539  0.76617  0.67889  1.0000 -0.188558284
C   C221      1.0  0.56204  0.43716  0.80343  1.0000 -0.0923387219
C   C222      1.0  0.56284  0.43796  0.30343  1.0000 -0.0923387219
C   C223      1.0  0.50948  0.37252  0.99367  1.0000 -0.188558284
C   C224      1.0  0.62748  0.49052  0.49367  1.0000 -0.188558284
C   C225      1.0  0.63255  0.54445  0.91232  1.0000 -0.1508578994
C   C226      1.0  0.45555  0.36745  0.41232  1.0000 -0.1508578994
C   C227      1.0  0.09101  0.27159  0.83764  1.0000 -0.1508578994
C   C228      1.0  0.72841  0.90899  0.33764  1.0000 -0.1508578994
C   C229      1.0  0.59803  0.46057  0.93298  1.0000 0.0704239631
C   C230      1.0  0.53943  0.40197  0.43298  1.0000 0.0704239631
C   C231      1.0  0.43711  0.34449  0.01386  1.0000 0.0873648336
C   C232      1.0  0.65551  0.56289  0.51386  1.0000 0.08207564
C   C233      1.0  0.16424  0.71716  0.00104  1.0000 -0.1960956362
C   C234      1.0  0.28284  0.83576  0.50104  1.0000 -0.1960956362
C   C235      1.0  0.26878  0.82716  0.21656  1.0000 0.0999471489
C   C236      1.0  0.17284  0.73122  0.71656  1.0000 0.0999471489
C   C237      1.0  0.20716  0.00544  0.78466  1.0000 -0.1508578994
C   C238      1.0  0.99456  0.79284  0.28466  1.0000 -0.1508578994
C   C239      1.0  0.51870  0.42910  0.95126  1.0000 0.08207564
C   C240      1.0  0.57090  0.48130  0.45126  1.0000 0.08207564
C   C241      1.0  0.10620  0.90100  0.85000  1.0000 -0.0923387219
C   C242      1.0  0.09900  0.89380  0.35000  1.0000 -0.0923387219
C   C243      1.0  0.50584  0.30716  0.09577  1.0000 -0.1508578994
C   C244      1.0  0.69284  0.49416  0.59577  1.0000 -0.1508578994
C   C245      1.0  0.19505  0.03907  0.81831  1.0000 0.0704239631
C   C246      1.0  0.96093  0.80495  0.31831  1.0000 0.0704239631
C   C247      1.0  0.50678  0.26002  0.14081  1.0000 -0.0923387219
C   C248      1.0  0.73998  0.49322  0.64081  1.0000 -0.0923387219
C   C249      1.0  0.12312  0.69308  0.95819  1.0000 0.0873648336
C   C250      1.0  0.30692  0.87688  0.45819  1.0000 0.0873648336
C   C251      1.0  0.11705  0.86821  0.81497  1.0000 -0.0255694297
C   C252      1.0  0.13179  0.88295  0.31497  1.0000 -0.0255694297
C   C253      1.0  0.36356  0.17324  0.11792  1.0000 -0.0984404541
C   C254      1.0  0.82676  0.63644  0.61792  1.0000 -0.0984404541
C   C255      1.0  0.50211  0.26649  0.83190  1.0000 -0.1585315941
C   C256      1.0  0.73351  0.49789  0.33190  1.0000 -0.1585315941
C   C257      1.0  0.58605  0.30935  0.82887  1.0000 -0.1070916262
C   C258      1.0  0.69065  0.41395  0.32887  1.0000 -0.1070916262
C   C259      1.0  0.16698  0.92062  0.78224  1.0000 -0.0923387219
C   C260      1.0  0.07938  0.83302  0.28224  1.0000 -0.0923387219
C   C261      1.0  0.14320  0.98640  0.85050  1.0000 -0.1508578994
C   C262      1.0  0.01360  0.85680  0.35050  1.0000 -0.1508578994
C   C263      1.0  0.33822  0.88998  0.13662  1.0000 -0.2129893546
C   C264      1.0  0.11002  0.66178  0.63662  1.0000 -0.2129893546
N   N1        1.0  0.63851  0.04453  0.54870  1.0000 -0.2457490992
N   N2        1.0  0.95547  0.36149  0.04870  1.0000 -0.2457490992
N   N3        1.0  0.89991  0.33503  0.28425  1.0000 -0.2403514181
N   N4        1.0  0.66497  0.10009  0.78425  1.0000 -0.2403514181
N   N5        1.0  0.04453  0.63851  0.95130  1.0000 -0.2457490992
N   N6        1.0  0.36149  0.95547  0.45130  1.0000 -0.2457490992
N   N7        1.0  0.33503  0.89991  0.21575  1.0000 -0.2403514181
N   N8        1.0  0.10009  0.66497  0.71575  1.0000 -0.2403514181
O   O1        1.0  0.07919  0.37463  0.28840  1.0000 -0.532847805
O   O2        1.0  0.62537  0.92081  0.78840  1.0000 -0.532847805
O   O3        1.0  0.16915  0.50593  0.27078  1.0000 -0.532847805
O   O4        1.0  0.49407  0.83085  0.77078  1.0000 -0.532847805
O   O5        1.0  0.50152  0.00442  0.73691  1.0000 -0.5596969557
O   O6        1.0  0.99558  0.49848  0.23691  1.0000 -0.5596969557
O   O7        1.0  0.40404  0.93052  0.68399  1.0000 -0.5412485135
O   O8        1.0  0.06948  0.59596  0.18399  1.0000 -0.5412485135
O   O9        1.0  0.74997  0.06125  0.72374  1.0000 -0.5222962332
O   O10       1.0  0.93875  0.25003  0.22374  1.0000 -0.5222962332
O   O11       1.0  0.73169  0.05737  0.64584  1.0000 -0.5412485135
O   O12       1.0  0.94263  0.26831  0.14584  1.0000 -0.5412485135
O   O13       1.0  0.61505  0.12743  0.67826  1.0000 -0.5412485135
O   O14       1.0  0.87257  0.38495  0.17826  1.0000 -0.5412485135
O   O15       1.0  0.55462  0.07064  0.61193  1.0000 -0.5412485135
O   O16       1.0  0.92936  0.44538  0.11193  1.0000 -0.5412485135
O   O17       1.0  0.58698  0.93666  0.68740  1.0000 -0.7982187501
O   O18       1.0  0.06334  0.41302  0.18740  1.0000 -0.7934486103
O   O19       1.0  0.51197  0.88383  0.59515  1.0000 -0.5458896291
O   O20       1.0  0.11617  0.48803  0.09515  1.0000 -0.5458896291
O   O21       1.0  0.63714  0.87848  0.61759  1.0000 -0.4925244135
O   O22       1.0  0.12152  0.36286  0.11759  1.0000 -0.4925244135
O   O23       1.0  0.39908  0.75434  0.67841  1.0000 -0.5412485135
O   O24       1.0  0.24566  0.60092  0.17841  1.0000 -0.5412485135
O   O25       1.0  0.51636  0.73326  0.70814  1.0000 -0.4782512915
O   O26       1.0  0.26674  0.48364  0.20814  1.0000 -0.4782512915
O   O27       1.0  0.37463  0.07919  0.21160  1.0000 -0.532847805
O   O28       1.0  0.92081  0.62537  0.71160  1.0000 -0.532847805
O   O29       1.0  0.50593  0.16915  0.22922  1.0000 -0.532847805
O   O30       1.0  0.83085  0.49407  0.72922  1.0000 -0.532847805
O   O31       1.0  0.00442  0.50152  0.76309  1.0000 -0.5596969557
O   O32       1.0  0.49848  0.99558  0.26309  1.0000 -0.5596969557
O   O33       1.0  0.93052  0.40404  0.81601  1.0000 -0.5412485135
O   O34       1.0  0.59596  0.06948  0.31601  1.0000 -0.5412485135
O   O35       1.0  0.06125  0.74997  0.77626  1.0000 -0.5222962332
O   O36       1.0  0.25003  0.93875  0.27626  1.0000 -0.5222962332
O   O37       1.0  0.05737  0.73169  0.85416  1.0000 -0.5412485135
O   O38       1.0  0.26831  0.94263  0.35416  1.0000 -0.5412485135
O   O39       1.0  0.12743  0.61505  0.82174  1.0000 -0.5412485135
O   O40       1.0  0.38495  0.87257  0.32174  1.0000 -0.5412485135
O   O41       1.0  0.07064  0.55462  0.88807  1.0000 -0.5412485135
O   O42       1.0  0.44538  0.92936  0.38807  1.0000 -0.5412485135
O   O43       1.0  0.93666  0.58698  0.81260  1.0000 -0.7982187501
O   O44       1.0  0.41302  0.06334  0.31260  1.0000 -0.7982187501
O   O45       1.0  0.88383  0.51197  0.90485  1.0000 -0.5458896291
O   O46       1.0  0.48803  0.11617  0.40485  1.0000 -0.5458896291
O   O47       1.0  0.87848  0.63714  0.88241  1.0000 -0.4925244135
O   O48       1.0  0.36286  0.12152  0.38241  1.0000 -0.4925244135
O   O49       1.0  0.75434  0.39908  0.82159  1.0000 -0.5412485135
O   O50       1.0  0.60092  0.24566  0.32159  1.0000 -0.5412485135
O   O51       1.0  0.73326  0.51636  0.79186  1.0000 -0.4782512915
O   O52       1.0  0.48364  0.26674  0.29186  1.0000 -0.4782512915
