# DDEC6 charges by PACMAN v1.1 (https://github.com/mtap-research/PACMAN-charge/)
data_2016[U][nan]3[ASR]1
_chemical_formula_sum              "U6 H24 C64 O40"
_cell_length_a       12.9224
_cell_length_b       13.3343
_cell_length_c       13.5054
_cell_angle_alpha    68.597
_cell_angle_beta     88.575
_cell_angle_gamma    79.571

_symmetry_space_group_name_H-M    "P 1"
_symmetry_Int_Tables_number       1

loop_
  _symmetry_equiv_pos_as_xyz
  'x, y, z'

loop_
  _atom_site_type_symbol
  _atom_site_label
  _atom_site_symmetry_multiplicity
  _atom_site_fract_x
  _atom_site_fract_y
  _atom_site_fract_z
  _atom_site_occupancy
  _atom_site_charge
U   U1        1.0  0.19090  0.79324  0.39312  1.0000 2.2160132905
U   U2        1.0  0.19914  0.28992  0.40576  1.0000 2.2109046956
U   U3        1.0  0.50940  0.77442  0.98680  1.0000 2.4428894302
U   U4        1.0  0.80910  0.20676  0.60688  1.0000 2.2109046956
U   U5        1.0  0.80086  0.71008  0.59424  1.0000 2.2109046956
U   U6        1.0  0.49060  0.22558  0.01320  1.0000 2.4428894302
H   H1        1.0  0.20229  0.15263  0.87909  1.0000 0.1020729994
H   H2        1.0  0.06262  0.05993  0.84407  1.0000 0.1102006466
H   H3        1.0  0.18400  0.76950  0.11446  1.0000 0.1209143051
H   H4        1.0  0.86051  0.90902  0.85319  1.0000 0.1388270786
H   H5        1.0  0.17440  0.83154  0.65120  1.0000 0.1209143051
H   H6        1.0  0.19754  0.83011  0.83429  1.0000 0.1388270786
H   H7        1.0  0.25186  0.65689  0.90104  1.0000 0.1102006466
H   H8        1.0  0.09975  0.58576  0.85080  1.0000 0.1102006466
H   H9        1.0  0.18924  0.28227  0.11664  1.0000 0.1209143051
H   H10       1.0  0.87401  0.42526  0.86109  1.0000 0.1300760587
H   H11       1.0  0.18532  0.34166  0.65906  1.0000 0.1209143051
H   H12       1.0  0.21135  0.35565  0.83456  1.0000 0.1517628213
H   H13       1.0  0.79771  0.84737  0.12091  1.0000 0.1020729994
H   H14       1.0  0.93738  0.94007  0.15593  1.0000 0.1102006466
H   H15       1.0  0.81600  0.23050  0.88554  1.0000 0.1209143051
H   H16       1.0  0.13949  0.09098  0.14681  1.0000 0.1388270786
H   H17       1.0  0.82560  0.16846  0.34880  1.0000 0.1209143051
H   H18       1.0  0.80246  0.16989  0.16571  1.0000 0.1388270786
H   H19       1.0  0.74814  0.34311  0.09896  1.0000 0.1102006466
H   H20       1.0  0.90025  0.41424  0.14920  1.0000 0.1102006466
H   H21       1.0  0.81076  0.71773  0.88336  1.0000 0.1209143051
H   H22       1.0  0.12599  0.57474  0.13891  1.0000 0.1300760587
H   H23       1.0  0.81468  0.65834  0.34094  1.0000 0.1209143051
H   H24       1.0  0.78865  0.64435  0.16544  1.0000 0.1517628213
C   C1        1.0  0.34288  0.83639  0.17498  1.0000 0.6815326353
C   C2        1.0  0.26387  0.90748  0.08609  1.0000 -0.0657416055
C   C3        1.0  0.27061  0.01442  0.01752  1.0000 -0.0419058496
C   C4        1.0  0.19721  0.06888  0.93091  1.0000 -0.0600435169
C   C5        1.0  0.11958  0.01825  0.91142  1.0000 -0.1905915471
C   C6        1.0  0.11535  0.91071  0.97897  1.0000 0.2658409556
C   C7        1.0  0.18544  0.85561  0.06680  1.0000 -0.2258864524
C   C8        1.0  0.02995  0.86342  0.85541  1.0000 0.2897205582
C   C9        1.0  0.92858  0.88996  0.80848  1.0000 -0.2196513533
C   C10       1.0  0.91489  0.89398  0.70437  1.0000 -0.0514510163
C   C11       1.0  0.00346  0.86734  0.64719  1.0000 -0.1390783744
C   C12       1.0  0.10542  0.84792  0.69519  1.0000 -0.0514510163
C   C13       1.0  0.11894  0.84576  0.79753  1.0000 -0.2086141402
C   C14       1.0  0.80492  0.93363  0.65507  1.0000 0.6886809846
C   C15       1.0  0.99271  0.85477  0.54536  1.0000 0.6081740936
C   C16       1.0  0.35744  0.32716  0.19182  1.0000 0.6815326353
C   C17       1.0  0.28465  0.40623  0.10048  1.0000 -0.0419058496
C   C18       1.0  0.30222  0.51182  0.03811  1.0000 -0.0600435169
C   C19       1.0  0.23565  0.57544  0.94790  1.0000 -0.0514510163
C   C20       1.0  0.15255  0.53622  0.92012  1.0000 -0.1905915471
C   C21       1.0  0.13605  0.43140  0.98343  1.0000 0.2658409556
C   C22       1.0  0.20041  0.36660  0.07359  1.0000 -0.2258864524
C   C23       1.0  0.39050  0.55464  0.07061  1.0000 0.6081740936
C   C24       1.0  0.04325  0.38926  0.85823  1.0000 0.2897205582
C   C25       1.0  0.94125  0.40726  0.81485  1.0000 -0.2196513533
C   C26       1.0  0.92623  0.40064  0.71511  1.0000 -0.0419058496
C   C27       1.0  0.01443  0.37298  0.65806  1.0000 -0.1390783744
C   C28       1.0  0.11636  0.36096  0.70224  1.0000 -0.0419058496
C   C29       1.0  0.13159  0.36824  0.80075  1.0000 -0.2086141402
C   C30       1.0  0.00269  0.35360  0.55986  1.0000 0.6186709186
C   C31       1.0  0.81509  0.42867  0.67012  1.0000 0.6886809846
C   C32       1.0  0.35332  0.07599  0.02701  1.0000 0.5692728838
C   C33       1.0  0.65712  0.16361  0.82502  1.0000 0.6815326353
C   C34       1.0  0.73613  0.09252  0.91391  1.0000 -0.0657416055
C   C35       1.0  0.72939  0.98558  0.98248  1.0000 -0.0419058496
C   C36       1.0  0.80279  0.93112  0.06909  1.0000 -0.0600435169
C   C37       1.0  0.88042  0.98175  0.08858  1.0000 -0.1905915471
C   C38       1.0  0.88465  0.08929  0.02103  1.0000 0.2649937948
C   C39       1.0  0.81456  0.14439  0.93320  1.0000 -0.2258864524
C   C40       1.0  0.97005  0.13658  0.14459  1.0000 0.2897205582
C   C41       1.0  0.07142  0.11004  0.19152  1.0000 -0.2196513533
C   C42       1.0  0.08511  0.10602  0.29563  1.0000 -0.0514510163
C   C43       1.0  0.99654  0.13266  0.35281  1.0000 -0.1390783744
C   C44       1.0  0.89458  0.15208  0.30481  1.0000 -0.0514510163
C   C45       1.0  0.88106  0.15424  0.20247  1.0000 -0.2086141402
C   C46       1.0  0.19508  0.06637  0.34493  1.0000 0.6886809846
C   C47       1.0  0.00729  0.14523  0.45464  1.0000 0.6081740936
C   C48       1.0  0.64256  0.67284  0.80818  1.0000 0.6815326353
C   C49       1.0  0.71535  0.59377  0.89952  1.0000 -0.0419058496
C   C50       1.0  0.69778  0.48818  0.96189  1.0000 -0.0600435169
C   C51       1.0  0.76435  0.42456  0.05210  1.0000 -0.0514510163
C   C52       1.0  0.84745  0.46378  0.07988  1.0000 -0.1905915471
C   C53       1.0  0.86395  0.56860  0.01657  1.0000 0.2658409556
C   C54       1.0  0.79959  0.63340  0.92641  1.0000 -0.2258864524
C   C55       1.0  0.60950  0.44536  0.92939  1.0000 0.6081740936
C   C56       1.0  0.95675  0.61074  0.14177  1.0000 0.2897205582
C   C57       1.0  0.05875  0.59274  0.18515  1.0000 -0.2196513533
C   C58       1.0  0.07377  0.59936  0.28489  1.0000 -0.0419058496
C   C59       1.0  0.98557  0.62702  0.34194  1.0000 -0.1390783744
C   C60       1.0  0.88364  0.63904  0.29776  1.0000 -0.0419058496
C   C61       1.0  0.86841  0.63176  0.19925  1.0000 -0.2086141402
C   C62       1.0  0.99731  0.64640  0.44014  1.0000 0.6186709186
C   C63       1.0  0.18491  0.57133  0.32988  1.0000 0.6815326353
C   C64       1.0  0.64668  0.92401  0.97299  1.0000 0.5692728838
O   O1        1.0  0.40652  0.88162  0.90556  1.0000 -0.6811154033
O   O2        1.0  0.61115  0.66765  0.06879  1.0000 -0.6932931761
O   O3        1.0  0.42883  0.78726  0.15682  1.0000 -0.5514629999
O   O4        1.0  0.31146  0.82563  0.27073  1.0000 -0.6811154033
O   O5        1.0  0.41146  0.10796  0.94739  1.0000 -0.5758059243
O   O6        1.0  0.35976  0.10324  0.10818  1.0000 -0.5946232299
O   O7        1.0  0.07146  0.86348  0.48065  1.0000 -0.7185610155
O   O8        1.0  0.90688  0.82623  0.52269  1.0000 -0.6989766429
O   O9        1.0  0.75498  0.86476  0.64108  1.0000 -0.6514258007
O   O10       1.0  0.76484  0.03534  0.63095  1.0000 -0.6693689296
O   O11       1.0  0.03995  0.85507  0.96081  1.0000 -0.2407878781
O   O12       1.0  0.43803  0.26749  0.17602  1.0000 -0.5649185399
O   O13       1.0  0.32146  0.31474  0.28690  1.0000 -0.6811154033
O   O14       1.0  0.39735  0.65674  0.00848  1.0000 -0.6811154033
O   O15       1.0  0.44655  0.49656  0.15110  1.0000 -0.4717083195
O   O16       1.0  0.08008  0.36116  0.49357  1.0000 -0.7185610155
O   O17       1.0  0.91661  0.32286  0.54099  1.0000 -0.6989766429
O   O18       1.0  0.76982  0.35105  0.66768  1.0000 -0.6693689296
O   O19       1.0  0.76835  0.52889  0.63874  1.0000 -0.6569953481
O   O20       1.0  0.05246  0.38865  0.96074  1.0000 -0.2196513533
O   O21       1.0  0.59348  0.11838  0.09444  1.0000 -0.6811154033
O   O22       1.0  0.38885  0.33235  0.93121  1.0000 -0.6932931761
O   O23       1.0  0.57117  0.21274  0.84318  1.0000 -0.5514629999
O   O24       1.0  0.68854  0.17437  0.72927  1.0000 -0.6811154033
O   O25       1.0  0.58854  0.89204  0.05261  1.0000 -0.5758059243
O   O26       1.0  0.64024  0.89676  0.89182  1.0000 -0.5956765035
O   O27       1.0  0.92854  0.13652  0.51935  1.0000 -0.7185610155
O   O28       1.0  0.09312  0.17377  0.47731  1.0000 -0.6989766429
O   O29       1.0  0.24502  0.13524  0.35892  1.0000 -0.6514258007
O   O30       1.0  0.23516  0.96466  0.36905  1.0000 -0.6693689296
O   O31       1.0  0.96005  0.14493  0.03919  1.0000 -0.2407878781
O   O32       1.0  0.56197  0.73251  0.82398  1.0000 -0.5649185399
O   O33       1.0  0.67854  0.68526  0.71310  1.0000 -0.6811154033
O   O34       1.0  0.60265  0.34326  0.99152  1.0000 -0.6811154033
O   O35       1.0  0.55345  0.50344  0.84890  1.0000 -0.4717083195
O   O36       1.0  0.91992  0.63884  0.50643  1.0000 -0.7185610155
O   O37       1.0  0.08339  0.67714  0.45901  1.0000 -0.6989766429
O   O38       1.0  0.23018  0.64895  0.33232  1.0000 -0.6693689296
O   O39       1.0  0.23165  0.47111  0.36126  1.0000 -0.6569953481
O   O40       1.0  0.94754  0.61135  0.03926  1.0000 -0.2196513533
