# DDEC6 charges by PACMAN v1.1 (https://github.com/mtap-research/PACMAN-charge/)
data_2016[Zn][crb]3[ASR]1
_chemical_formula_sum              "Zn16 H192 C264 O96"
_cell_length_a       28.598
_cell_length_b       28.598
_cell_length_c       17.074
_cell_angle_alpha    90
_cell_angle_beta     90
_cell_angle_gamma    90

_symmetry_space_group_name_H-M    "P 1"
_symmetry_Int_Tables_number       1

loop_
  _symmetry_equiv_pos_as_xyz
  'x, y, z'

loop_
  _atom_site_type_symbol
  _atom_site_label
  _atom_site_symmetry_multiplicity
  _atom_site_fract_x
  _atom_site_fract_y
  _atom_site_fract_z
  _atom_site_occupancy
  _atom_site_charge
Zn  Zn1       1.0  0.32280  0.43329  0.13249  1.0000 0.9726501366
Zn  Zn2       1.0  0.67720  0.56671  0.13249  1.0000 0.9726501366
Zn  Zn3       1.0  0.17720  0.93329  0.63249  1.0000 0.9726501366
Zn  Zn4       1.0  0.82280  0.06671  0.63249  1.0000 0.9726501366
Zn  Zn5       1.0  0.21879  0.37692  0.11868  1.0000 0.9100421255
Zn  Zn6       1.0  0.78121  0.62308  0.11868  1.0000 0.9100421255
Zn  Zn7       1.0  0.28121  0.87692  0.61868  1.0000 0.9100421255
Zn  Zn8       1.0  0.71879  0.12308  0.61868  1.0000 0.9100421255
Zn  Zn9       1.0  0.06671  0.17720  0.36751  1.0000 0.9726501366
Zn  Zn10      1.0  0.93329  0.82280  0.36751  1.0000 0.9726501366
Zn  Zn11      1.0  0.56671  0.32280  0.86751  1.0000 0.9726501366
Zn  Zn12      1.0  0.43329  0.67720  0.86751  1.0000 0.9726501366
Zn  Zn13      1.0  0.12308  0.28121  0.38132  1.0000 0.9100421255
Zn  Zn14      1.0  0.87692  0.71879  0.38132  1.0000 0.9100421255
Zn  Zn15      1.0  0.62308  0.21879  0.88132  1.0000 0.9100421255
Zn  Zn16      1.0  0.37692  0.78121  0.88132  1.0000 0.9100421255
H   H1        1.0  0.43810  0.25600  0.66050  1.0000 0.0917306174
H   H2        1.0  0.56190  0.74400  0.66050  1.0000 0.0917306174
H   H3        1.0  0.06190  0.75600  0.16050  1.0000 0.0917306174
H   H4        1.0  0.93810  0.24400  0.16050  1.0000 0.0917306174
H   H5        1.0  0.42650  0.20480  0.68900  1.0000 0.1002218872
H   H6        1.0  0.57350  0.79520  0.68900  1.0000 0.1002218872
H   H7        1.0  0.07350  0.70480  0.18900  1.0000 0.1002218872
H   H8        1.0  0.92650  0.29520  0.18900  1.0000 0.1002218872
H   H9        1.0  0.51150  0.21910  0.68630  1.0000 0.1199147891
H   H10       1.0  0.48850  0.78090  0.68630  1.0000 0.1199147891
H   H11       1.0  0.98850  0.71910  0.18630  1.0000 0.1199147891
H   H12       1.0  0.01150  0.28090  0.18630  1.0000 0.1199147891
H   H13       1.0  0.58670  0.19100  0.68160  1.0000 0.1293797639
H   H14       1.0  0.41330  0.80900  0.68160  1.0000 0.1293797639
H   H15       1.0  0.91330  0.69100  0.18160  1.0000 0.1293797639
H   H16       1.0  0.08670  0.30900  0.18160  1.0000 0.1293797639
H   H17       1.0  0.36130  0.18250  0.53920  1.0000 0.1002218872
H   H18       1.0  0.63870  0.81750  0.53920  1.0000 0.1002218872
H   H19       1.0  0.13870  0.68250  0.03920  1.0000 0.1002218872
H   H20       1.0  0.86130  0.31750  0.03920  1.0000 0.1002218872
H   H21       1.0  0.31620  0.19280  0.58900  1.0000 0.0917306174
H   H22       1.0  0.68380  0.80720  0.58900  1.0000 0.0917306174
H   H23       1.0  0.18380  0.69280  0.08900  1.0000 0.0917306174
H   H24       1.0  0.81620  0.30720  0.08900  1.0000 0.0917306174
H   H25       1.0  0.34360  0.22130  0.73210  1.0000 0.1002218872
H   H26       1.0  0.65640  0.77870  0.73210  1.0000 0.1002218872
H   H27       1.0  0.15640  0.72130  0.23210  1.0000 0.1002218872
H   H28       1.0  0.84360  0.27870  0.23210  1.0000 0.1002218872
H   H29       1.0  0.31290  0.25600  0.68220  1.0000 0.0917306174
H   H30       1.0  0.68710  0.74400  0.68220  1.0000 0.0917306174
H   H31       1.0  0.18710  0.75600  0.18220  1.0000 0.0917306174
H   H32       1.0  0.81290  0.24400  0.18220  1.0000 0.0917306174
H   H33       1.0  0.23340  0.31010  0.33910  1.0000 0.1199147891
H   H34       1.0  0.76660  0.68990  0.33910  1.0000 0.1199147891
H   H35       1.0  0.26660  0.81010  0.83910  1.0000 0.1199147891
H   H36       1.0  0.73340  0.18990  0.83910  1.0000 0.1199147891
H   H37       1.0  0.39200  0.26340  0.51770  1.0000 0.1002218872
H   H38       1.0  0.60800  0.73660  0.51770  1.0000 0.1002218872
H   H39       1.0  0.10800  0.76340  0.01770  1.0000 0.1002218872
H   H40       1.0  0.89200  0.23660  0.01770  1.0000 0.1002218872
H   H41       1.0  0.37990  0.30080  0.58230  1.0000 0.1002218872
H   H42       1.0  0.62010  0.69920  0.58230  1.0000 0.1002218872
H   H43       1.0  0.12010  0.80080  0.08230  1.0000 0.1002218872
H   H44       1.0  0.87990  0.19920  0.08230  1.0000 0.1002218872
H   H45       1.0  0.25850  0.30420  0.91310  1.0000 0.1199147891
H   H46       1.0  0.74150  0.69580  0.91310  1.0000 0.1199147891
H   H47       1.0  0.24150  0.80420  0.41310  1.0000 0.1199147891
H   H48       1.0  0.75850  0.19580  0.41310  1.0000 0.1199147891
H   H49       1.0  0.24080  0.06170  0.58210  1.0000 0.1199147891
H   H50       1.0  0.75920  0.93830  0.58210  1.0000 0.1199147891
H   H51       1.0  0.25920  0.56170  0.08210  1.0000 0.1199147891
H   H52       1.0  0.74080  0.43830  0.08210  1.0000 0.1199147891
H   H53       1.0  0.25170  0.27130  0.45140  1.0000 0.1371791612
H   H54       1.0  0.74830  0.72870  0.45140  1.0000 0.1371791612
H   H55       1.0  0.24830  0.77130  0.95140  1.0000 0.1371791612
H   H56       1.0  0.75170  0.22870  0.95140  1.0000 0.1371791612
H   H57       1.0  0.37770  0.33100  0.45290  1.0000 0.1199147891
H   H58       1.0  0.62230  0.66900  0.45290  1.0000 0.1199147891
H   H59       1.0  0.12230  0.83100  0.95290  1.0000 0.1199147891
H   H60       1.0  0.87770  0.16900  0.95290  1.0000 0.1199147891
H   H61       1.0  0.28560  0.26990  0.79580  1.0000 0.1122334558
H   H62       1.0  0.71440  0.73010  0.79580  1.0000 0.1122334558
H   H63       1.0  0.21440  0.76990  0.29580  1.0000 0.1122334558
H   H64       1.0  0.78560  0.23010  0.29580  1.0000 0.1122334558
H   H65       1.0  0.36220  0.36690  0.33600  1.0000 0.1122334558
H   H66       1.0  0.63780  0.63310  0.33600  1.0000 0.1122334558
H   H67       1.0  0.13780  0.86690  0.83600  1.0000 0.1122334558
H   H68       1.0  0.86220  0.13310  0.83600  1.0000 0.1122334558
H   H69       1.0  0.40530  0.34260  0.82230  1.0000 0.1371791612
H   H70       1.0  0.59470  0.65740  0.82230  1.0000 0.1371791612
H   H71       1.0  0.09470  0.84260  0.32230  1.0000 0.1371791612
H   H72       1.0  0.90530  0.15740  0.32230  1.0000 0.1371791612
H   H73       1.0  0.35140  0.00230  0.67880  1.0000 0.1199147891
H   H74       1.0  0.64860  0.99770  0.67880  1.0000 0.1199147891
H   H75       1.0  0.14860  0.50230  0.17880  1.0000 0.1199147891
H   H76       1.0  0.85140  0.49770  0.17880  1.0000 0.1199147891
H   H77       1.0  0.37700  0.37610  0.93660  1.0000 0.1122334558
H   H78       1.0  0.62300  0.62390  0.93660  1.0000 0.1122334558
H   H79       1.0  0.12300  0.87610  0.43660  1.0000 0.1122334558
H   H80       1.0  0.87700  0.12390  0.43660  1.0000 0.1122334558
H   H81       1.0  0.27740  0.13410  0.58630  1.0000 0.1199147891
H   H82       1.0  0.72260  0.86590  0.58630  1.0000 0.1199147891
H   H83       1.0  0.22260  0.63410  0.08630  1.0000 0.1199147891
H   H84       1.0  0.77740  0.36590  0.08630  1.0000 0.1199147891
H   H85       1.0  0.38920  0.07380  0.68280  1.0000 0.1371791612
H   H86       1.0  0.61080  0.92620  0.68280  1.0000 0.1371791612
H   H87       1.0  0.11080  0.57380  0.18280  1.0000 0.1371791612
H   H88       1.0  0.88920  0.42620  0.18280  1.0000 0.1371791612
H   H89       1.0  0.48840  0.16550  0.47810  1.0000 0.1371791612
H   H90       1.0  0.51160  0.83450  0.47810  1.0000 0.1371791612
H   H91       1.0  0.01160  0.66550  0.97810  1.0000 0.1371791612
H   H92       1.0  0.98840  0.33450  0.97810  1.0000 0.1371791612
H   H93       1.0  0.56360  0.14410  0.46760  1.0000 0.1122334558
H   H94       1.0  0.43640  0.85590  0.46760  1.0000 0.1122334558
H   H95       1.0  0.93640  0.64410  0.96760  1.0000 0.1122334558
H   H96       1.0  0.06360  0.35590  0.96760  1.0000 0.1122334558
H   H97       1.0  0.24400  0.06190  0.83950  1.0000 0.0917306174
H   H98       1.0  0.75600  0.93810  0.83950  1.0000 0.0917306174
H   H99       1.0  0.74400  0.43810  0.33950  1.0000 0.0917306174
H   H100      1.0  0.25600  0.56190  0.33950  1.0000 0.0917306174
H   H101      1.0  0.29520  0.07350  0.81100  1.0000 0.1002218872
H   H102      1.0  0.70480  0.92650  0.81100  1.0000 0.1002218872
H   H103      1.0  0.79520  0.42650  0.31100  1.0000 0.1002218872
H   H104      1.0  0.20480  0.57350  0.31100  1.0000 0.1002218872
H   H105      1.0  0.28090  0.98850  0.81370  1.0000 0.1199147891
H   H106      1.0  0.71910  0.01150  0.81370  1.0000 0.1199147891
H   H107      1.0  0.78090  0.51150  0.31370  1.0000 0.1199147891
H   H108      1.0  0.21910  0.48850  0.31370  1.0000 0.1199147891
H   H109      1.0  0.30900  0.91330  0.81840  1.0000 0.1293797639
H   H110      1.0  0.69100  0.08670  0.81840  1.0000 0.1293797639
H   H111      1.0  0.80900  0.58670  0.31840  1.0000 0.1293797639
H   H112      1.0  0.19100  0.41330  0.31840  1.0000 0.1293797639
H   H113      1.0  0.31750  0.13870  0.96080  1.0000 0.1002218872
H   H114      1.0  0.68250  0.86130  0.96080  1.0000 0.1002218872
H   H115      1.0  0.81750  0.36130  0.46080  1.0000 0.1002218872
H   H116      1.0  0.18250  0.63870  0.46080  1.0000 0.1002218872
H   H117      1.0  0.30720  0.18380  0.91100  1.0000 0.0917306174
H   H118      1.0  0.69280  0.81620  0.91100  1.0000 0.0917306174
H   H119      1.0  0.80720  0.31620  0.41100  1.0000 0.0917306174
H   H120      1.0  0.19280  0.68380  0.41100  1.0000 0.0917306174
H   H121      1.0  0.27870  0.15640  0.76790  1.0000 0.1002218872
H   H122      1.0  0.72130  0.84360  0.76790  1.0000 0.1002218872
H   H123      1.0  0.77870  0.34360  0.26790  1.0000 0.1002218872
H   H124      1.0  0.22130  0.65640  0.26790  1.0000 0.1002218872
H   H125      1.0  0.24400  0.18710  0.81780  1.0000 0.0917306174
H   H126      1.0  0.75600  0.81290  0.81780  1.0000 0.0917306174
H   H127      1.0  0.74400  0.31290  0.31780  1.0000 0.0917306174
H   H128      1.0  0.25600  0.68710  0.31780  1.0000 0.0917306174
H   H129      1.0  0.18990  0.26660  0.16090  1.0000 0.1199147891
H   H130      1.0  0.81010  0.73340  0.16090  1.0000 0.1199147891
H   H131      1.0  0.68990  0.23340  0.66090  1.0000 0.1199147891
H   H132      1.0  0.31010  0.76660  0.66090  1.0000 0.1199147891
H   H133      1.0  0.23660  0.10800  0.98230  1.0000 0.1002218872
H   H134      1.0  0.76340  0.89200  0.98230  1.0000 0.1002218872
H   H135      1.0  0.73660  0.39200  0.48230  1.0000 0.1002218872
H   H136      1.0  0.26340  0.60800  0.48230  1.0000 0.1002218872
H   H137      1.0  0.19920  0.12010  0.91770  1.0000 0.1002218872
H   H138      1.0  0.80080  0.87990  0.91770  1.0000 0.1002218872
H   H139      1.0  0.69920  0.37990  0.41770  1.0000 0.1002218872
H   H140      1.0  0.30080  0.62010  0.41770  1.0000 0.1002218872
H   H141      1.0  0.19580  0.24150  0.58690  1.0000 0.1199147891
H   H142      1.0  0.80420  0.75850  0.58690  1.0000 0.1199147891
H   H143      1.0  0.69580  0.25850  0.08690  1.0000 0.1199147891
H   H144      1.0  0.30420  0.74150  0.08690  1.0000 0.1199147891
H   H145      1.0  0.43830  0.25920  0.91790  1.0000 0.1199147891
H   H146      1.0  0.56170  0.74080  0.91790  1.0000 0.1199147891
H   H147      1.0  0.93830  0.24080  0.41790  1.0000 0.1199147891
H   H148      1.0  0.06170  0.75920  0.41790  1.0000 0.1199147891
H   H149      1.0  0.22870  0.24830  0.04860  1.0000 0.1371791612
H   H150      1.0  0.77130  0.75170  0.04860  1.0000 0.1371791612
H   H151      1.0  0.72870  0.25170  0.54860  1.0000 0.1371791612
H   H152      1.0  0.27130  0.74830  0.54860  1.0000 0.1371791612
H   H153      1.0  0.16900  0.12230  0.04710  1.0000 0.1199147891
H   H154      1.0  0.83100  0.87770  0.04710  1.0000 0.1199147891
H   H155      1.0  0.66900  0.37770  0.54710  1.0000 0.1199147891
H   H156      1.0  0.33100  0.62230  0.54710  1.0000 0.1199147891
H   H157      1.0  0.23010  0.21440  0.70420  1.0000 0.1122334558
H   H158      1.0  0.76990  0.78560  0.70420  1.0000 0.1122334558
H   H159      1.0  0.73010  0.28560  0.20420  1.0000 0.1122334558
H   H160      1.0  0.26990  0.71440  0.20420  1.0000 0.1122334558
H   H161      1.0  0.13310  0.13780  0.16400  1.0000 0.1122334558
H   H162      1.0  0.86690  0.86220  0.16400  1.0000 0.1122334558
H   H163      1.0  0.63310  0.36220  0.66400  1.0000 0.1122334558
H   H164      1.0  0.36690  0.63780  0.66400  1.0000 0.1122334558
H   H165      1.0  0.15740  0.09470  0.67770  1.0000 0.1371791612
H   H166      1.0  0.84260  0.90530  0.67770  1.0000 0.1371791612
H   H167      1.0  0.65740  0.40530  0.17770  1.0000 0.1371791612
H   H168      1.0  0.34260  0.59470  0.17770  1.0000 0.1371791612
H   H169      1.0  0.49770  0.14860  0.82120  1.0000 0.1199147891
H   H170      1.0  0.50230  0.85140  0.82120  1.0000 0.1199147891
H   H171      1.0  0.99770  0.35140  0.32120  1.0000 0.1199147891
H   H172      1.0  0.00230  0.64860  0.32120  1.0000 0.1199147891
H   H173      1.0  0.12390  0.12300  0.56340  1.0000 0.1122334558
H   H174      1.0  0.87610  0.87700  0.56340  1.0000 0.1122334558
H   H175      1.0  0.62390  0.37700  0.06340  1.0000 0.1122334558
H   H176      1.0  0.37610  0.62300  0.06340  1.0000 0.1122334558
H   H177      1.0  0.36590  0.22260  0.91370  1.0000 0.1199147891
H   H178      1.0  0.63410  0.77740  0.91370  1.0000 0.1199147891
H   H179      1.0  0.86590  0.27740  0.41370  1.0000 0.1199147891
H   H180      1.0  0.13410  0.72260  0.41370  1.0000 0.1199147891
H   H181      1.0  0.42620  0.11080  0.81720  1.0000 0.1371791612
H   H182      1.0  0.57380  0.88920  0.81720  1.0000 0.1371791612
H   H183      1.0  0.92620  0.38920  0.31720  1.0000 0.1371791612
H   H184      1.0  0.07380  0.61080  0.31720  1.0000 0.1371791612
H   H185      1.0  0.33450  0.01160  0.02190  1.0000 0.1371791612
H   H186      1.0  0.66550  0.98840  0.02190  1.0000 0.1371791612
H   H187      1.0  0.83450  0.48840  0.52190  1.0000 0.1371791612
H   H188      1.0  0.16550  0.51160  0.52190  1.0000 0.1371791612
H   H189      1.0  0.35590  0.93640  0.03240  1.0000 0.1122334558
H   H190      1.0  0.64410  0.06360  0.03240  1.0000 0.1122334558
H   H191      1.0  0.85590  0.56360  0.53240  1.0000 0.1122334558
H   H192      1.0  0.14410  0.43640  0.53240  1.0000 0.1122334558
C   C1        1.0  0.37192  0.23347  0.62170  1.0000 0.0802613401
C   C2        1.0  0.62808  0.76653  0.62170  1.0000 0.0802613401
C   C3        1.0  0.12808  0.73347  0.12170  1.0000 0.0802613401
C   C4        1.0  0.87192  0.26653  0.12170  1.0000 0.0802613401
C   C5        1.0  0.34730  0.30430  0.79850  1.0000 0.248188365
C   C6        1.0  0.65270  0.69570  0.79850  1.0000 0.248188365
C   C7        1.0  0.15270  0.80430  0.29850  1.0000 0.248188365
C   C8        1.0  0.84730  0.19570  0.29850  1.0000 0.248188365
C   C9        1.0  0.42394  0.22640  0.64550  1.0000 -0.079450948
C   C10       1.0  0.57606  0.77360  0.64550  1.0000 -0.079450948
C   C11       1.0  0.07606  0.72640  0.14550  1.0000 -0.079450948
C   C12       1.0  0.92394  0.27360  0.14550  1.0000 -0.079450948
C   C13       1.0  0.29307  0.02518  0.62750  1.0000 -0.0711158471
C   C14       1.0  0.70693  0.97482  0.62750  1.0000 -0.0711158471
C   C15       1.0  0.20693  0.52518  0.12750  1.0000 -0.0711158471
C   C16       1.0  0.79307  0.47482  0.12750  1.0000 -0.0711158471
C   C17       1.0  0.31350  0.34330  0.93560  1.0000 -0.079450948
C   C18       1.0  0.68650  0.65670  0.93560  1.0000 -0.079450948
C   C19       1.0  0.18650  0.84330  0.43560  1.0000 -0.079450948
C   C20       1.0  0.81350  0.15670  0.43560  1.0000 -0.079450948
C   C21       1.0  0.31716  0.29860  0.46330  1.0000 0.2402551535
C   C22       1.0  0.68284  0.70140  0.46330  1.0000 0.2402551535
C   C23       1.0  0.18284  0.79860  0.96330  1.0000 0.2402551535
C   C24       1.0  0.81716  0.20140  0.96330  1.0000 0.2402551535
C   C25       1.0  0.52190  0.20270  0.64270  1.0000 -0.2321299764
C   C26       1.0  0.47810  0.79730  0.64270  1.0000 -0.2321299764
C   C27       1.0  0.97810  0.70270  0.14270  1.0000 -0.2321299764
C   C28       1.0  0.02190  0.29730  0.14270  1.0000 -0.2321299764
C   C29       1.0  0.56715  0.18580  0.63900  1.0000 -0.079450948
C   C30       1.0  0.43285  0.81420  0.63900  1.0000 -0.079450948
C   C31       1.0  0.93285  0.68580  0.13900  1.0000 -0.079450948
C   C32       1.0  0.06715  0.31420  0.13900  1.0000 -0.079450948
C   C33       1.0  0.34990  0.18910  0.59160  1.0000 -0.079450948
C   C34       1.0  0.65010  0.81090  0.59160  1.0000 -0.079450948
C   C35       1.0  0.15010  0.68910  0.09160  1.0000 -0.079450948
C   C36       1.0  0.84990  0.31090  0.09160  1.0000 -0.079450948
C   C37       1.0  0.63400  0.14670  0.57240  1.0000 0.5424169039
C   C38       1.0  0.36600  0.85330  0.57240  1.0000 0.5424169039
C   C39       1.0  0.86600  0.64670  0.07240  1.0000 0.5424169039
C   C40       1.0  0.13400  0.35330  0.07240  1.0000 0.5424169039
C   C41       1.0  0.34470  0.24742  0.69590  1.0000 -0.0891758494
C   C42       1.0  0.65530  0.75258  0.69590  1.0000 -0.0891758494
C   C43       1.0  0.15530  0.74742  0.19590  1.0000 -0.0891758494
C   C44       1.0  0.84470  0.25258  0.19590  1.0000 -0.0891758494
C   C45       1.0  0.29590  0.34290  0.32280  1.0000 -0.0891758494
C   C46       1.0  0.70410  0.65710  0.32280  1.0000 -0.0891758494
C   C47       1.0  0.20410  0.84290  0.82280  1.0000 -0.0891758494
C   C48       1.0  0.79590  0.15710  0.82280  1.0000 -0.0891758494
C   C49       1.0  0.26290  0.31380  0.36100  1.0000 -0.0711158471
C   C50       1.0  0.73710  0.68620  0.36100  1.0000 -0.0711158471
C   C51       1.0  0.23710  0.81380  0.86100  1.0000 -0.0711158471
C   C52       1.0  0.76290  0.18620  0.86100  1.0000 -0.0711158471
C   C53       1.0  0.37070  0.27100  0.56000  1.0000 -0.0992962571
C   C54       1.0  0.62930  0.72900  0.56000  1.0000 -0.0992962571
C   C55       1.0  0.12930  0.77100  0.06000  1.0000 -0.0992962571
C   C56       1.0  0.87070  0.22900  0.06000  1.0000 -0.0992962571
C   C57       1.0  0.26840  0.98017  0.62570  1.0000 0.5993548518
C   C58       1.0  0.73160  0.01983  0.62570  1.0000 0.5993548518
C   C59       1.0  0.23160  0.48017  0.12570  1.0000 0.5993548518
C   C60       1.0  0.76840  0.51983  0.12570  1.0000 0.5993548518
C   C61       1.0  0.28570  0.36660  0.24900  1.0000 0.5993548518
C   C62       1.0  0.71430  0.63340  0.24900  1.0000 0.5993548518
C   C63       1.0  0.21430  0.86660  0.74900  1.0000 0.5993548518
C   C64       1.0  0.78570  0.13340  0.74900  1.0000 0.5993548518
C   C65       1.0  0.28790  0.31230  0.89440  1.0000 -0.0711158471
C   C66       1.0  0.71210  0.68770  0.89440  1.0000 -0.0711158471
C   C67       1.0  0.21210  0.81230  0.39440  1.0000 -0.0711158471
C   C68       1.0  0.78790  0.18770  0.39440  1.0000 -0.0711158471
C   C69       1.0  0.33680  0.11090  0.63340  1.0000 0.2402551535
C   C70       1.0  0.66320  0.88910  0.63340  1.0000 0.2402551535
C   C71       1.0  0.16320  0.61090  0.13340  1.0000 0.2402551535
C   C72       1.0  0.83680  0.38910  0.13340  1.0000 0.2402551535
C   C73       1.0  0.27110  0.06410  0.60180  1.0000 -0.079450948
C   C74       1.0  0.72890  0.93590  0.60180  1.0000 -0.079450948
C   C75       1.0  0.22890  0.56410  0.10180  1.0000 -0.079450948
C   C76       1.0  0.77110  0.43590  0.10180  1.0000 -0.079450948
C   C77       1.0  0.49290  0.19450  0.58060  1.0000 0.2241029625
C   C78       1.0  0.50710  0.80550  0.58060  1.0000 0.2241029625
C   C79       1.0  0.00710  0.69450  0.08060  1.0000 0.2241029625
C   C80       1.0  0.99290  0.30550  0.08060  1.0000 0.2241029625
C   C81       1.0  0.29590  0.36540  0.00760  1.0000 0.6168501486
C   C82       1.0  0.70410  0.63460  0.00760  1.0000 0.6168501486
C   C83       1.0  0.20410  0.86540  0.50760  1.0000 0.6168501486
C   C84       1.0  0.79590  0.13460  0.50760  1.0000 0.6168501486
C   C85       1.0  0.27330  0.29130  0.42840  1.0000 -0.1984174556
C   C86       1.0  0.72670  0.70870  0.42840  1.0000 -0.1984174556
C   C87       1.0  0.22670  0.79130  0.92840  1.0000 -0.1984174556
C   C88       1.0  0.77330  0.20870  0.92840  1.0000 -0.1984174556
C   C89       1.0  0.34880  0.32640  0.42900  1.0000 -0.2360083612
C   C90       1.0  0.65120  0.67360  0.42900  1.0000 -0.2360083612
C   C91       1.0  0.15120  0.82640  0.92900  1.0000 -0.2360083612
C   C92       1.0  0.84880  0.17360  0.92900  1.0000 -0.2360083612
C   C93       1.0  0.30380  0.29130  0.82350  1.0000 -0.2534078511
C   C94       1.0  0.69620  0.70870  0.82350  1.0000 -0.2534078511
C   C95       1.0  0.19620  0.79130  0.32350  1.0000 -0.2534078511
C   C96       1.0  0.80380  0.20870  0.32350  1.0000 -0.2534078511
C   C97       1.0  0.33940  0.34830  0.35930  1.0000 -0.0711158471
C   C98       1.0  0.66060  0.65170  0.35930  1.0000 -0.0635761264
C   C99       1.0  0.16060  0.84830  0.85930  1.0000 -0.0635761264
C   C100      1.0  0.83940  0.15170  0.85930  1.0000 -0.0635761264
C   C101      1.0  0.37550  0.33530  0.84020  1.0000 -0.2214260225
C   C102      1.0  0.62450  0.66470  0.84020  1.0000 -0.2214260225
C   C103      1.0  0.12450  0.83530  0.34020  1.0000 -0.2214260225
C   C104      1.0  0.87550  0.16470  0.34020  1.0000 -0.2214260225
C   C105      1.0  0.33670  0.02880  0.65900  1.0000 -0.0891758494
C   C106      1.0  0.66330  0.97120  0.65900  1.0000 -0.0891758494
C   C107      1.0  0.16330  0.52880  0.15900  1.0000 -0.0891758494
C   C108      1.0  0.83670  0.47120  0.15900  1.0000 -0.0891758494
C   C109      1.0  0.35860  0.35510  0.90850  1.0000 -0.0711158471
C   C110      1.0  0.64140  0.64490  0.90850  1.0000 -0.0711158471
C   C111      1.0  0.14140  0.85510  0.40850  1.0000 -0.0711158471
C   C112      1.0  0.85860  0.14490  0.40850  1.0000 -0.0711158471
C   C113      1.0  0.29290  0.10750  0.60440  1.0000 -0.2321299764
C   C114      1.0  0.70710  0.89250  0.60440  1.0000 -0.2321299764
C   C115      1.0  0.20710  0.60750  0.10440  1.0000 -0.2321299764
C   C116      1.0  0.79290  0.39250  0.10440  1.0000 -0.2321299764
C   C117      1.0  0.58380  0.16310  0.57940  1.0000 -0.0318960392
C   C118      1.0  0.41620  0.83690  0.57940  1.0000 -0.0318960392
C   C119      1.0  0.91620  0.66310  0.07940  1.0000 -0.0318960392
C   C120      1.0  0.08380  0.33690  0.07940  1.0000 -0.0318960392
C   C121      1.0  0.35920  0.07150  0.66190  1.0000 -0.2214260225
C   C122      1.0  0.64080  0.92850  0.66190  1.0000 -0.2214260225
C   C123      1.0  0.14080  0.57150  0.16190  1.0000 -0.2214260225
C   C124      1.0  0.85920  0.42850  0.16190  1.0000 -0.2214260225
C   C125      1.0  0.50880  0.17180  0.51920  1.0000 -0.1821732561
C   C126      1.0  0.49120  0.82820  0.51920  1.0000 -0.1821732561
C   C127      1.0  0.99120  0.67180  0.01920  1.0000 -0.1821732561
C   C128      1.0  0.00880  0.32820  0.01920  1.0000 -0.1821732561
C   C129      1.0  0.55280  0.15760  0.51380  1.0000 -0.079450948
C   C130      1.0  0.44720  0.84240  0.51380  1.0000 -0.079450948
C   C131      1.0  0.94720  0.65760  0.01380  1.0000 -0.079450948
C   C132      1.0  0.05280  0.34240  0.01380  1.0000 -0.079450948
C   C133      1.0  0.26653  0.12808  0.87830  1.0000 0.0802613401
C   C134      1.0  0.73347  0.87192  0.87830  1.0000 0.0802613401
C   C135      1.0  0.76653  0.37192  0.37830  1.0000 0.0802613401
C   C136      1.0  0.23347  0.62808  0.37830  1.0000 0.0802613401
C   C137      1.0  0.19570  0.15270  0.70150  1.0000 0.248188365
C   C138      1.0  0.80430  0.84730  0.70150  1.0000 0.248188365
C   C139      1.0  0.69570  0.34730  0.20150  1.0000 0.248188365
C   C140      1.0  0.30430  0.65270  0.20150  1.0000 0.248188365
C   C141      1.0  0.27360  0.07606  0.85450  1.0000 -0.079450948
C   C142      1.0  0.72640  0.92394  0.85450  1.0000 -0.079450948
C   C143      1.0  0.77360  0.42394  0.35450  1.0000 -0.079450948
C   C144      1.0  0.22640  0.57606  0.35450  1.0000 -0.079450948
C   C145      1.0  0.47482  0.20693  0.87250  1.0000 -0.0711158471
C   C146      1.0  0.52518  0.79307  0.87250  1.0000 -0.0711158471
C   C147      1.0  0.97482  0.29307  0.37250  1.0000 -0.0711158471
C   C148      1.0  0.02518  0.70693  0.37250  1.0000 -0.0711158471
C   C149      1.0  0.15670  0.18650  0.56440  1.0000 -0.079450948
C   C150      1.0  0.84330  0.81350  0.56440  1.0000 -0.079450948
C   C151      1.0  0.65670  0.31350  0.06440  1.0000 -0.079450948
C   C152      1.0  0.34330  0.68650  0.06440  1.0000 -0.079450948
C   C153      1.0  0.20140  0.18284  0.03670  1.0000 0.2402551535
C   C154      1.0  0.79860  0.81716  0.03670  1.0000 0.2402551535
C   C155      1.0  0.70140  0.31716  0.53670  1.0000 0.2402551535
C   C156      1.0  0.29860  0.68284  0.53670  1.0000 0.2402551535
C   C157      1.0  0.29730  0.97810  0.85730  1.0000 -0.2321299764
C   C158      1.0  0.70270  0.02190  0.85730  1.0000 -0.2321299764
C   C159      1.0  0.79730  0.52190  0.35730  1.0000 -0.2321299764
C   C160      1.0  0.20270  0.47810  0.35730  1.0000 -0.2321299764
C   C161      1.0  0.31420  0.93285  0.86100  1.0000 -0.079450948
C   C162      1.0  0.68580  0.06715  0.86100  1.0000 -0.079450948
C   C163      1.0  0.81420  0.56715  0.36100  1.0000 -0.079450948
C   C164      1.0  0.18580  0.43285  0.36100  1.0000 -0.079450948
C   C165      1.0  0.31090  0.15010  0.90840  1.0000 -0.079450948
C   C166      1.0  0.68910  0.84990  0.90840  1.0000 -0.079450948
C   C167      1.0  0.81090  0.34990  0.40840  1.0000 -0.079450948
C   C168      1.0  0.18910  0.65010  0.40840  1.0000 -0.079450948
C   C169      1.0  0.35330  0.86600  0.92760  1.0000 0.5424169039
C   C170      1.0  0.64670  0.13400  0.92760  1.0000 0.5424169039
C   C171      1.0  0.85330  0.63400  0.42760  1.0000 0.5424169039
C   C172      1.0  0.14670  0.36600  0.42760  1.0000 0.5424169039
C   C173      1.0  0.25258  0.15530  0.80410  1.0000 -0.0891758494
C   C174      1.0  0.74742  0.84470  0.80410  1.0000 -0.0891758494
C   C175      1.0  0.75258  0.34470  0.30410  1.0000 -0.0891758494
C   C176      1.0  0.24742  0.65530  0.30410  1.0000 -0.0891758494
C   C177      1.0  0.15710  0.20410  0.17720  1.0000 -0.0891758494
C   C178      1.0  0.84290  0.79590  0.17720  1.0000 -0.0891758494
C   C179      1.0  0.65710  0.29590  0.67720  1.0000 -0.0891758494
C   C180      1.0  0.34290  0.70410  0.67720  1.0000 -0.0891758494
C   C181      1.0  0.18620  0.23710  0.13900  1.0000 -0.0711158471
C   C182      1.0  0.81380  0.76290  0.13900  1.0000 -0.0711158471
C   C183      1.0  0.68620  0.26290  0.63900  1.0000 -0.0711158471
C   C184      1.0  0.31380  0.73710  0.63900  1.0000 -0.0711158471
C   C185      1.0  0.22900  0.12930  0.94000  1.0000 -0.0992962571
C   C186      1.0  0.77100  0.87070  0.94000  1.0000 -0.0992962571
C   C187      1.0  0.72900  0.37070  0.44000  1.0000 -0.0992962571
C   C188      1.0  0.27100  0.62930  0.44000  1.0000 -0.0992962571
C   C189      1.0  0.51983  0.23160  0.87430  1.0000 0.5993548518
C   C190      1.0  0.48017  0.76840  0.87430  1.0000 0.5993548518
C   C191      1.0  0.01983  0.26840  0.37430  1.0000 0.5993548518
C   C192      1.0  0.98017  0.73160  0.37430  1.0000 0.5993548518
C   C193      1.0  0.13340  0.21430  0.25100  1.0000 0.5993548518
C   C194      1.0  0.86660  0.78570  0.25100  1.0000 0.5993548518
C   C195      1.0  0.63340  0.28570  0.75100  1.0000 0.5993548518
C   C196      1.0  0.36660  0.71430  0.75100  1.0000 0.5993548518
C   C197      1.0  0.18770  0.21210  0.60560  1.0000 -0.0711158471
C   C198      1.0  0.81230  0.78790  0.60560  1.0000 -0.0711158471
C   C199      1.0  0.68770  0.28790  0.10560  1.0000 -0.0711158471
C   C200      1.0  0.31230  0.71210  0.10560  1.0000 -0.0711158471
C   C201      1.0  0.38910  0.16320  0.86660  1.0000 0.2402551535
C   C202      1.0  0.61090  0.83680  0.86660  1.0000 0.2402551535
C   C203      1.0  0.88910  0.33680  0.36660  1.0000 0.2402551535
C   C204      1.0  0.11090  0.66320  0.36660  1.0000 0.2402551535
C   C205      1.0  0.43590  0.22890  0.89820  1.0000 -0.079450948
C   C206      1.0  0.56410  0.77110  0.89820  1.0000 -0.079450948
C   C207      1.0  0.93590  0.27110  0.39820  1.0000 -0.079450948
C   C208      1.0  0.06410  0.72890  0.39820  1.0000 -0.079450948
C   C209      1.0  0.30550  0.00710  0.91940  1.0000 0.2251133805
C   C210      1.0  0.69450  0.99290  0.91940  1.0000 0.2251133805
C   C211      1.0  0.80550  0.49290  0.41940  1.0000 0.2241029625
C   C212      1.0  0.19450  0.50710  0.41940  1.0000 0.2251133805
C   C213      1.0  0.13460  0.20410  0.49240  1.0000 0.6168501486
C   C214      1.0  0.86540  0.79590  0.49240  1.0000 0.6168501486
C   C215      1.0  0.63460  0.29590  0.99240  1.0000 0.6168501486
C   C216      1.0  0.36540  0.70410  0.99240  1.0000 0.6168501486
C   C217      1.0  0.20870  0.22670  0.07160  1.0000 -0.1984174556
C   C218      1.0  0.79130  0.77330  0.07160  1.0000 -0.1984174556
C   C219      1.0  0.70870  0.27330  0.57160  1.0000 -0.1984174556
C   C220      1.0  0.29130  0.72670  0.57160  1.0000 -0.1984174556
C   C221      1.0  0.17360  0.15120  0.07100  1.0000 -0.2360083612
C   C222      1.0  0.82640  0.84880  0.07100  1.0000 -0.2360083612
C   C223      1.0  0.67360  0.34880  0.57100  1.0000 -0.2360083612
C   C224      1.0  0.32640  0.65120  0.57100  1.0000 -0.2360083612
C   C225      1.0  0.20870  0.19620  0.67650  1.0000 -0.2534078511
C   C226      1.0  0.79130  0.80380  0.67650  1.0000 -0.2534078511
C   C227      1.0  0.70870  0.30380  0.17650  1.0000 -0.2534078511
C   C228      1.0  0.29130  0.69620  0.17650  1.0000 -0.2534078511
C   C229      1.0  0.15170  0.16060  0.14070  1.0000 -0.0635761264
C   C230      1.0  0.84830  0.83940  0.14070  1.0000 -0.0635761264
C   C231      1.0  0.65170  0.33940  0.64070  1.0000 -0.0635761264
C   C232      1.0  0.34830  0.66060  0.64070  1.0000 -0.0635761264
C   C233      1.0  0.16470  0.12450  0.65980  1.0000 -0.2214260225
C   C234      1.0  0.83530  0.87550  0.65980  1.0000 -0.2214260225
C   C235      1.0  0.66470  0.37550  0.15980  1.0000 -0.2214260225
C   C236      1.0  0.33530  0.62450  0.15980  1.0000 -0.2214260225
C   C237      1.0  0.47120  0.16330  0.84100  1.0000 -0.0891758494
C   C238      1.0  0.52880  0.83670  0.84100  1.0000 -0.0891758494
C   C239      1.0  0.97120  0.33670  0.34100  1.0000 -0.079450948
C   C240      1.0  0.02880  0.66330  0.34100  1.0000 -0.079450948
C   C241      1.0  0.14490  0.14140  0.59150  1.0000 -0.079450948
C   C242      1.0  0.85510  0.85860  0.59150  1.0000 -0.079450948
C   C243      1.0  0.64490  0.35860  0.09150  1.0000 -0.079450948
C   C244      1.0  0.35510  0.64140  0.09150  1.0000 -0.079450948
C   C245      1.0  0.39250  0.20710  0.89560  1.0000 -0.2321299764
C   C246      1.0  0.60750  0.79290  0.89560  1.0000 -0.2321299764
C   C247      1.0  0.89250  0.29290  0.39560  1.0000 -0.2321299764
C   C248      1.0  0.10750  0.70710  0.39560  1.0000 -0.2321299764
C   C249      1.0  0.33690  0.91620  0.92060  1.0000 -0.0318960392
C   C250      1.0  0.66310  0.08380  0.92060  1.0000 -0.0318960392
C   C251      1.0  0.83690  0.58380  0.42060  1.0000 -0.0318960392
C   C252      1.0  0.16310  0.41620  0.42060  1.0000 -0.0318960392
C   C253      1.0  0.42850  0.14080  0.83810  1.0000 -0.2214260225
C   C254      1.0  0.57150  0.85920  0.83810  1.0000 -0.2214260225
C   C255      1.0  0.92850  0.35920  0.33810  1.0000 -0.2214260225
C   C256      1.0  0.07150  0.64080  0.33810  1.0000 -0.2214260225
C   C257      1.0  0.32820  0.99120  0.98080  1.0000 -0.1821732561
C   C258      1.0  0.67180  0.00880  0.98080  1.0000 -0.1821732561
C   C259      1.0  0.82820  0.50880  0.48080  1.0000 -0.1821732561
C   C260      1.0  0.17180  0.49120  0.48080  1.0000 -0.1821732561
C   C261      1.0  0.34240  0.94720  0.98620  1.0000 -0.079450948
C   C262      1.0  0.65760  0.05280  0.98620  1.0000 -0.079450948
C   C263      1.0  0.84240  0.55280  0.48620  1.0000 -0.079450948
C   C264      1.0  0.15760  0.44720  0.48620  1.0000 -0.079450948
O   O1        1.0  0.32363  0.27347  0.53120  1.0000 -0.1984174556
O   O2        1.0  0.67637  0.72653  0.53120  1.0000 -0.1984174556
O   O3        1.0  0.17637  0.77347  0.03120  1.0000 -0.1984174556
O   O4        1.0  0.82363  0.22653  0.03120  1.0000 -0.1984174556
O   O5        1.0  0.36792  0.28623  0.73140  1.0000 -0.1984174556
O   O6        1.0  0.63208  0.71377  0.73140  1.0000 -0.1984174556
O   O7        1.0  0.13208  0.78623  0.23140  1.0000 -0.1984174556
O   O8        1.0  0.86792  0.21377  0.23140  1.0000 -0.1984174556
O   O9        1.0  0.44619  0.20775  0.57680  1.0000 -0.1984174556
O   O10       1.0  0.55381  0.79225  0.57680  1.0000 -0.1984174556
O   O11       1.0  0.05381  0.70775  0.07680  1.0000 -0.1984174556
O   O12       1.0  0.94619  0.29225  0.07680  1.0000 -0.1984174556
O   O13       1.0  0.36102  0.15205  0.64120  1.0000 -0.1912926065
O   O14       1.0  0.63898  0.84795  0.64120  1.0000 -0.1912926065
O   O15       1.0  0.13898  0.65205  0.14120  1.0000 -0.1912926065
O   O16       1.0  0.86102  0.34795  0.14120  1.0000 -0.1912926065
O   O17       1.0  0.31204  0.39865  0.22740  1.0000 -0.5685888084
O   O18       1.0  0.68796  0.60135  0.22740  1.0000 -0.5685888084
O   O19       1.0  0.18796  0.89865  0.72740  1.0000 -0.5685888084
O   O20       1.0  0.81204  0.10135  0.72740  1.0000 -0.5685888084
O   O21       1.0  0.22505  0.97988  0.61480  1.0000 -0.5685888084
O   O22       1.0  0.77495  0.02012  0.61480  1.0000 -0.5685888084
O   O23       1.0  0.27495  0.47988  0.11480  1.0000 -0.5685888084
O   O24       1.0  0.72505  0.52012  0.11480  1.0000 -0.5685888084
O   O25       1.0  0.65850  0.15185  0.63060  1.0000 -0.4883387463
O   O26       1.0  0.34150  0.84815  0.63060  1.0000 -0.4883387463
O   O27       1.0  0.84150  0.65185  0.13060  1.0000 -0.4883387463
O   O28       1.0  0.15850  0.34815  0.13060  1.0000 -0.4883387463
O   O29       1.0  0.25436  0.35786  0.02810  1.0000 -0.5468710908
O   O30       1.0  0.74564  0.64214  0.02810  1.0000 -0.5468710908
O   O31       1.0  0.24564  0.85786  0.52810  1.0000 -0.5444753795
O   O32       1.0  0.75436  0.14214  0.52810  1.0000 -0.5468710908
O   O33       1.0  0.25099  0.35407  0.21220  1.0000 -0.521196034
O   O34       1.0  0.74901  0.64593  0.21220  1.0000 -0.521196034
O   O35       1.0  0.24901  0.85407  0.71220  1.0000 -0.521196034
O   O36       1.0  0.75099  0.14593  0.71220  1.0000 -0.521196034
O   O37       1.0  0.32359  0.39180  0.04250  1.0000 -0.5634088854
O   O38       1.0  0.67641  0.60820  0.04250  1.0000 -0.5634088854
O   O39       1.0  0.17641  0.89180  0.54250  1.0000 -0.5634088854
O   O40       1.0  0.82359  0.10820  0.54250  1.0000 -0.5634088854
O   O41       1.0  0.29245  0.94381  0.63570  1.0000 -0.5444753795
O   O42       1.0  0.70755  0.05619  0.63570  1.0000 -0.5444753795
O   O43       1.0  0.20755  0.44381  0.13570  1.0000 -0.5444753795
O   O44       1.0  0.79245  0.55619  0.13570  1.0000 -0.5444753795
O   O45       1.0  0.64800  0.12660  0.51620  1.0000 -0.4296229372
O   O46       1.0  0.35200  0.87340  0.51620  1.0000 -0.4296229372
O   O47       1.0  0.85200  0.62660  0.01620  1.0000 -0.4296229372
O   O48       1.0  0.14800  0.37340  0.01620  1.0000 -0.4296229372
O   O49       1.0  0.22653  0.17637  0.96880  1.0000 -0.1984174556
O   O50       1.0  0.77347  0.82363  0.96880  1.0000 -0.1984174556
O   O51       1.0  0.72653  0.32363  0.46880  1.0000 -0.1984174556
O   O52       1.0  0.27347  0.67637  0.46880  1.0000 -0.1984174556
O   O53       1.0  0.21377  0.13208  0.76860  1.0000 -0.1984174556
O   O54       1.0  0.78623  0.86792  0.76860  1.0000 -0.1984174556
O   O55       1.0  0.71377  0.36792  0.26860  1.0000 -0.1984174556
O   O56       1.0  0.28623  0.63208  0.26860  1.0000 -0.1984174556
O   O57       1.0  0.29225  0.05381  0.92320  1.0000 -0.1984174556
O   O58       1.0  0.70775  0.94619  0.92320  1.0000 -0.1984174556
O   O59       1.0  0.79225  0.44619  0.42320  1.0000 -0.1984174556
O   O60       1.0  0.20775  0.55381  0.42320  1.0000 -0.1984174556
O   O61       1.0  0.34795  0.13898  0.85880  1.0000 -0.1912926065
O   O62       1.0  0.65205  0.86102  0.85880  1.0000 -0.1912926065
O   O63       1.0  0.84795  0.36102  0.35880  1.0000 -0.1912926065
O   O64       1.0  0.15205  0.63898  0.35880  1.0000 -0.1912926065
O   O65       1.0  0.10135  0.18796  0.27260  1.0000 -0.5685888084
O   O66       1.0  0.89865  0.81204  0.27260  1.0000 -0.5685888084
O   O67       1.0  0.60135  0.31204  0.77260  1.0000 -0.5685888084
O   O68       1.0  0.39865  0.68796  0.77260  1.0000 -0.5685888084
O   O69       1.0  0.52012  0.27495  0.88520  1.0000 -0.5685888084
O   O70       1.0  0.47988  0.72505  0.88520  1.0000 -0.5685888084
O   O71       1.0  0.02012  0.22505  0.38520  1.0000 -0.5685888084
O   O72       1.0  0.97988  0.77495  0.38520  1.0000 -0.5685888084
O   O73       1.0  0.34815  0.84150  0.86940  1.0000 -0.4883387463
O   O74       1.0  0.65185  0.15850  0.86940  1.0000 -0.4883387463
O   O75       1.0  0.84815  0.65850  0.36940  1.0000 -0.4883387463
O   O76       1.0  0.15185  0.34150  0.36940  1.0000 -0.4883387463
O   O77       1.0  0.14214  0.24564  0.47190  1.0000 -0.5468710908
O   O78       1.0  0.85786  0.75436  0.47190  1.0000 -0.5468710908
O   O79       1.0  0.64214  0.25436  0.97190  1.0000 -0.5468710908
O   O80       1.0  0.35786  0.74564  0.97190  1.0000 -0.5468710908
O   O81       1.0  0.14593  0.24901  0.28780  1.0000 -0.521196034
O   O82       1.0  0.85407  0.75099  0.28780  1.0000 -0.521196034
O   O83       1.0  0.64593  0.25099  0.78780  1.0000 -0.521196034
O   O84       1.0  0.35407  0.74901  0.78780  1.0000 -0.521196034
O   O85       1.0  0.10820  0.17641  0.45750  1.0000 -0.5634088854
O   O86       1.0  0.89180  0.82359  0.45750  1.0000 -0.5634088854
O   O87       1.0  0.60820  0.32359  0.95750  1.0000 -0.5634088854
O   O88       1.0  0.39180  0.67641  0.95750  1.0000 -0.5634088854
O   O89       1.0  0.55619  0.20755  0.86430  1.0000 -0.5468710908
O   O90       1.0  0.44381  0.79245  0.86430  1.0000 -0.5468710908
O   O91       1.0  0.05619  0.29245  0.36430  1.0000 -0.5444753795
O   O92       1.0  0.94381  0.70755  0.36430  1.0000 -0.5444753795
O   O93       1.0  0.37340  0.85200  0.98380  1.0000 -0.4209190498
O   O94       1.0  0.62660  0.14800  0.98380  1.0000 -0.4209190498
O   O95       1.0  0.87340  0.64800  0.48380  1.0000 -0.4209190498
O   O96       1.0  0.12660  0.35200  0.48380  1.0000 -0.4209190498
