# DDEC6 charges by PACMAN v1.1 (https://github.com/mtap-research/PACMAN-charge/)
data_2016[In][nan]3[ASR]8
_chemical_formula_sum              "In4 H16 C32 O20"
_cell_length_a       12.5429
_cell_length_b       12.5429
_cell_length_c       12.5429
_cell_angle_alpha    103.889
_cell_angle_beta     103.889
_cell_angle_gamma    121.328

_symmetry_space_group_name_H-M    "P 1"
_symmetry_Int_Tables_number       1

loop_
  _symmetry_equiv_pos_as_xyz
  'x, y, z'

loop_
  _atom_site_type_symbol
  _atom_site_label
  _atom_site_symmetry_multiplicity
  _atom_site_fract_x
  _atom_site_fract_y
  _atom_site_fract_z
  _atom_site_occupancy
  _atom_site_charge
In  In1       1.0  0.18750  0.81250  0.00000  1.0000 1.5567698051
In  In2       1.0  0.43750  0.93750  0.87500  1.0000 1.5567698051
In  In3       1.0  0.81250  0.18750  0.00000  1.0000 1.5567698051
In  In4       1.0  0.06250  0.56250  0.12500  1.0000 1.5567698051
H   H1        1.0  0.44490  0.87500  0.06990  1.0000 0.400276797
H   H2        1.0  0.62500  0.19490  0.06990  1.0000 0.400276797
H   H3        1.0  0.80510  0.37500  0.93010  1.0000 0.400276797
H   H4        1.0  0.12500  0.55510  0.93010  1.0000 0.400276797
H   H5        1.0  0.12510  0.12510  0.00000  1.0000 0.1364870799
H   H6        1.0  0.37510  0.87510  0.50000  1.0000 0.1364870799
H   H7        1.0  0.12490  0.62490  0.50000  1.0000 0.1364870799
H   H8        1.0  0.87490  0.87490  0.00000  1.0000 0.1364870799
H   H9        1.0  0.48850  0.30300  0.94350  1.0000 0.1155235321
H   H10       1.0  0.79500  0.23850  0.68550  1.0000 0.1155235321
H   H11       1.0  0.35950  0.54500  0.05650  1.0000 0.1155235321
H   H12       1.0  0.55300  0.10950  0.31450  1.0000 0.1155235321
H   H13       1.0  0.89050  0.44700  0.68550  1.0000 0.1155235321
H   H14       1.0  0.45500  0.64050  0.94350  1.0000 0.1155235321
H   H15       1.0  0.76150  0.20500  0.31450  1.0000 0.1155235321
H   H16       1.0  0.69700  0.51150  0.05650  1.0000 0.1155235321
C   C1        1.0  0.29250  0.07320  0.94810  1.0000 0.6036096682
C   C2        1.0  0.59440  0.04250  0.71930  1.0000 0.6036096682
C   C3        1.0  0.12510  0.34440  0.05190  1.0000 0.6036096682
C   C4        1.0  0.32320  0.87510  0.28070  1.0000 0.6036096682
C   C5        1.0  0.12490  0.67680  0.71930  1.0000 0.6036096682
C   C6        1.0  0.65560  0.87490  0.94810  1.0000 0.6036096682
C   C7        1.0  0.95750  0.40560  0.28070  1.0000 0.6036096682
C   C8        1.0  0.92680  0.70750  0.05190  1.0000 0.6036096682
C   C9        1.0  0.30425  0.19828  0.96773  1.0000 -0.0516693116
C   C10       1.0  0.58652  0.05425  0.60597  1.0000 -0.0516693116
C   C11       1.0  0.23055  0.33652  0.03227  1.0000 -0.0516693116
C   C12       1.0  0.44828  0.98055  0.39403  1.0000 -0.0516693116
C   C13       1.0  0.01945  0.55172  0.60597  1.0000 -0.0516693116
C   C14       1.0  0.66348  0.76945  0.96773  1.0000 -0.0516693116
C   C15       1.0  0.94575  0.41348  0.39403  1.0000 -0.0516693116
C   C16       1.0  0.80172  0.69575  0.03227  1.0000 -0.0516693116
C   C17       1.0  0.21060  0.21060  0.00000  1.0000 -0.0887079294
C   C18       1.0  0.46060  0.96060  0.50000  1.0000 -0.0887079294
C   C19       1.0  0.03940  0.53940  0.50000  1.0000 -0.0887079294
C   C20       1.0  0.78940  0.78940  0.00000  1.0000 -0.0887079294
C   C21       1.0  0.41810  0.31213  0.96773  1.0000 -0.1282225232
C   C22       1.0  0.70037  0.16810  0.60597  1.0000 -0.1282225232
C   C23       1.0  0.34440  0.45037  0.03227  1.0000 -0.1282225232
C   C24       1.0  0.56213  0.09440  0.39403  1.0000 -0.1282225232
C   C25       1.0  0.90560  0.43787  0.60597  1.0000 -0.1282225232
C   C26       1.0  0.54963  0.65560  0.96773  1.0000 -0.1282225232
C   C27       1.0  0.83190  0.29963  0.39403  1.0000 -0.1282225232
C   C28       1.0  0.68787  0.58190  0.03227  1.0000 -0.1282225232
C   C29       1.0  0.43814  0.43814  0.00000  1.0000 0.0793483948
C   C30       1.0  0.68814  0.18814  0.50000  1.0000 0.0793483948
C   C31       1.0  0.81186  0.31186  0.50000  1.0000 0.0793483948
C   C32       1.0  0.56186  0.56186  0.00000  1.0000 0.0793483948
O   O1        1.0  0.38670  0.87500  0.01170  1.0000 -0.9331315289
O   O2        1.0  0.62500  0.13670  0.01170  1.0000 -0.9331315289
O   O3        1.0  0.86330  0.37500  0.98830  1.0000 -0.9331315289
O   O4        1.0  0.12500  0.61330  0.98830  1.0000 -0.9331315289
O   O5        1.0  0.22990  0.99660  0.99450  1.0000 -0.5475207399
O   O6        1.0  0.48540  0.97990  0.73330  1.0000 -0.5475207399
O   O7        1.0  0.00210  0.23540  0.00550  1.0000 -0.5475207399
O   O8        1.0  0.24660  0.75210  0.26670  1.0000 -0.5475207399
O   O9        1.0  0.24790  0.75340  0.73330  1.0000 -0.5475207399
O   O10       1.0  0.76460  0.99790  0.99450  1.0000 -0.5475207399
O   O11       1.0  0.02010  0.51460  0.26670  1.0000 -0.5475207399
O   O12       1.0  0.00340  0.77010  0.00550  1.0000 -0.5475207399
O   O13       1.0  0.34500  0.04220  0.88480  1.0000 -0.567241935
O   O14       1.0  0.71020  0.09500  0.80280  1.0000 -0.567241935
O   O15       1.0  0.15740  0.46020  0.11520  1.0000 -0.567241935
O   O16       1.0  0.29220  0.90740  0.19720  1.0000 -0.567241935
O   O17       1.0  0.09260  0.70780  0.80280  1.0000 -0.567241935
O   O18       1.0  0.53980  0.84260  0.88480  1.0000 -0.567241935
O   O19       1.0  0.90500  0.28980  0.19720  1.0000 -0.567241935
O   O20       1.0  0.95780  0.65500  0.11520  1.0000 -0.567241935
