# DDEC6 charges by PACMAN v1.1 (https://github.com/mtap-research/PACMAN-charge/)
data_2016[Zn][nan]3[ASR]9
_chemical_formula_sum              "Zn6 H24 C40 N12 O16"
_cell_length_a       11.0826
_cell_length_b       9.1504
_cell_length_c       19.4964
_cell_angle_alpha    93.7273
_cell_angle_beta     91.3088
_cell_angle_gamma    117.621

_symmetry_space_group_name_H-M    "P 1"
_symmetry_Int_Tables_number       1

loop_
  _symmetry_equiv_pos_as_xyz
  'x, y, z'

loop_
  _atom_site_type_symbol
  _atom_site_label
  _atom_site_symmetry_multiplicity
  _atom_site_fract_x
  _atom_site_fract_y
  _atom_site_fract_z
  _atom_site_occupancy
  _atom_site_charge
Zn  Zn1       1.0  0.39506  0.29323  0.52590  1.0000 0.7586787672
Zn  Zn2       1.0  0.13501  0.70638  0.01345  1.0000 0.7586787672
Zn  Zn3       1.0  0.62728  0.69524  0.46618  1.0000 0.7520326109
Zn  Zn4       1.0  0.84433  0.25701  0.98262  1.0000 0.7684466572
Zn  Zn5       1.0  0.50538  0.98823  0.49335  1.0000 0.8666900725
Zn  Zn6       1.0  0.01733  0.99329  0.99254  1.0000 0.8465795846
H   H1        1.0  0.47396  0.94439  0.71378  1.0000 0.1097683282
H   H2        1.0  0.40295  0.84532  0.83029  1.0000 0.1097683282
H   H3        1.0  0.17844  0.12395  0.84529  1.0000 0.117716016
H   H4        1.0  0.24624  0.21899  0.72812  1.0000 0.1097683282
H   H5        1.0  0.75483  0.21827  0.39798  1.0000 0.133149314
H   H6        1.0  0.80684  0.54476  0.37873  1.0000 0.1393480843
H   H7        1.0  0.68574  0.71622  0.96386  1.0000 0.1393480843
H   H8        1.0  0.61668  0.37725  0.95045  1.0000 0.1393480843
H   H9        1.0  0.48888  0.02247  0.28414  1.0000 0.1027288319
H   H10       1.0  0.53817  0.11399  0.16478  1.0000 0.1097683282
H   H11       1.0  0.85363  0.96154  0.15937  1.0000 0.117716016
H   H12       1.0  0.80418  0.87269  0.27889  1.0000 0.1097683282
H   H13       1.0  0.25000  0.74834  0.59116  1.0000 0.1393480843
H   H14       1.0  0.19889  0.41762  0.59943  1.0000 0.1393480843
H   H15       1.0  0.98639  0.92433  0.76559  1.0000 0.1097683282
H   H16       1.0  0.94840  0.89204  0.63744  1.0000 0.1097683282
H   H17       1.0  0.69029  0.12789  0.65343  1.0000 0.117716016
H   H18       1.0  0.72914  0.16061  0.78225  1.0000 0.1097683282
H   H19       1.0  0.07054  0.10239  0.22285  1.0000 0.1097683282
H   H20       1.0  0.12068  0.14314  0.35145  1.0000 0.117716016
H   H21       1.0  0.27646  0.79108  0.33756  1.0000 0.117716016
H   H22       1.0  0.23291  0.75634  0.20805  1.0000 0.1097683282
H   H23       1.0  0.26454  0.26218  0.09477  1.0000 0.1393480843
H   H24       1.0  0.32352  0.59811  0.10611  1.0000 0.1393480843
C   C1        1.0  0.40081  0.13401  0.64135  1.0000 0.5838313432
C   C2        1.0  0.36474  0.08691  0.71357  1.0000 -0.0285002703
C   C3        1.0  0.40885  0.98230  0.74316  1.0000 -0.0985678851
C   C4        1.0  0.36955  0.92821  0.80815  1.0000 -0.0985678851
C   C5        1.0  0.28669  0.97929  0.84533  1.0000 -0.0232158216
C   C6        1.0  0.24558  0.08789  0.81668  1.0000 -0.0931182967
C   C7        1.0  0.28309  0.13972  0.75121  1.0000 -0.0931182967
C   C8        1.0  0.23499  0.91646  0.91332  1.0000 0.5986974966
C   C9        1.0  0.70784  0.29139  0.41865  1.0000 -0.0232158216
C   C10       1.0  0.73286  0.45250  0.40911  1.0000 -0.0285002703
C   C11       1.0  0.74858  0.65423  0.96778  1.0000 -0.0285002703
C   C12       1.0  0.71493  0.48690  0.96188  1.0000 -0.0285002703
C   C13       1.0  0.60631  0.86858  0.35623  1.0000 0.5878615311
C   C14       1.0  0.64040  0.93591  0.28758  1.0000 -0.0387776687
C   C15       1.0  0.56862  0.00940  0.25639  1.0000 -0.0985678851
C   C16       1.0  0.59655  0.06077  0.18999  1.0000 -0.0931182967
C   C17       1.0  0.69662  0.03963  0.15391  1.0000 -0.0123372392
C   C18       1.0  0.77326  0.97400  0.18663  1.0000 -0.0985678851
C   C19       1.0  0.74539  0.92354  0.25291  1.0000 -0.0931182967
C   C20       1.0  0.73226  0.09460  0.08346  1.0000 0.5678186746
C   C21       1.0  0.30202  0.68184  0.57022  1.0000 -0.0232158216
C   C22       1.0  0.27707  0.51838  0.57437  1.0000 -0.0285002703
C   C23       1.0  0.88026  0.07275  0.86027  1.0000 0.5986974966
C   C24       1.0  0.86073  0.04698  0.78237  1.0000 -0.0285002703
C   C25       1.0  0.92319  0.97152  0.74135  1.0000 -0.0985678851
C   C26       1.0  0.90100  0.95128  0.66978  1.0000 -0.0931182967
C   C27       1.0  0.81417  0.00418  0.63826  1.0000 -0.0232158216
C   C28       1.0  0.75704  0.08660  0.67862  1.0000 -0.0931182967
C   C29       1.0  0.77896  0.10545  0.74994  1.0000 -0.0985678851
C   C30       1.0  0.76002  0.95001  0.56506  1.0000 0.5878615311
C   C31       1.0  0.13332  0.91183  0.13047  1.0000 0.5878615311
C   C32       1.0  0.15119  0.92852  0.20758  1.0000 -0.0285002703
C   C33       1.0  0.11498  0.03351  0.24817  1.0000 -0.0985678851
C   C34       1.0  0.14173  0.05620  0.31931  1.0000 -0.0931182967
C   C35       1.0  0.20366  0.97241  0.35153  1.0000 -0.0285002703
C   C36       1.0  0.22925  0.85677  0.31203  1.0000 -0.0931182967
C   C37       1.0  0.20532  0.83734  0.24051  1.0000 -0.0985678851
C   C38       1.0  0.26015  0.02444  0.42435  1.0000 0.5986974966
C   C39       1.0  0.21254  0.32424  0.07185  1.0000 -0.0387776687
C   C40       1.0  0.24035  0.48928  0.07833  1.0000 -0.0285002703
N   N1        1.0  0.60527  0.22806  0.46224  1.0000 -0.1510336741
N   N2        1.0  0.56797  0.34657  0.47947  1.0000 -0.0793774693
N   N3        1.0  0.64471  0.48414  0.44722  1.0000 -0.1640982448
N   N4        1.0  0.88505  0.74181  0.98266  1.0000 -0.1510336741
N   N5        1.0  0.93495  0.63172  0.98617  1.0000 -0.0719321265
N   N6        1.0  0.83132  0.47507  0.97339  1.0000 -0.1693717434
N   N7        1.0  0.41209  0.75655  0.53216  1.0000 -0.1365542231
N   N8        1.0  0.45418  0.64335  0.51306  1.0000 -0.0719321265
N   N9        1.0  0.37286  0.49801  0.53882  1.0000 -0.1693717434
N   N10       1.0  0.09747  0.23838  0.03004  1.0000 -0.1365542231
N   N11       1.0  0.05308  0.34627  0.01118  1.0000 -0.0581892661
N   N12       1.0  0.14056  0.50013  0.04043  1.0000 -0.1771901666
O   O1        1.0  0.47054  0.08141  0.60727  1.0000 -0.5720059145
O   O2        1.0  0.35329  0.22908  0.61811  1.0000 -0.5404881804
O   O3        1.0  0.23876  0.78357  0.93029  1.0000 -0.5212990313
O   O4        1.0  0.18747  0.99453  0.95099  1.0000 -0.5720059145
O   O5        1.0  0.51955  0.89029  0.39079  1.0000 -0.5720059145
O   O6        1.0  0.66866  0.78744  0.37646  1.0000 -0.5320088733
O   O7        1.0  0.70874  0.21016  0.06193  1.0000 -0.5320088733
O   O8        1.0  0.79600  0.03651  0.04579  1.0000 -0.5784123211
O   O9        1.0  0.95175  0.01774  0.89101  1.0000 -0.5603592861
O   O10       1.0  0.82181  0.15271  0.88922  1.0000 -0.5492014854
O   O11       1.0  0.77300  0.82542  0.53724  1.0000 -0.5320088733
O   O12       1.0  0.69620  0.01727  0.53644  1.0000 -0.5784123211
O   O13       1.0  0.05633  0.96137  0.10178  1.0000 -0.5603592861
O   O14       1.0  0.20104  0.84666  0.09865  1.0000 -0.5492014854
O   O15       1.0  0.26116  0.15873  0.45066  1.0000 -0.5404881804
O   O16       1.0  0.30937  0.94299  0.45451  1.0000 -0.5603592861
