# DDEC6 charges by PACMAN v1.1 (https://github.com/mtap-research/PACMAN-charge/)
data_2016[Co][nan]3[ASR]28
_chemical_formula_sum              "Co6 H18 C42 O18"
_cell_length_a       21.7036
_cell_length_b       21.7036
_cell_length_c       6.844
_cell_angle_alpha    90
_cell_angle_beta     90
_cell_angle_gamma    120

_symmetry_space_group_name_H-M    "P 1"
_symmetry_Int_Tables_number       1

loop_
  _symmetry_equiv_pos_as_xyz
  'x, y, z'

loop_
  _atom_site_type_symbol
  _atom_site_label
  _atom_site_symmetry_multiplicity
  _atom_site_fract_x
  _atom_site_fract_y
  _atom_site_fract_z
  _atom_site_occupancy
  _atom_site_charge
Co  Co1       1.0  0.28176  0.60829  0.33908  1.0000 1.0048200056
Co  Co2       1.0  0.39171  0.67347  0.00575  1.0000 1.0048200056
Co  Co3       1.0  0.32653  0.71824  0.67241  1.0000 1.0048200056
Co  Co4       1.0  0.60829  0.28176  0.66092  1.0000 1.0048200056
Co  Co5       1.0  0.67347  0.39171  0.99425  1.0000 1.0048200056
Co  Co6       1.0  0.71824  0.32653  0.32759  1.0000 1.0048200056
H   H1        1.0  0.39510  0.51230  0.03870  1.0000 0.135766761
H   H2        1.0  0.48770  0.88280  0.70537  1.0000 0.135766761
H   H3        1.0  0.11720  0.60490  0.37203  1.0000 0.135766761
H   H4        1.0  0.51230  0.39510  0.96130  1.0000 0.135766761
H   H5        1.0  0.88280  0.48770  0.29463  1.0000 0.135766761
H   H6        1.0  0.60490  0.11720  0.62797  1.0000 0.135766761
H   H7        1.0  0.44800  0.45340  0.17610  1.0000 0.1084120437
H   H8        1.0  0.54660  0.99460  0.84277  1.0000 0.1084120437
H   H9        1.0  0.00540  0.55200  0.50943  1.0000 0.1084120437
H   H10       1.0  0.45340  0.44800  0.82390  1.0000 0.1084120437
H   H11       1.0  0.99460  0.54660  0.15723  1.0000 0.1084120437
H   H12       1.0  0.55200  0.00540  0.49057  1.0000 0.1084120437
H   H13       1.0  0.45410  0.54530  0.69530  1.0000 0.1173486824
H   H14       1.0  0.45470  0.90880  0.36197  1.0000 0.1173486824
H   H15       1.0  0.09120  0.54590  0.02863  1.0000 0.1173486824
H   H16       1.0  0.54530  0.45410  0.30470  1.0000 0.1173486824
H   H17       1.0  0.90880  0.45470  0.63803  1.0000 0.1173486824
H   H18       1.0  0.54590  0.09120  0.97137  1.0000 0.1173486824
C   C1        1.0  0.39550  0.61970  0.61540  1.0000 0.636362271
C   C2        1.0  0.38030  0.77580  0.28207  1.0000 0.636362271
C   C3        1.0  0.22420  0.60450  0.94873  1.0000 0.636362271
C   C4        1.0  0.61970  0.39550  0.38460  1.0000 0.636362271
C   C5        1.0  0.77580  0.38030  0.71793  1.0000 0.636362271
C   C6        1.0  0.60450  0.22420  0.05127  1.0000 0.636362271
C   C7        1.0  0.40570  0.51810  0.17440  1.0000 -0.205331339
C   C8        1.0  0.48190  0.88760  0.84107  1.0000 -0.205331339
C   C9        1.0  0.11240  0.59430  0.50773  1.0000 -0.205331339
C   C10       1.0  0.51810  0.40570  0.82560  1.0000 -0.205331339
C   C11       1.0  0.88760  0.48190  0.15893  1.0000 -0.205331339
C   C12       1.0  0.59430  0.11240  0.49227  1.0000 -0.205331339
C   C13       1.0  0.43810  0.48340  0.25520  1.0000 -0.1241091115
C   C14       1.0  0.51660  0.95470  0.92187  1.0000 -0.1241091115
C   C15       1.0  0.04530  0.56190  0.58853  1.0000 -0.1241091115
C   C16       1.0  0.48340  0.43810  0.74480  1.0000 -0.1241091115
C   C17       1.0  0.95470  0.51660  0.07813  1.0000 -0.1241091115
C   C18       1.0  0.56190  0.04530  0.41147  1.0000 -0.1241091115
C   C19       1.0  0.40800  0.57230  0.48290  1.0000 -0.1547587202
C   C20       1.0  0.42770  0.83570  0.14957  1.0000 -0.1547587202
C   C21       1.0  0.16430  0.59200  0.81623  1.0000 -0.1547587202
C   C22       1.0  0.57230  0.40800  0.51710  1.0000 -0.1547587202
C   C23       1.0  0.83570  0.42770  0.85043  1.0000 -0.1547587202
C   C24       1.0  0.59200  0.16430  0.18377  1.0000 -0.1547587202
C   C25       1.0  0.38780  0.56120  0.28150  1.0000 0.3238555357
C   C26       1.0  0.43880  0.82660  0.94817  1.0000 0.3238555357
C   C27       1.0  0.17340  0.61220  0.61483  1.0000 0.3238555357
C   C28       1.0  0.56120  0.38780  0.71850  1.0000 0.3238555357
C   C29       1.0  0.82660  0.43880  0.05183  1.0000 0.3238555357
C   C30       1.0  0.61220  0.17340  0.38517  1.0000 0.3238555357
C   C31       1.0  0.44120  0.53760  0.56120  1.0000 -0.1379726962
C   C32       1.0  0.46240  0.90360  0.22787  1.0000 -0.1379726962
C   C33       1.0  0.09640  0.55880  0.89453  1.0000 -0.1379726962
C   C34       1.0  0.53760  0.44120  0.43880  1.0000 -0.1379726962
C   C35       1.0  0.90360  0.46240  0.77213  1.0000 -0.1379726962
C   C36       1.0  0.55880  0.09640  0.10547  1.0000 -0.1379726962
C   C37       1.0  0.45680  0.49220  0.45570  1.0000 0.0535639173
C   C38       1.0  0.50780  0.96460  0.12237  1.0000 0.0535639173
C   C39       1.0  0.03540  0.54320  0.78903  1.0000 0.0535639173
C   C40       1.0  0.49220  0.45680  0.54430  1.0000 0.0535639173
C   C41       1.0  0.96460  0.50780  0.87763  1.0000 0.0535639173
C   C42       1.0  0.54320  0.03540  0.21097  1.0000 0.0535639173
O   O1        1.0  0.41990  0.62880  0.78650  1.0000 -0.5370017126
O   O2        1.0  0.37120  0.79110  0.45317  1.0000 -0.5370017126
O   O3        1.0  0.20890  0.58010  0.11983  1.0000 -0.5370017126
O   O4        1.0  0.62880  0.41990  0.21350  1.0000 -0.5370017126
O   O5        1.0  0.79110  0.37120  0.54683  1.0000 -0.5370017126
O   O6        1.0  0.58010  0.20890  0.88017  1.0000 -0.5370017126
O   O7        1.0  0.36240  0.65010  0.54950  1.0000 -0.5974356369
O   O8        1.0  0.34990  0.71230  0.21617  1.0000 -0.5974356369
O   O9        1.0  0.28770  0.63760  0.88283  1.0000 -0.5974356369
O   O10       1.0  0.65010  0.36240  0.45050  1.0000 -0.5974356369
O   O11       1.0  0.71230  0.34990  0.78383  1.0000 -0.5974356369
O   O12       1.0  0.63760  0.28770  0.11717  1.0000 -0.5974356369
O   O13       1.0  0.35250  0.58910  0.19320  1.0000 -0.6235200003
O   O14       1.0  0.41090  0.76340  0.85987  1.0000 -0.6235200003
O   O15       1.0  0.23660  0.64750  0.52653  1.0000 -0.6235200003
O   O16       1.0  0.58910  0.35250  0.80680  1.0000 -0.6235200003
O   O17       1.0  0.76340  0.41090  0.14013  1.0000 -0.6235200003
O   O18       1.0  0.64750  0.23660  0.47347  1.0000 -0.6235200003
