# DDEC6 charges by PACMAN v1.1 (https://github.com/mtap-research/PACMAN-charge/)
data_2016[Dy][nan]3[ASR]1
_chemical_formula_sum              "Dy8 H48 C120 N8 O64"
_cell_length_a       12.7243
_cell_length_b       13.294
_cell_length_c       28.598
_cell_angle_alpha    90
_cell_angle_beta     90
_cell_angle_gamma    90

_symmetry_space_group_name_H-M    "P 1"
_symmetry_Int_Tables_number       1

loop_
  _symmetry_equiv_pos_as_xyz
  'x, y, z'

loop_
  _atom_site_type_symbol
  _atom_site_label
  _atom_site_symmetry_multiplicity
  _atom_site_fract_x
  _atom_site_fract_y
  _atom_site_fract_z
  _atom_site_occupancy
  _atom_site_charge
Dy  Dy1       1.0  0.08939  0.54299  0.92996  1.0000 2.0486459918
Dy  Dy2       1.0  0.41061  0.95701  0.42996  1.0000 2.0447999425
Dy  Dy3       1.0  0.91061  0.54299  0.57004  1.0000 2.0486459918
Dy  Dy4       1.0  0.58939  0.95701  0.07004  1.0000 2.0447999425
Dy  Dy5       1.0  0.91061  0.45701  0.07004  1.0000 2.0486459918
Dy  Dy6       1.0  0.58939  0.04299  0.57004  1.0000 2.0447999425
Dy  Dy7       1.0  0.08939  0.45701  0.42996  1.0000 2.0486459918
Dy  Dy8       1.0  0.41061  0.04299  0.92996  1.0000 2.0447999425
H   H1        1.0  0.17350  0.16660  0.72280  1.0000 0.1259676071
H   H2        1.0  0.32650  0.33340  0.22280  1.0000 0.1259676071
H   H3        1.0  0.82650  0.16660  0.77720  1.0000 0.1259676071
H   H4        1.0  0.67350  0.33340  0.27720  1.0000 0.1259676071
H   H5        1.0  0.82650  0.83340  0.27720  1.0000 0.1259676071
H   H6        1.0  0.67350  0.66667  0.77720  1.0000 0.1259676071
H   H7        1.0  0.17350  0.83340  0.22280  1.0000 0.1259676071
H   H8        1.0  0.32650  0.66667  0.72280  1.0000 0.1259676071
H   H9        1.0  0.16490  0.46590  0.70630  1.0000 0.1259676071
H   H10       1.0  0.33510  0.03410  0.20630  1.0000 0.1259676071
H   H11       1.0  0.83510  0.46590  0.79370  1.0000 0.1259676071
H   H12       1.0  0.66490  0.03410  0.29370  1.0000 0.1259676071
H   H13       1.0  0.83510  0.53410  0.29370  1.0000 0.1259676071
H   H14       1.0  0.66490  0.96590  0.79370  1.0000 0.1259676071
H   H15       1.0  0.16490  0.53410  0.20630  1.0000 0.1259676071
H   H16       1.0  0.33510  0.96590  0.70630  1.0000 0.1259676071
H   H17       1.0  0.13750  0.48480  0.78470  1.0000 0.1259676071
H   H18       1.0  0.36250  0.01520  0.28470  1.0000 0.1259676071
H   H19       1.0  0.86250  0.48480  0.71530  1.0000 0.1227063535
H   H20       1.0  0.63750  0.01520  0.21530  1.0000 0.1227063535
H   H21       1.0  0.86250  0.51520  0.21530  1.0000 0.1227063535
H   H22       1.0  0.63750  0.98480  0.71530  1.0000 0.1259676071
H   H23       1.0  0.13750  0.51520  0.28470  1.0000 0.1259676071
H   H24       1.0  0.36250  0.98480  0.78470  1.0000 0.1259676071
H   H25       1.0  0.31980  0.19750  0.66780  1.0000 0.1227063535
H   H26       1.0  0.18020  0.30250  0.16780  1.0000 0.1227063535
H   H27       1.0  0.68020  0.19750  0.83220  1.0000 0.1227063535
H   H28       1.0  0.81980  0.30250  0.33220  1.0000 0.1227063535
H   H29       1.0  0.68020  0.80250  0.33220  1.0000 0.1227063535
H   H30       1.0  0.81980  0.69750  0.83220  1.0000 0.1227063535
H   H31       1.0  0.31980  0.80250  0.16780  1.0000 0.1227063535
H   H32       1.0  0.18020  0.69750  0.66780  1.0000 0.1227063535
H   H33       1.0  0.28950  0.27250  0.53220  1.0000 0.1387166418
H   H34       1.0  0.21050  0.22750  0.03220  1.0000 0.1387166418
H   H35       1.0  0.71050  0.27250  0.96780  1.0000 0.1387166418
H   H36       1.0  0.78950  0.22750  0.46780  1.0000 0.1387166418
H   H37       1.0  0.71050  0.72750  0.46780  1.0000 0.1387166418
H   H38       1.0  0.78950  0.77250  0.96780  1.0000 0.1387166418
H   H39       1.0  0.28950  0.72750  0.03220  1.0000 0.1387166418
H   H40       1.0  0.21050  0.77250  0.53220  1.0000 0.1387166418
H   H41       1.0  0.10220  0.39890  0.62870  1.0000 0.1227063535
H   H42       1.0  0.39780  0.10110  0.12870  1.0000 0.1227063535
H   H43       1.0  0.89780  0.39890  0.87130  1.0000 0.1227063535
H   H44       1.0  0.60220  0.10110  0.37130  1.0000 0.1227063535
H   H45       1.0  0.89780  0.60110  0.37130  1.0000 0.1227063535
H   H46       1.0  0.60220  0.89890  0.87130  1.0000 0.1227063535
H   H47       1.0  0.10220  0.60110  0.12870  1.0000 0.1227063535
H   H48       1.0  0.39780  0.89890  0.62870  1.0000 0.1227063535
C   C1        1.0  0.12980  0.35630  0.85410  1.0000 0.6110307016
C   C2        1.0  0.37020  0.14370  0.35410  1.0000 0.6110307016
C   C3        1.0  0.87020  0.35630  0.64590  1.0000 0.6110307016
C   C4        1.0  0.62980  0.14370  0.14590  1.0000 0.6110307016
C   C5        1.0  0.87020  0.64370  0.14590  1.0000 0.6110307016
C   C6        1.0  0.62980  0.85630  0.64590  1.0000 0.6110307016
C   C7        1.0  0.12980  0.64370  0.35410  1.0000 0.6110307016
C   C8        1.0  0.37020  0.85630  0.85410  1.0000 0.6110307016
C   C9        1.0  0.13410  0.33810  0.80260  1.0000 -0.0667279088
C   C10       1.0  0.36590  0.16190  0.30260  1.0000 -0.0667279088
C   C11       1.0  0.86590  0.33810  0.69740  1.0000 -0.0667279088
C   C12       1.0  0.63410  0.16190  0.19740  1.0000 -0.0667279088
C   C13       1.0  0.86590  0.66190  0.19740  1.0000 -0.0667279088
C   C14       1.0  0.63410  0.83810  0.69740  1.0000 -0.0667279088
C   C15       1.0  0.13410  0.66190  0.30260  1.0000 -0.0667279088
C   C16       1.0  0.36590  0.83810  0.80260  1.0000 -0.0667279088
C   C17       1.0  0.14350  0.24550  0.78130  1.0000 0.0414670492
C   C18       1.0  0.35650  0.25450  0.28130  1.0000 0.0414670492
C   C19       1.0  0.85650  0.24550  0.71870  1.0000 0.0414670492
C   C20       1.0  0.64350  0.25450  0.21870  1.0000 0.0414670492
C   C21       1.0  0.85650  0.75450  0.21870  1.0000 0.0414670492
C   C22       1.0  0.64350  0.74550  0.71870  1.0000 0.0414670492
C   C23       1.0  0.14350  0.75450  0.28130  1.0000 0.0414670492
C   C24       1.0  0.35650  0.74550  0.78130  1.0000 0.0414670492
C   C25       1.0  0.16590  0.23130  0.73460  1.0000 -0.2027621269
C   C26       1.0  0.33410  0.26870  0.23460  1.0000 -0.2027621269
C   C27       1.0  0.83410  0.23130  0.76540  1.0000 -0.2027621269
C   C28       1.0  0.66590  0.26870  0.26540  1.0000 -0.2027621269
C   C29       1.0  0.83410  0.76870  0.26540  1.0000 -0.2027621269
C   C30       1.0  0.66590  0.73130  0.76540  1.0000 -0.2027621269
C   C31       1.0  0.16590  0.76870  0.23460  1.0000 -0.2027621269
C   C32       1.0  0.33410  0.73130  0.73460  1.0000 -0.2027621269
C   C33       1.0  0.17710  0.31350  0.70530  1.0000 0.0934541868
C   C34       1.0  0.32290  0.18650  0.20530  1.0000 0.0934541868
C   C35       1.0  0.82290  0.31350  0.79470  1.0000 0.0934541868
C   C36       1.0  0.67710  0.18650  0.29470  1.0000 0.0934541868
C   C37       1.0  0.82290  0.68650  0.29470  1.0000 0.0934541868
C   C38       1.0  0.67710  0.81350  0.79470  1.0000 0.0934541868
C   C39       1.0  0.17710  0.68650  0.20530  1.0000 0.0934541868
C   C40       1.0  0.32290  0.81350  0.70530  1.0000 0.0934541868
C   C41       1.0  0.16220  0.40920  0.72520  1.0000 -0.1336546614
C   C42       1.0  0.33780  0.09080  0.22520  1.0000 -0.1336546614
C   C43       1.0  0.83780  0.40920  0.77480  1.0000 -0.1336546614
C   C44       1.0  0.66220  0.09080  0.27480  1.0000 -0.1336546614
C   C45       1.0  0.83780  0.59080  0.27480  1.0000 -0.1336546614
C   C46       1.0  0.66220  0.90920  0.77480  1.0000 -0.1336546614
C   C47       1.0  0.16220  0.59080  0.22520  1.0000 -0.1336546614
C   C48       1.0  0.33780  0.90920  0.72520  1.0000 -0.1336546614
C   C49       1.0  0.14370  0.42020  0.77250  1.0000 -0.0849741809
C   C50       1.0  0.35630  0.07980  0.27250  1.0000 -0.0849741809
C   C51       1.0  0.85630  0.42020  0.72750  1.0000 -0.0912116857
C   C52       1.0  0.64370  0.07980  0.22750  1.0000 -0.0849741809
C   C53       1.0  0.85630  0.57980  0.22750  1.0000 -0.0912116857
C   C54       1.0  0.64370  0.92020  0.72750  1.0000 -0.0849741809
C   C55       1.0  0.14370  0.57980  0.27250  1.0000 -0.0912116857
C   C56       1.0  0.35630  0.92020  0.77250  1.0000 -0.0849741809
C   C57       1.0  0.20570  0.29990  0.65570  1.0000 0.0514293816
C   C58       1.0  0.29430  0.20010  0.15570  1.0000 0.0514293816
C   C59       1.0  0.79430  0.29990  0.84430  1.0000 0.0514293816
C   C60       1.0  0.70570  0.20010  0.34430  1.0000 0.0514293816
C   C61       1.0  0.79430  0.70010  0.34430  1.0000 0.0514293816
C   C62       1.0  0.70570  0.79990  0.84430  1.0000 0.0514293816
C   C63       1.0  0.20570  0.70010  0.15570  1.0000 0.0514293816
C   C64       1.0  0.29430  0.79990  0.65570  1.0000 0.0514293816
C   C65       1.0  0.28670  0.23450  0.64450  1.0000 -0.1406356059
C   C66       1.0  0.21330  0.26550  0.14450  1.0000 -0.1406356059
C   C67       1.0  0.71330  0.23450  0.85550  1.0000 -0.1406356059
C   C68       1.0  0.78670  0.26550  0.35550  1.0000 -0.1406356059
C   C69       1.0  0.71330  0.76550  0.35550  1.0000 -0.1406356059
C   C70       1.0  0.78670  0.73450  0.85550  1.0000 -0.1406356059
C   C71       1.0  0.28670  0.76550  0.14450  1.0000 -0.1406356059
C   C72       1.0  0.21330  0.73450  0.64450  1.0000 -0.1406356059
C   C73       1.0  0.31850  0.22440  0.59790  1.0000 -0.0161668324
C   C74       1.0  0.18150  0.27560  0.09790  1.0000 -0.0161668324
C   C75       1.0  0.68150  0.22440  0.90210  1.0000 -0.0161668324
C   C76       1.0  0.81850  0.27560  0.40210  1.0000 -0.0161668324
C   C77       1.0  0.68150  0.77560  0.40210  1.0000 -0.0161668324
C   C78       1.0  0.81850  0.72440  0.90210  1.0000 -0.0161668324
C   C79       1.0  0.31850  0.77560  0.09790  1.0000 -0.0161668324
C   C80       1.0  0.18150  0.72440  0.59790  1.0000 -0.0161668324
C   C81       1.0  0.26820  0.27890  0.56320  1.0000 -0.0912116857
C   C82       1.0  0.23180  0.22110  0.06320  1.0000 -0.0912116857
C   C83       1.0  0.73180  0.27890  0.93680  1.0000 -0.0912116857
C   C84       1.0  0.76820  0.22110  0.43680  1.0000 -0.0912116857
C   C85       1.0  0.73180  0.72110  0.43680  1.0000 -0.0912116857
C   C86       1.0  0.76820  0.77890  0.93680  1.0000 -0.0912116857
C   C87       1.0  0.26820  0.72110  0.06320  1.0000 -0.0912116857
C   C88       1.0  0.23180  0.77890  0.56320  1.0000 -0.0912116857
C   C89       1.0  0.18640  0.34280  0.57460  1.0000 -0.0292963942
C   C90       1.0  0.31360  0.15720  0.07460  1.0000 -0.0292963942
C   C91       1.0  0.81360  0.34280  0.92540  1.0000 -0.0292963942
C   C92       1.0  0.68640  0.15720  0.42540  1.0000 -0.0292963942
C   C93       1.0  0.81360  0.65720  0.42540  1.0000 -0.0292963942
C   C94       1.0  0.68640  0.84280  0.92540  1.0000 -0.0292963942
C   C95       1.0  0.18640  0.65720  0.07460  1.0000 -0.0292963942
C   C96       1.0  0.31360  0.84280  0.57460  1.0000 -0.0292963942
C   C97       1.0  0.15600  0.35450  0.62100  1.0000 -0.1198764629
C   C98       1.0  0.34400  0.14550  0.12100  1.0000 -0.1198764629
C   C99       1.0  0.84400  0.35450  0.87900  1.0000 -0.1198764629
C   C100      1.0  0.65600  0.14550  0.37900  1.0000 -0.1198764629
C   C101      1.0  0.84400  0.64550  0.37900  1.0000 -0.1198764629
C   C102      1.0  0.65600  0.85450  0.87900  1.0000 -0.1198764629
C   C103      1.0  0.15600  0.64550  0.12100  1.0000 -0.1198764629
C   C104      1.0  0.34400  0.85450  0.62100  1.0000 -0.1198764629
C   C105      1.0  0.41040  0.15970  0.58710  1.0000 0.5705698394
C   C106      1.0  0.08960  0.34030  0.08710  1.0000 0.5705698394
C   C107      1.0  0.58960  0.15970  0.91290  1.0000 0.5705698394
C   C108      1.0  0.91040  0.34030  0.41290  1.0000 0.5705698394
C   C109      1.0  0.58960  0.84030  0.41290  1.0000 0.5705698394
C   C110      1.0  0.91040  0.65970  0.91290  1.0000 0.5705698394
C   C111      1.0  0.41040  0.84030  0.08710  1.0000 0.5705698394
C   C112      1.0  0.08960  0.65970  0.58710  1.0000 0.5705698394
C   C113      1.0  0.13090  0.39700  0.53560  1.0000 0.6658067293
C   C114      1.0  0.36910  0.10300  0.03560  1.0000 0.6658067293
C   C115      1.0  0.86910  0.39700  0.96440  1.0000 0.6658067293
C   C116      1.0  0.63090  0.10300  0.46440  1.0000 0.6658067293
C   C117      1.0  0.86910  0.60300  0.46440  1.0000 0.6658067293
C   C118      1.0  0.63090  0.89700  0.96440  1.0000 0.6658067293
C   C119      1.0  0.13090  0.60300  0.03560  1.0000 0.6658067293
C   C120      1.0  0.36910  0.89700  0.53560  1.0000 0.6658067293
N   N1        1.0  0.12370  0.15340  0.80880  1.0000 0.4986113795
N   N2        1.0  0.37630  0.34660  0.30880  1.0000 0.4986113795
N   N3        1.0  0.87630  0.15340  0.69120  1.0000 0.4986113795
N   N4        1.0  0.62370  0.34660  0.19120  1.0000 0.4986113795
N   N5        1.0  0.87630  0.84660  0.19120  1.0000 0.4986113795
N   N6        1.0  0.62370  0.65340  0.69120  1.0000 0.4986113795
N   N7        1.0  0.12370  0.84660  0.30880  1.0000 0.4986113795
N   N8        1.0  0.37630  0.65340  0.80880  1.0000 0.4986113795
O   O1        1.0  0.09240  0.43890  0.86610  1.0000 -0.6769372038
O   O2        1.0  0.40760  0.06110  0.36610  1.0000 -0.6769372038
O   O3        1.0  0.90760  0.43890  0.63390  1.0000 -0.6769372038
O   O4        1.0  0.59240  0.06110  0.13390  1.0000 -0.6769372038
O   O5        1.0  0.90760  0.56110  0.13390  1.0000 -0.6769372038
O   O6        1.0  0.59240  0.93890  0.63390  1.0000 -0.6769372038
O   O7        1.0  0.09240  0.56110  0.36610  1.0000 -0.6769372038
O   O8        1.0  0.40760  0.93890  0.86610  1.0000 -0.6769372038
O   O9        1.0  0.16520  0.29020  0.88070  1.0000 -0.5395439602
O   O10       1.0  0.33480  0.20980  0.38070  1.0000 -0.5395439602
O   O11       1.0  0.83480  0.29020  0.61930  1.0000 -0.5395439602
O   O12       1.0  0.66520  0.20980  0.11930  1.0000 -0.5395439602
O   O13       1.0  0.83480  0.70980  0.11930  1.0000 -0.5395439602
O   O14       1.0  0.66520  0.79020  0.61930  1.0000 -0.5395439602
O   O15       1.0  0.16520  0.70980  0.38070  1.0000 -0.5395439602
O   O16       1.0  0.33480  0.79020  0.88070  1.0000 -0.5395439602
O   O17       1.0  0.04000  0.14680  0.82830  1.0000 -0.3090074285
O   O18       1.0  0.46000  0.35320  0.32830  1.0000 -0.3090074285
O   O19       1.0  0.96000  0.14680  0.67170  1.0000 -0.3090074285
O   O20       1.0  0.54000  0.35320  0.17170  1.0000 -0.3090074285
O   O21       1.0  0.96000  0.85320  0.17170  1.0000 -0.3090074285
O   O22       1.0  0.54000  0.64680  0.67170  1.0000 -0.3090074285
O   O23       1.0  0.04000  0.85320  0.32830  1.0000 -0.3090074285
O   O24       1.0  0.46000  0.64680  0.82830  1.0000 -0.3090074285
O   O25       1.0  0.18680  0.08660  0.80760  1.0000 -0.2913714014
O   O26       1.0  0.31320  0.41340  0.30760  1.0000 -0.2913714014
O   O27       1.0  0.81320  0.08660  0.69240  1.0000 -0.2913714014
O   O28       1.0  0.68680  0.41340  0.19240  1.0000 -0.2913714014
O   O29       1.0  0.81320  0.91340  0.19240  1.0000 -0.2913714014
O   O30       1.0  0.68680  0.58660  0.69240  1.0000 -0.2913714014
O   O31       1.0  0.18680  0.91340  0.30760  1.0000 -0.2913714014
O   O32       1.0  0.31320  0.58660  0.80760  1.0000 -0.2913714014
O   O33       1.0  0.44770  0.10340  0.61900  1.0000 -0.6471727602
O   O34       1.0  0.05230  0.39660  0.11900  1.0000 -0.6471727602
O   O35       1.0  0.55230  0.10340  0.88100  1.0000 -0.6471727602
O   O36       1.0  0.94770  0.39660  0.38100  1.0000 -0.6471727602
O   O37       1.0  0.55230  0.89660  0.38100  1.0000 -0.6471727602
O   O38       1.0  0.94770  0.60340  0.88100  1.0000 -0.6471727602
O   O39       1.0  0.44770  0.89660  0.11900  1.0000 -0.6471727602
O   O40       1.0  0.05230  0.60340  0.61900  1.0000 -0.6471727602
O   O41       1.0  0.45220  0.16140  0.54700  1.0000 -0.6241315119
O   O42       1.0  0.04780  0.33860  0.04700  1.0000 -0.6241315119
O   O43       1.0  0.54780  0.16140  0.95300  1.0000 -0.6241315119
O   O44       1.0  0.95220  0.33860  0.45300  1.0000 -0.6241315119
O   O45       1.0  0.54780  0.83860  0.45300  1.0000 -0.6241315119
O   O46       1.0  0.95220  0.66140  0.95300  1.0000 -0.6241315119
O   O47       1.0  0.45220  0.83860  0.04700  1.0000 -0.6241315119
O   O48       1.0  0.04780  0.66140  0.54700  1.0000 -0.6241315119
O   O49       1.0  0.16560  0.38900  0.49500  1.0000 -0.6694276891
O   O50       1.0  0.33440  0.11100  0.99500  1.0000 -0.6694276891
O   O51       1.0  0.83440  0.38900  0.00500  1.0000 -0.6694276891
O   O52       1.0  0.66560  0.11100  0.50500  1.0000 -0.6694276891
O   O53       1.0  0.83440  0.61100  0.50500  1.0000 -0.6694276891
O   O54       1.0  0.66560  0.88900  0.00500  1.0000 -0.6694276891
O   O55       1.0  0.16560  0.61100  0.99500  1.0000 -0.6694276891
O   O56       1.0  0.33440  0.88900  0.49500  1.0000 -0.6694276891
O   O57       1.0  0.05120  0.44780  0.54550  1.0000 -0.695729237
O   O58       1.0  0.44880  0.05220  0.04550  1.0000 -0.694309663
O   O59       1.0  0.94880  0.44780  0.95450  1.0000 -0.695729237
O   O60       1.0  0.55120  0.05220  0.45450  1.0000 -0.694309663
O   O61       1.0  0.94880  0.55220  0.45450  1.0000 -0.694309663
O   O62       1.0  0.55120  0.94780  0.95450  1.0000 -0.694309663
O   O63       1.0  0.05120  0.55220  0.04550  1.0000 -0.694309663
O   O64       1.0  0.44880  0.94780  0.54550  1.0000 -0.694309663
