# DDEC6 charges by PACMAN v1.1 (https://github.com/mtap-research/PACMAN-charge/)
data_2016[Cu][nbo]3[ASR]43
_chemical_formula_sum              "Cu6 H78 C126 O30"
_cell_length_a       21.4661
_cell_length_b       21.4661
_cell_length_c       21.4661
_cell_angle_alpha    110.511
_cell_angle_beta     110.511
_cell_angle_gamma    110.511

_symmetry_space_group_name_H-M    "P 1"
_symmetry_Int_Tables_number       1

loop_
  _symmetry_equiv_pos_as_xyz
  'x, y, z'

loop_
  _atom_site_type_symbol
  _atom_site_label
  _atom_site_symmetry_multiplicity
  _atom_site_fract_x
  _atom_site_fract_y
  _atom_site_fract_z
  _atom_site_occupancy
  _atom_site_charge
Cu  Cu1       1.0  0.94688  0.94688  0.42403  1.0000 0.8646581588
Cu  Cu2       1.0  0.94687  0.42403  0.94687  1.0000 0.8650586424
Cu  Cu3       1.0  0.42403  0.94687  0.94687  1.0000 0.8646581588
Cu  Cu4       1.0  0.05313  0.05312  0.57597  1.0000 0.8646581588
Cu  Cu5       1.0  0.57597  0.05312  0.05312  1.0000 0.8650586424
Cu  Cu6       1.0  0.05313  0.57597  0.05312  1.0000 0.8646581588
H   H1        1.0  0.89960  0.07100  0.65660  1.0000 0.1289556429
H   H2        1.0  0.07100  0.65660  0.89960  1.0000 0.1289556429
H   H3        1.0  0.65660  0.89960  0.07100  1.0000 0.1289556429
H   H4        1.0  0.92900  0.10040  0.34340  1.0000 0.1289556429
H   H5        1.0  0.34340  0.92900  0.10040  1.0000 0.1289556429
H   H6        1.0  0.10040  0.34340  0.92900  1.0000 0.1289556429
H   H7        1.0  0.10040  0.92900  0.34340  1.0000 0.1289556429
H   H8        1.0  0.92900  0.34340  0.10040  1.0000 0.1289556429
H   H9        1.0  0.34340  0.10040  0.92900  1.0000 0.1289556429
H   H10       1.0  0.07100  0.89960  0.65660  1.0000 0.1289556429
H   H11       1.0  0.65660  0.07100  0.89960  1.0000 0.1289556429
H   H12       1.0  0.89960  0.65660  0.07100  1.0000 0.1289556429
H   H13       1.0  0.79770  0.06480  0.67740  1.0000 0.1204321779
H   H14       1.0  0.06480  0.67740  0.79770  1.0000 0.1204321779
H   H15       1.0  0.67740  0.79770  0.06480  1.0000 0.1204321779
H   H16       1.0  0.93520  0.20230  0.32260  1.0000 0.1204321779
H   H17       1.0  0.32260  0.93520  0.20230  1.0000 0.1204321779
H   H18       1.0  0.20230  0.32260  0.93520  1.0000 0.1204321779
H   H19       1.0  0.20230  0.93520  0.32260  1.0000 0.1204321779
H   H20       1.0  0.93520  0.32260  0.20230  1.0000 0.1204321779
H   H21       1.0  0.32260  0.20230  0.93520  1.0000 0.1204321779
H   H22       1.0  0.06480  0.79770  0.67740  1.0000 0.1204321779
H   H23       1.0  0.67740  0.06480  0.79770  1.0000 0.1204321779
H   H24       1.0  0.79770  0.67740  0.06480  1.0000 0.1204321779
H   H25       1.0  0.63570  0.90000  0.44530  1.0000 0.1128818292
H   H26       1.0  0.90000  0.44530  0.63570  1.0000 0.1128818292
H   H27       1.0  0.44530  0.63570  0.90000  1.0000 0.1128818292
H   H28       1.0  0.10000  0.36430  0.55470  1.0000 0.1128818292
H   H29       1.0  0.55470  0.10000  0.36430  1.0000 0.1128818292
H   H30       1.0  0.36430  0.55470  0.10000  1.0000 0.1128818292
H   H31       1.0  0.36430  0.10000  0.55470  1.0000 0.1128818292
H   H32       1.0  0.10000  0.55470  0.36430  1.0000 0.1128818292
H   H33       1.0  0.55470  0.36430  0.10000  1.0000 0.1128818292
H   H34       1.0  0.90000  0.63570  0.44530  1.0000 0.1128818292
H   H35       1.0  0.44530  0.90000  0.63570  1.0000 0.1128818292
H   H36       1.0  0.63570  0.44530  0.90000  1.0000 0.1128818292
H   H37       1.0  0.73630  0.90610  0.42410  1.0000 0.1289556429
H   H38       1.0  0.90610  0.42410  0.73630  1.0000 0.1289556429
H   H39       1.0  0.42410  0.73630  0.90610  1.0000 0.1289556429
H   H40       1.0  0.09390  0.26370  0.57590  1.0000 0.1289556429
H   H41       1.0  0.57590  0.09390  0.26370  1.0000 0.1289556429
H   H42       1.0  0.26370  0.57590  0.09390  1.0000 0.1289556429
H   H43       1.0  0.26370  0.09390  0.57590  1.0000 0.1289556429
H   H44       1.0  0.09390  0.57590  0.26370  1.0000 0.1289556429
H   H45       1.0  0.57590  0.26370  0.09390  1.0000 0.1289556429
H   H46       1.0  0.90610  0.73630  0.42410  1.0000 0.1289556429
H   H47       1.0  0.42410  0.90610  0.73630  1.0000 0.1289556429
H   H48       1.0  0.73630  0.42410  0.90610  1.0000 0.1289556429
H   H49       1.0  0.59470  0.99360  0.48030  1.0000 0.1128818292
H   H50       1.0  0.99360  0.48030  0.59470  1.0000 0.1128818292
H   H51       1.0  0.48030  0.59470  0.99360  1.0000 0.1128818292
H   H52       1.0  0.00640  0.40530  0.51970  1.0000 0.1128818292
H   H53       1.0  0.51970  0.00640  0.40530  1.0000 0.1128818292
H   H54       1.0  0.40530  0.51970  0.00640  1.0000 0.1128818292
H   H55       1.0  0.40530  0.00640  0.51970  1.0000 0.1128818292
H   H56       1.0  0.00640  0.51970  0.40530  1.0000 0.1128818292
H   H57       1.0  0.51970  0.40530  0.00640  1.0000 0.1128818292
H   H58       1.0  0.99360  0.59470  0.48030  1.0000 0.1128818292
H   H59       1.0  0.48030  0.99360  0.59470  1.0000 0.1128818292
H   H60       1.0  0.59470  0.48030  0.99360  1.0000 0.1128818292
H   H61       1.0  0.70700  0.90000  0.70700  1.0000 0.1204321779
H   H62       1.0  0.90000  0.70700  0.70700  1.0000 0.1204321779
H   H63       1.0  0.70700  0.70700  0.90000  1.0000 0.1204321779
H   H64       1.0  0.10000  0.29300  0.29300  1.0000 0.1204321779
H   H65       1.0  0.29300  0.10000  0.29300  1.0000 0.1204321779
H   H66       1.0  0.29300  0.29300  0.10000  1.0000 0.1204321779
H   H67       1.0  0.61600  0.87220  0.66140  1.0000 0.1031352603
H   H68       1.0  0.87220  0.66140  0.61600  1.0000 0.1031352603
H   H69       1.0  0.66140  0.61600  0.87220  1.0000 0.1031352603
H   H70       1.0  0.12780  0.38400  0.33860  1.0000 0.1031352603
H   H71       1.0  0.33860  0.12780  0.38400  1.0000 0.1031352603
H   H72       1.0  0.38400  0.33860  0.12780  1.0000 0.1031352603
H   H73       1.0  0.38400  0.12780  0.33860  1.0000 0.1031352603
H   H74       1.0  0.12780  0.33860  0.38400  1.0000 0.1031352603
H   H75       1.0  0.33860  0.38400  0.12780  1.0000 0.1031352603
H   H76       1.0  0.87220  0.61600  0.66140  1.0000 0.1031352603
H   H77       1.0  0.66140  0.87220  0.61600  1.0000 0.1031352603
H   H78       1.0  0.61600  0.66140  0.87220  1.0000 0.1031352603
C   C1        1.0  0.89098  0.99191  0.52312  1.0000 0.5804070053
C   C2        1.0  0.99191  0.52312  0.89098  1.0000 0.5804070053
C   C3        1.0  0.52312  0.89098  0.99191  1.0000 0.5804070053
C   C4        1.0  0.00809  0.10902  0.47688  1.0000 0.5804070053
C   C5        1.0  0.47688  0.00809  0.10902  1.0000 0.5804070053
C   C6        1.0  0.10902  0.47688  0.00809  1.0000 0.5804070053
C   C7        1.0  0.10902  0.00809  0.47688  1.0000 0.5804070053
C   C8        1.0  0.00809  0.47688  0.10902  1.0000 0.5804070053
C   C9        1.0  0.47688  0.10902  0.00809  1.0000 0.5804070053
C   C10       1.0  0.99191  0.89098  0.52312  1.0000 0.5804070053
C   C11       1.0  0.52312  0.99191  0.89098  1.0000 0.5804070053
C   C12       1.0  0.89098  0.52312  0.99191  1.0000 0.5804070053
C   C13       1.0  0.82610  0.98774  0.53703  1.0000 -0.0300234495
C   C14       1.0  0.98774  0.53703  0.82610  1.0000 -0.0300234495
C   C15       1.0  0.53703  0.82610  0.98774  1.0000 -0.0300234495
C   C16       1.0  0.01226  0.17390  0.46297  1.0000 -0.0300234495
C   C17       1.0  0.46297  0.01226  0.17390  1.0000 -0.0300234495
C   C18       1.0  0.17390  0.46297  0.01226  1.0000 -0.0300234495
C   C19       1.0  0.17390  0.01226  0.46297  1.0000 -0.0300234495
C   C20       1.0  0.01226  0.46297  0.17390  1.0000 -0.0300234495
C   C21       1.0  0.46297  0.17390  0.01226  1.0000 -0.0300234495
C   C22       1.0  0.98774  0.82610  0.53703  1.0000 -0.0300234495
C   C23       1.0  0.53703  0.98774  0.82610  1.0000 -0.0300234495
C   C24       1.0  0.82610  0.53703  0.98774  1.0000 -0.0300234495
C   C25       1.0  0.84598  0.03644  0.61374  1.0000 -0.0892551921
C   C26       1.0  0.03644  0.61374  0.84598  1.0000 -0.0892551921
C   C27       1.0  0.61374  0.84598  0.03644  1.0000 -0.0892551921
C   C28       1.0  0.96356  0.15402  0.38626  1.0000 -0.0892551921
C   C29       1.0  0.38626  0.96356  0.15402  1.0000 -0.0892551921
C   C30       1.0  0.15402  0.38626  0.96356  1.0000 -0.0892551921
C   C31       1.0  0.15402  0.96356  0.38626  1.0000 -0.0892551921
C   C32       1.0  0.96356  0.38626  0.15402  1.0000 -0.0892551921
C   C33       1.0  0.38626  0.15402  0.96356  1.0000 -0.0892551921
C   C34       1.0  0.03644  0.84598  0.61374  1.0000 -0.0892551921
C   C35       1.0  0.61374  0.03644  0.84598  1.0000 -0.0892551921
C   C36       1.0  0.84598  0.61374  0.03644  1.0000 -0.0892551921
C   C37       1.0  0.78518  0.03296  0.62567  1.0000 -0.1508072398
C   C38       1.0  0.03296  0.62567  0.78518  1.0000 -0.1508072398
C   C39       1.0  0.62567  0.78518  0.03296  1.0000 -0.1508072398
C   C40       1.0  0.96704  0.21482  0.37433  1.0000 -0.1508072398
C   C41       1.0  0.37433  0.96704  0.21482  1.0000 -0.1508072398
C   C42       1.0  0.21482  0.37433  0.96704  1.0000 -0.1508072398
C   C43       1.0  0.21482  0.96704  0.37433  1.0000 -0.1508072398
C   C44       1.0  0.96704  0.37433  0.21482  1.0000 -0.1508072398
C   C45       1.0  0.37433  0.21482  0.96704  1.0000 -0.1508072398
C   C46       1.0  0.03296  0.78518  0.62567  1.0000 -0.1508072398
C   C47       1.0  0.62567  0.03296  0.78518  1.0000 -0.1508072398
C   C48       1.0  0.78518  0.62567  0.03296  1.0000 -0.1508072398
C   C49       1.0  0.70752  0.98435  0.56393  1.0000 0.0898273604
C   C50       1.0  0.98435  0.56393  0.70752  1.0000 0.0898273604
C   C51       1.0  0.56393  0.70752  0.98435  1.0000 0.0898273604
C   C52       1.0  0.01565  0.29248  0.43607  1.0000 0.0898273604
C   C53       1.0  0.43607  0.01565  0.29248  1.0000 0.0898273604
C   C54       1.0  0.29248  0.43607  0.01565  1.0000 0.0898273604
C   C55       1.0  0.29248  0.01565  0.43607  1.0000 0.0898273604
C   C56       1.0  0.01565  0.43607  0.29248  1.0000 0.0898273604
C   C57       1.0  0.43607  0.29248  0.01565  1.0000 0.0898273604
C   C58       1.0  0.98435  0.70752  0.56393  1.0000 0.0898273604
C   C59       1.0  0.56393  0.98435  0.70752  1.0000 0.0898273604
C   C60       1.0  0.70752  0.56393  0.98435  1.0000 0.0898273604
C   C61       1.0  0.68930  0.93544  0.48823  1.0000 -0.161178227
C   C62       1.0  0.93544  0.48823  0.68930  1.0000 -0.161178227
C   C63       1.0  0.48823  0.68930  0.93544  1.0000 -0.161178227
C   C64       1.0  0.06456  0.31070  0.51177  1.0000 -0.161178227
C   C65       1.0  0.51177  0.06456  0.31070  1.0000 -0.161178227
C   C66       1.0  0.31070  0.51177  0.06456  1.0000 -0.161178227
C   C67       1.0  0.31070  0.06456  0.51177  1.0000 -0.161178227
C   C68       1.0  0.06456  0.51177  0.31070  1.0000 -0.161178227
C   C69       1.0  0.51177  0.31070  0.06456  1.0000 -0.161178227
C   C70       1.0  0.93544  0.68930  0.48823  1.0000 -0.161178227
C   C71       1.0  0.48823  0.93544  0.68930  1.0000 -0.161178227
C   C72       1.0  0.68930  0.48823  0.93544  1.0000 -0.161178227
C   C73       1.0  0.74902  0.93852  0.47574  1.0000 -0.0892551921
C   C74       1.0  0.93852  0.47574  0.74902  1.0000 -0.0892551921
C   C75       1.0  0.47574  0.74902  0.93852  1.0000 -0.0892551921
C   C76       1.0  0.06148  0.25098  0.52426  1.0000 -0.0892551921
C   C77       1.0  0.52426  0.06148  0.25098  1.0000 -0.0892551921
C   C78       1.0  0.25098  0.52426  0.06148  1.0000 -0.0892551921
C   C79       1.0  0.25098  0.06148  0.52426  1.0000 -0.0892551921
C   C80       1.0  0.06148  0.52426  0.25098  1.0000 -0.0892551921
C   C81       1.0  0.52426  0.25098  0.06148  1.0000 -0.0892551921
C   C82       1.0  0.93852  0.74902  0.47574  1.0000 -0.0892551921
C   C83       1.0  0.47574  0.93852  0.74902  1.0000 -0.0892551921
C   C84       1.0  0.74902  0.47574  0.93852  1.0000 -0.0892551921
C   C85       1.0  0.64305  0.98704  0.57435  1.0000 -0.0195623724
C   C86       1.0  0.98704  0.57435  0.64305  1.0000 -0.0195623724
C   C87       1.0  0.57435  0.64305  0.98704  1.0000 -0.0195623724
C   C88       1.0  0.01296  0.35695  0.42565  1.0000 -0.0195623724
C   C89       1.0  0.42565  0.01296  0.35695  1.0000 -0.0195623724
C   C90       1.0  0.35695  0.42565  0.01296  1.0000 -0.0195623724
C   C91       1.0  0.35695  0.01296  0.42565  1.0000 -0.0195623724
C   C92       1.0  0.01296  0.42565  0.35695  1.0000 -0.0195623724
C   C93       1.0  0.42565  0.35695  0.01296  1.0000 -0.0195623724
C   C94       1.0  0.98704  0.64305  0.57435  1.0000 -0.0195623724
C   C95       1.0  0.57435  0.98704  0.64305  1.0000 -0.0195623724
C   C96       1.0  0.64305  0.57435  0.98704  1.0000 -0.0195623724
C   C97       1.0  0.58932  0.99200  0.52193  1.0000 -0.1906715455
C   C98       1.0  0.99200  0.52193  0.58932  1.0000 -0.1906715455
C   C99       1.0  0.52193  0.58932  0.99200  1.0000 -0.1906715455
C   C100      1.0  0.00800  0.41068  0.47807  1.0000 -0.1906715455
C   C101      1.0  0.47807  0.00800  0.41068  1.0000 -0.1906715455
C   C102      1.0  0.41068  0.47807  0.00800  1.0000 -0.1906715455
C   C103      1.0  0.41068  0.00800  0.47807  1.0000 -0.1906715455
C   C104      1.0  0.00800  0.47807  0.41068  1.0000 -0.1906715455
C   C105      1.0  0.47807  0.41068  0.00800  1.0000 -0.1906715455
C   C106      1.0  0.99200  0.58932  0.52193  1.0000 -0.1906715455
C   C107      1.0  0.52193  0.99200  0.58932  1.0000 -0.1906715455
C   C108      1.0  0.58932  0.52193  0.99200  1.0000 -0.1906715455
C   C109      1.0  0.52652  0.99474  0.52652  1.0000 0.0689848654
C   C110      1.0  0.99474  0.52652  0.52652  1.0000 0.0689848654
C   C111      1.0  0.52652  0.52652  0.99474  1.0000 0.0689848654
C   C112      1.0  0.00526  0.47348  0.47348  1.0000 0.0689848654
C   C113      1.0  0.47348  0.00526  0.47348  1.0000 0.0689848654
C   C114      1.0  0.47348  0.47348  0.00526  1.0000 0.0689848654
C   C115      1.0  0.63623  0.98449  0.63623  1.0000 0.1586187946
C   C116      1.0  0.98449  0.63623  0.63623  1.0000 0.1586187946
C   C117      1.0  0.63623  0.63623  0.98449  1.0000 0.1586187946
C   C118      1.0  0.01551  0.36378  0.36377  1.0000 0.1586187946
C   C119      1.0  0.36377  0.01551  0.36377  1.0000 0.1586187946
C   C120      1.0  0.36377  0.36378  0.01551  1.0000 0.1586187946
C   C121      1.0  0.66680  0.89971  0.66680  1.0000 -0.2341606277
C   C122      1.0  0.89971  0.66680  0.66680  1.0000 -0.2341606277
C   C123      1.0  0.66679  0.66679  0.89971  1.0000 -0.2341606277
C   C124      1.0  0.10029  0.33320  0.33320  1.0000 -0.2341606277
C   C125      1.0  0.33320  0.10029  0.33320  1.0000 -0.2341606277
C   C126      1.0  0.33320  0.33320  0.10029  1.0000 -0.2341606277
O   O1        1.0  0.87046  0.94835  0.45325  1.0000 -0.5179559514
O   O2        1.0  0.94835  0.45325  0.87046  1.0000 -0.5179559514
O   O3        1.0  0.45325  0.87046  0.94835  1.0000 -0.5179559514
O   O4        1.0  0.05165  0.12954  0.54675  1.0000 -0.5179559514
O   O5        1.0  0.54675  0.05165  0.12954  1.0000 -0.5179559514
O   O6        1.0  0.12954  0.54675  0.05165  1.0000 -0.5179559514
O   O7        1.0  0.12954  0.05165  0.54675  1.0000 -0.5179559514
O   O8        1.0  0.05165  0.54675  0.12954  1.0000 -0.5179559514
O   O9        1.0  0.54675  0.12954  0.05165  1.0000 -0.5179559514
O   O10       1.0  0.94835  0.87046  0.45325  1.0000 -0.5179559514
O   O11       1.0  0.45325  0.94835  0.87046  1.0000 -0.5179559514
O   O12       1.0  0.87046  0.45325  0.94835  1.0000 -0.5179559514
O   O13       1.0  0.96120  0.03926  0.58291  1.0000 -0.5179559514
O   O14       1.0  0.03926  0.58291  0.96120  1.0000 -0.5254934969
O   O15       1.0  0.58291  0.96120  0.03926  1.0000 -0.5254934969
O   O16       1.0  0.96074  0.03880  0.41709  1.0000 -0.5254934969
O   O17       1.0  0.41709  0.96074  0.03880  1.0000 -0.5254934969
O   O18       1.0  0.03880  0.41709  0.96074  1.0000 -0.5254934969
O   O19       1.0  0.03880  0.96074  0.41709  1.0000 -0.5254934969
O   O20       1.0  0.96074  0.41709  0.03880  1.0000 -0.5179559514
O   O21       1.0  0.41709  0.03880  0.96074  1.0000 -0.5254934969
O   O22       1.0  0.03926  0.96120  0.58291  1.0000 -0.5254934969
O   O23       1.0  0.58291  0.03926  0.96120  1.0000 -0.5254934969
O   O24       1.0  0.96120  0.58291  0.03926  1.0000 -0.5254934969
O   O25       1.0  0.68993  0.97957  0.68993  1.0000 -0.1847835364
O   O26       1.0  0.97957  0.68993  0.68993  1.0000 -0.1847835364
O   O27       1.0  0.68993  0.68993  0.97957  1.0000 -0.1847835364
O   O28       1.0  0.02043  0.31007  0.31007  1.0000 -0.1906715455
O   O29       1.0  0.31007  0.02043  0.31007  1.0000 -0.1906715455
O   O30       1.0  0.31007  0.31007  0.02043  1.0000 -0.1906715455
