# DDEC6 charges by PACMAN v1.1 (https://github.com/mtap-research/PACMAN-charge/)
data_2016[Cu][nbo]3[ASR]42
_chemical_formula_sum              "Cu6 H78 C126 O30"
_cell_length_a       21.6119
_cell_length_b       21.6119
_cell_length_c       21.6119
_cell_angle_alpha    108.231
_cell_angle_beta     108.231
_cell_angle_gamma    108.231

_symmetry_space_group_name_H-M    "P 1"
_symmetry_Int_Tables_number       1

loop_
  _symmetry_equiv_pos_as_xyz
  'x, y, z'

loop_
  _atom_site_type_symbol
  _atom_site_label
  _atom_site_symmetry_multiplicity
  _atom_site_fract_x
  _atom_site_fract_y
  _atom_site_fract_z
  _atom_site_occupancy
  _atom_site_charge
Cu  Cu1       1.0  0.45510  0.45510  0.92999  1.0000 0.8599673964
Cu  Cu2       1.0  0.45510  0.92999  0.45510  1.0000 0.8599673964
Cu  Cu3       1.0  0.92999  0.45510  0.45510  1.0000 0.8599673964
Cu  Cu4       1.0  0.54490  0.54490  0.07001  1.0000 0.8599673964
Cu  Cu5       1.0  0.07001  0.54490  0.54490  1.0000 0.8599673964
Cu  Cu6       1.0  0.54490  0.07001  0.54490  1.0000 0.8599673964
H   H1        1.0  0.43370  0.61470  0.85460  1.0000 0.1301370122
H   H2        1.0  0.61470  0.85460  0.43370  1.0000 0.1301370122
H   H3        1.0  0.85460  0.43370  0.61470  1.0000 0.1301370122
H   H4        1.0  0.38530  0.56630  0.14540  1.0000 0.1301370122
H   H5        1.0  0.14540  0.38530  0.56630  1.0000 0.1301370122
H   H6        1.0  0.56630  0.14540  0.38530  1.0000 0.1301370122
H   H7        1.0  0.56630  0.38530  0.14540  1.0000 0.1301370122
H   H8        1.0  0.38530  0.14540  0.56630  1.0000 0.1301370122
H   H9        1.0  0.14540  0.56630  0.38530  1.0000 0.1301370122
H   H10       1.0  0.61470  0.43370  0.85460  1.0000 0.1301370122
H   H11       1.0  0.85460  0.61470  0.43370  1.0000 0.1301370122
H   H12       1.0  0.43370  0.85460  0.61470  1.0000 0.1301370122
H   H13       1.0  0.57640  0.74780  0.06300  1.0000 0.1301370122
H   H14       1.0  0.74780  0.06300  0.57640  1.0000 0.1301370122
H   H15       1.0  0.06300  0.57640  0.74780  1.0000 0.1301370122
H   H16       1.0  0.25220  0.42360  0.93700  1.0000 0.1301370122
H   H17       1.0  0.93700  0.25220  0.42360  1.0000 0.1301370122
H   H18       1.0  0.42360  0.93700  0.25220  1.0000 0.1301370122
H   H19       1.0  0.42360  0.25220  0.93700  1.0000 0.1301370122
H   H20       1.0  0.25220  0.93700  0.42360  1.0000 0.1301370122
H   H21       1.0  0.93700  0.42360  0.25220  1.0000 0.1301370122
H   H22       1.0  0.74780  0.57640  0.06300  1.0000 0.1301370122
H   H23       1.0  0.06300  0.74780  0.57640  1.0000 0.1301370122
H   H24       1.0  0.57640  0.06300  0.74780  1.0000 0.1301370122
H   H25       1.0  0.43830  0.71350  0.83370  1.0000 0.1216448702
H   H26       1.0  0.71350  0.83370  0.43830  1.0000 0.1216448702
H   H27       1.0  0.83370  0.43830  0.71350  1.0000 0.1216448702
H   H28       1.0  0.28650  0.56170  0.16630  1.0000 0.1216448702
H   H29       1.0  0.16630  0.28650  0.56170  1.0000 0.1216448702
H   H30       1.0  0.56170  0.16630  0.28650  1.0000 0.1216448702
H   H31       1.0  0.56170  0.28650  0.16630  1.0000 0.1216448702
H   H32       1.0  0.28650  0.16630  0.56170  1.0000 0.1216448702
H   H33       1.0  0.16630  0.56170  0.28650  1.0000 0.1216448702
H   H34       1.0  0.71350  0.43830  0.83370  1.0000 0.1216448702
H   H35       1.0  0.83370  0.71350  0.43830  1.0000 0.1216448702
H   H36       1.0  0.43830  0.83370  0.71350  1.0000 0.1216448702
H   H37       1.0  0.58410  0.84790  0.04340  1.0000 0.11150359
H   H38       1.0  0.84790  0.04340  0.58410  1.0000 0.11150359
H   H39       1.0  0.04340  0.58410  0.84790  1.0000 0.11150359
H   H40       1.0  0.15210  0.41590  0.95660  1.0000 0.11150359
H   H41       1.0  0.95660  0.15210  0.41590  1.0000 0.11150359
H   H42       1.0  0.41590  0.95660  0.15210  1.0000 0.11150359
H   H43       1.0  0.41590  0.15210  0.95660  1.0000 0.11150359
H   H44       1.0  0.15210  0.95660  0.41590  1.0000 0.11150359
H   H45       1.0  0.95660  0.41590  0.15210  1.0000 0.11150359
H   H46       1.0  0.84790  0.58410  0.04340  1.0000 0.11150359
H   H47       1.0  0.04340  0.84790  0.58410  1.0000 0.11150359
H   H48       1.0  0.58410  0.04340  0.84790  1.0000 0.11150359
H   H49       1.0  0.50310  0.90480  0.01860  1.0000 0.11150359
H   H50       1.0  0.90480  0.01860  0.50310  1.0000 0.11150359
H   H51       1.0  0.01860  0.50310  0.90480  1.0000 0.11150359
H   H52       1.0  0.09520  0.49690  0.98140  1.0000 0.11150359
H   H53       1.0  0.98140  0.09520  0.49690  1.0000 0.11150359
H   H54       1.0  0.49690  0.98140  0.09520  1.0000 0.11150359
H   H55       1.0  0.49690  0.09520  0.98140  1.0000 0.11150359
H   H56       1.0  0.09520  0.98140  0.49690  1.0000 0.11150359
H   H57       1.0  0.98140  0.49690  0.09520  1.0000 0.11150359
H   H58       1.0  0.90480  0.50310  0.01860  1.0000 0.11150359
H   H59       1.0  0.01860  0.90480  0.50310  1.0000 0.11150359
H   H60       1.0  0.50310  0.01860  0.90480  1.0000 0.11150359
H   H61       1.0  0.58290  0.78440  0.78440  1.0000 0.1216448702
H   H62       1.0  0.78440  0.78440  0.58290  1.0000 0.1216448702
H   H63       1.0  0.78440  0.58290  0.78440  1.0000 0.1216448702
H   H64       1.0  0.21560  0.41710  0.21560  1.0000 0.1216448702
H   H65       1.0  0.21560  0.21560  0.41710  1.0000 0.1216448702
H   H66       1.0  0.41710  0.21560  0.21560  1.0000 0.1216448702
H   H67       1.0  0.61070  0.86910  0.82430  1.0000 0.10412425
H   H68       1.0  0.86910  0.82430  0.61070  1.0000 0.11150359
H   H69       1.0  0.82430  0.61070  0.86910  1.0000 0.11150359
H   H70       1.0  0.13090  0.38930  0.17570  1.0000 0.11150359
H   H71       1.0  0.17570  0.13090  0.38930  1.0000 0.11150359
H   H72       1.0  0.38930  0.17570  0.13090  1.0000 0.10412425
H   H73       1.0  0.38930  0.13090  0.17570  1.0000 0.10412425
H   H74       1.0  0.13090  0.17570  0.38930  1.0000 0.11150359
H   H75       1.0  0.17570  0.38930  0.13090  1.0000 0.11150359
H   H76       1.0  0.86910  0.61070  0.82430  1.0000 0.11150359
H   H77       1.0  0.82430  0.86910  0.61070  1.0000 0.11150359
H   H78       1.0  0.61070  0.82430  0.86910  1.0000 0.10412425
C   C1        1.0  0.50458  0.60658  0.97466  1.0000 0.5805266855
C   C2        1.0  0.60658  0.97466  0.50458  1.0000 0.5805266855
C   C3        1.0  0.97466  0.50458  0.60658  1.0000 0.5805266855
C   C4        1.0  0.39342  0.49542  0.02534  1.0000 0.5805266855
C   C5        1.0  0.02534  0.39342  0.49542  1.0000 0.5805266855
C   C6        1.0  0.49542  0.02534  0.39342  1.0000 0.5805266855
C   C7        1.0  0.49542  0.39342  0.02534  1.0000 0.5805266855
C   C8        1.0  0.39342  0.02534  0.49542  1.0000 0.5805266855
C   C9        1.0  0.02534  0.49542  0.39342  1.0000 0.5805266855
C   C10       1.0  0.60658  0.50458  0.97466  1.0000 0.5805266855
C   C11       1.0  0.97466  0.60658  0.50458  1.0000 0.5805266855
C   C12       1.0  0.50458  0.97466  0.60658  1.0000 0.5805266855
C   C13       1.0  0.50778  0.67204  0.96180  1.0000 -0.0317417587
C   C14       1.0  0.67204  0.96180  0.50778  1.0000 -0.0317417587
C   C15       1.0  0.96180  0.50778  0.67204  1.0000 -0.0317417587
C   C16       1.0  0.32796  0.49222  0.03820  1.0000 -0.0317417587
C   C17       1.0  0.03820  0.32796  0.49222  1.0000 -0.0317417587
C   C18       1.0  0.49222  0.03820  0.32796  1.0000 -0.0317417587
C   C19       1.0  0.49222  0.32796  0.03820  1.0000 -0.0317417587
C   C20       1.0  0.32796  0.03820  0.49222  1.0000 -0.0317417587
C   C21       1.0  0.03820  0.49222  0.32796  1.0000 -0.0317417587
C   C22       1.0  0.67204  0.50778  0.96180  1.0000 -0.0317417587
C   C23       1.0  0.96180  0.67204  0.50778  1.0000 -0.0317417587
C   C24       1.0  0.50778  0.96180  0.67204  1.0000 -0.0317417587
C   C25       1.0  0.46422  0.66182  0.89261  1.0000 -0.08994102
C   C26       1.0  0.66182  0.89261  0.46422  1.0000 -0.08994102
C   C27       1.0  0.89261  0.46422  0.66182  1.0000 -0.08994102
C   C28       1.0  0.33818  0.53578  0.10739  1.0000 -0.08994102
C   C29       1.0  0.10739  0.33818  0.53578  1.0000 -0.08994102
C   C30       1.0  0.53578  0.10739  0.33818  1.0000 -0.08994102
C   C31       1.0  0.53578  0.33818  0.10739  1.0000 -0.08994102
C   C32       1.0  0.33818  0.10739  0.53578  1.0000 -0.08994102
C   C33       1.0  0.10739  0.53578  0.33818  1.0000 -0.08994102
C   C34       1.0  0.66182  0.46422  0.89261  1.0000 -0.08994102
C   C35       1.0  0.89261  0.66182  0.46422  1.0000 -0.08994102
C   C36       1.0  0.46422  0.89261  0.66182  1.0000 -0.08994102
C   C37       1.0  0.54917  0.74065  0.01617  1.0000 -0.08994102
C   C38       1.0  0.74065  0.01617  0.54917  1.0000 -0.08994102
C   C39       1.0  0.01617  0.54917  0.74065  1.0000 -0.08994102
C   C40       1.0  0.25935  0.45083  0.98383  1.0000 -0.08994102
C   C41       1.0  0.98383  0.25935  0.45083  1.0000 -0.08994102
C   C42       1.0  0.45083  0.98383  0.25935  1.0000 -0.08994102
C   C43       1.0  0.45083  0.25935  0.98383  1.0000 -0.08994102
C   C44       1.0  0.25935  0.98383  0.45083  1.0000 -0.08994102
C   C45       1.0  0.98383  0.45083  0.25935  1.0000 -0.08994102
C   C46       1.0  0.74065  0.54917  0.01617  1.0000 -0.08994102
C   C47       1.0  0.01617  0.74065  0.54917  1.0000 -0.08994102
C   C48       1.0  0.54917  0.01617  0.74065  1.0000 -0.08994102
C   C49       1.0  0.46629  0.72110  0.88037  1.0000 -0.1469873505
C   C50       1.0  0.72110  0.88037  0.46629  1.0000 -0.1469873505
C   C51       1.0  0.88037  0.46629  0.72110  1.0000 -0.1469873505
C   C52       1.0  0.27890  0.53371  0.11963  1.0000 -0.1469873505
C   C53       1.0  0.11963  0.27890  0.53371  1.0000 -0.1469873505
C   C54       1.0  0.53371  0.11963  0.27890  1.0000 -0.1469873505
C   C55       1.0  0.53371  0.27890  0.11963  1.0000 -0.1469873505
C   C56       1.0  0.27890  0.11963  0.53371  1.0000 -0.1469873505
C   C57       1.0  0.11963  0.53371  0.27890  1.0000 -0.1469873505
C   C58       1.0  0.72110  0.46629  0.88037  1.0000 -0.1469873505
C   C59       1.0  0.88037  0.72110  0.46629  1.0000 -0.1469873505
C   C60       1.0  0.46629  0.88037  0.72110  1.0000 -0.1469873505
C   C61       1.0  0.55278  0.80100  0.00519  1.0000 -0.1612355018
C   C62       1.0  0.80100  0.00519  0.55278  1.0000 -0.1612355018
C   C63       1.0  0.00519  0.55278  0.80100  1.0000 -0.1612355018
C   C64       1.0  0.19900  0.44722  0.99481  1.0000 -0.1612355018
C   C65       1.0  0.99481  0.19900  0.44722  1.0000 -0.1612355018
C   C66       1.0  0.44722  0.99481  0.19900  1.0000 -0.1612355018
C   C67       1.0  0.44722  0.19900  0.99481  1.0000 -0.1612355018
C   C68       1.0  0.19900  0.99481  0.44722  1.0000 -0.1612355018
C   C69       1.0  0.99481  0.44722  0.19900  1.0000 -0.1612355018
C   C70       1.0  0.80100  0.55278  0.00519  1.0000 -0.1612355018
C   C71       1.0  0.00519  0.80100  0.55278  1.0000 -0.1612355018
C   C72       1.0  0.55278  0.00519  0.80100  1.0000 -0.1612355018
C   C73       1.0  0.50888  0.79094  0.93576  1.0000 0.0867609712
C   C74       1.0  0.79094  0.93576  0.50888  1.0000 0.0867609712
C   C75       1.0  0.93576  0.50888  0.79094  1.0000 0.0867609712
C   C76       1.0  0.20906  0.49112  0.06424  1.0000 0.0867609712
C   C77       1.0  0.06424  0.20906  0.49112  1.0000 0.0867609712
C   C78       1.0  0.49112  0.06424  0.20906  1.0000 0.0867609712
C   C79       1.0  0.49112  0.20906  0.06424  1.0000 0.0867609712
C   C80       1.0  0.20906  0.06424  0.49112  1.0000 0.0867609712
C   C81       1.0  0.06424  0.49112  0.20906  1.0000 0.0867609712
C   C82       1.0  0.79094  0.50888  0.93576  1.0000 0.0867609712
C   C83       1.0  0.93576  0.79094  0.50888  1.0000 0.0867609712
C   C84       1.0  0.50888  0.93576  0.79094  1.0000 0.0867609712
C   C85       1.0  0.50818  0.85625  0.92545  1.0000 -0.0235717211
C   C86       1.0  0.85625  0.92545  0.50818  1.0000 -0.0235717211
C   C87       1.0  0.92545  0.50818  0.85625  1.0000 -0.0235717211
C   C88       1.0  0.14375  0.49182  0.07455  1.0000 -0.0235717211
C   C89       1.0  0.07455  0.14375  0.49182  1.0000 -0.0235717211
C   C90       1.0  0.49182  0.07455  0.14375  1.0000 -0.0235717211
C   C91       1.0  0.49182  0.14375  0.07455  1.0000 -0.0235717211
C   C92       1.0  0.14375  0.07455  0.49182  1.0000 -0.0235717211
C   C93       1.0  0.07455  0.49182  0.14375  1.0000 -0.0235717211
C   C94       1.0  0.85625  0.50818  0.92545  1.0000 -0.0235717211
C   C95       1.0  0.92545  0.85625  0.50818  1.0000 -0.0235717211
C   C96       1.0  0.50818  0.92545  0.85625  1.0000 -0.0235717211
C   C97       1.0  0.50473  0.91064  0.97822  1.0000 -0.2023433598
C   C98       1.0  0.91064  0.97822  0.50473  1.0000 -0.2057870234
C   C99       1.0  0.97822  0.50473  0.91064  1.0000 -0.2023433598
C   C100      1.0  0.08936  0.49527  0.02178  1.0000 -0.2023433598
C   C101      1.0  0.02178  0.08936  0.49527  1.0000 -0.2023433598
C   C102      1.0  0.49527  0.02178  0.08936  1.0000 -0.2023433598
C   C103      1.0  0.49527  0.08936  0.02178  1.0000 -0.2023433598
C   C104      1.0  0.08936  0.02178  0.49527  1.0000 -0.2023433598
C   C105      1.0  0.02178  0.49527  0.08936  1.0000 -0.2057870234
C   C106      1.0  0.91064  0.50473  0.97822  1.0000 -0.2023433598
C   C107      1.0  0.97822  0.91064  0.50473  1.0000 -0.2057870234
C   C108      1.0  0.50473  0.97822  0.91064  1.0000 -0.2057870234
C   C109      1.0  0.51048  0.86501  0.86501  1.0000 0.1453643051
C   C110      1.0  0.86501  0.86501  0.51048  1.0000 0.1453643051
C   C111      1.0  0.86501  0.51048  0.86501  1.0000 0.1453643051
C   C112      1.0  0.13499  0.48952  0.13499  1.0000 0.1446110713
C   C113      1.0  0.13499  0.13499  0.48952  1.0000 0.1446110713
C   C114      1.0  0.48952  0.13499  0.13499  1.0000 0.1446110713
C   C115      1.0  0.50362  0.97314  0.97314  1.0000 0.071583021
C   C116      1.0  0.97314  0.97314  0.50362  1.0000 0.071583021
C   C117      1.0  0.97314  0.50362  0.97314  1.0000 0.071583021
C   C118      1.0  0.02686  0.49638  0.02686  1.0000 0.071583021
C   C119      1.0  0.02686  0.02686  0.49638  1.0000 0.071583021
C   C120      1.0  0.49638  0.02686  0.02686  1.0000 0.071583021
C   C121      1.0  0.58528  0.82326  0.82326  1.0000 -0.2170380321
C   C122      1.0  0.82326  0.82326  0.58528  1.0000 -0.2170380321
C   C123      1.0  0.82326  0.58528  0.82326  1.0000 -0.2170380321
C   C124      1.0  0.17674  0.41472  0.17674  1.0000 -0.2170380321
C   C125      1.0  0.17674  0.17674  0.41472  1.0000 -0.2170380321
C   C126      1.0  0.41472  0.17674  0.17674  1.0000 -0.2170380321
O   O1        1.0  0.46595  0.54493  0.92110  1.0000 -0.506280337
O   O2        1.0  0.54493  0.92110  0.46595  1.0000 -0.506280337
O   O3        1.0  0.92110  0.46595  0.54493  1.0000 -0.506280337
O   O4        1.0  0.45507  0.53405  0.07890  1.0000 -0.506280337
O   O5        1.0  0.07890  0.45507  0.53405  1.0000 -0.506280337
O   O6        1.0  0.53405  0.07890  0.45507  1.0000 -0.506280337
O   O7        1.0  0.53405  0.45507  0.07890  1.0000 -0.506280337
O   O8        1.0  0.45507  0.07890  0.53405  1.0000 -0.506280337
O   O9        1.0  0.07890  0.53405  0.45507  1.0000 -0.506280337
O   O10       1.0  0.54493  0.46595  0.92110  1.0000 -0.506280337
O   O11       1.0  0.92110  0.54493  0.46595  1.0000 -0.506280337
O   O12       1.0  0.46595  0.92110  0.54493  1.0000 -0.506280337
O   O13       1.0  0.37902  0.45757  0.96027  1.0000 -0.5202317379
O   O14       1.0  0.45757  0.96027  0.37902  1.0000 -0.5202317379
O   O15       1.0  0.96027  0.37902  0.45757  1.0000 -0.5202317379
O   O16       1.0  0.54243  0.62098  0.03973  1.0000 -0.5202317379
O   O17       1.0  0.03973  0.54243  0.62098  1.0000 -0.5202317379
O   O18       1.0  0.62098  0.03973  0.54243  1.0000 -0.5202317379
O   O19       1.0  0.62098  0.54243  0.03973  1.0000 -0.5202317379
O   O20       1.0  0.54243  0.03973  0.62098  1.0000 -0.5202317379
O   O21       1.0  0.03973  0.62098  0.54243  1.0000 -0.5202317379
O   O22       1.0  0.45757  0.37902  0.96027  1.0000 -0.5202317379
O   O23       1.0  0.96027  0.45757  0.37902  1.0000 -0.5202317379
O   O24       1.0  0.37902  0.96027  0.45757  1.0000 -0.5202317379
O   O25       1.0  0.51385  0.81147  0.81147  1.0000 -0.2023433598
O   O26       1.0  0.81147  0.81147  0.51385  1.0000 -0.1940532754
O   O27       1.0  0.81147  0.51385  0.81147  1.0000 -0.1940532754
O   O28       1.0  0.18853  0.48615  0.18853  1.0000 -0.1940532754
O   O29       1.0  0.18853  0.18853  0.48615  1.0000 -0.1940532754
O   O30       1.0  0.48615  0.18853  0.18853  1.0000 -0.2023433598
