# DDEC6 charges by PACMAN v1.1 (https://github.com/mtap-research/PACMAN-charge/)
data_2016[Ni][frl]3[ASR]1
_chemical_formula_sum              "Ni3 P4 H34 C34 N8 O14"
_cell_length_a       8.8545
_cell_length_b       10.672
_cell_length_c       15.389
_cell_angle_alpha    76.4
_cell_angle_beta     78.58
_cell_angle_gamma    79.92

_symmetry_space_group_name_H-M    "P 1"
_symmetry_Int_Tables_number       1

loop_
  _symmetry_equiv_pos_as_xyz
  'x, y, z'

loop_
  _atom_site_type_symbol
  _atom_site_label
  _atom_site_symmetry_multiplicity
  _atom_site_fract_x
  _atom_site_fract_y
  _atom_site_fract_z
  _atom_site_occupancy
  _atom_site_charge
Ni  Ni1       1.0  0.00000  0.50000  0.50000  1.0000 0.9520826863
Ni  Ni2       1.0  0.80774  0.92526  0.62692  1.0000 0.8405932115
Ni  Ni3       1.0  0.19226  0.07474  0.37308  1.0000 0.8405932115
P   P1        1.0  0.71541  0.72695  0.53786  1.0000 1.1890816616
P   P2        1.0  0.28459  0.27305  0.46214  1.0000 1.1890816616
P   P3        1.0  0.03409  0.81387  0.47125  1.0000 1.210571997
P   P4        1.0  0.96591  0.18613  0.52875  1.0000 1.210571997
H   H1        1.0  0.86920  0.94170  0.32330  1.0000 0.1302702943
H   H2        1.0  0.13080  0.05830  0.67670  1.0000 0.1302702943
H   H3        1.0  0.86400  0.79270  0.33580  1.0000 0.1115780723
H   H4        1.0  0.13600  0.20730  0.66420  1.0000 0.1115780723
H   H5        1.0  0.54920  0.04780  0.39480  1.0000 0.1302702943
H   H6        1.0  0.45080  0.95220  0.60520  1.0000 0.1302702943
H   H7        1.0  0.37700  0.86110  0.25640  1.0000 0.1193476768
H   H8        1.0  0.62300  0.13890  0.74360  1.0000 0.1193476768
H   H9        1.0  0.64740  0.76180  0.26290  1.0000 0.1193476768
H   H10       1.0  0.35260  0.23820  0.73710  1.0000 0.1193476768
H   H11       1.0  0.52770  0.76300  0.47620  1.0000 0.3782196568
H   H12       1.0  0.47230  0.23700  0.52380  1.0000 0.3782196568
H   H13       1.0  0.82850  0.02590  0.47270  1.0000 0.3377666103
H   H14       1.0  0.17150  0.97410  0.52730  1.0000 0.3377666103
H   H15       1.0  0.81110  0.44490  0.37230  1.0000 0.1302702943
H   H16       1.0  0.18890  0.55510  0.62770  1.0000 0.1302702943
H   H17       1.0  0.76900  0.51220  0.22620  1.0000 0.1379181968
H   H18       1.0  0.23100  0.48780  0.77380  1.0000 0.1379181968
H   H19       1.0  0.16220  0.66960  0.16540  1.0000 0.1302702943
H   H20       1.0  0.83780  0.33040  0.83460  1.0000 0.1302702943
H   H21       1.0  0.18570  0.61040  0.31600  1.0000 0.1302702943
H   H22       1.0  0.81430  0.38960  0.68400  1.0000 0.1302702943
H   H23       1.0  0.87920  0.58390  0.06450  1.0000 0.1302702943
H   H24       1.0  0.12080  0.41610  0.93550  1.0000 0.1302702943
H   H25       1.0  0.02100  0.78430  0.03940  1.0000 0.1302702943
H   H26       1.0  0.97900  0.21570  0.96060  1.0000 0.1302702943
H   H27       1.0  0.93910  0.95930  0.92060  1.0000 0.1302702943
H   H28       1.0  0.06090  0.04070  0.07940  1.0000 0.1302702943
H   H29       1.0  0.89380  0.02950  0.77800  1.0000 0.1115780723
H   H30       1.0  0.10620  0.97050  0.22200  1.0000 0.1115780723
H   H31       1.0  0.80930  0.68580  0.77450  1.0000 0.1193476768
H   H32       1.0  0.19070  0.31420  0.22550  1.0000 0.1193476768
H   H33       1.0  0.86350  0.61140  0.92110  1.0000 0.1193476768
H   H34       1.0  0.13650  0.38860  0.07890  1.0000 0.1193476768
C   C1        1.0  0.82430  0.85130  0.45600  1.0000 -0.2639263941
C   C2        1.0  0.17570  0.14870  0.54400  1.0000 -0.2639263941
C   C3        1.0  0.81260  0.87060  0.35700  1.0000 -0.1747110857
C   C4        1.0  0.18740  0.12940  0.64300  1.0000 -0.1747110857
C   C5        1.0  0.53940  0.98960  0.36040  1.0000 0.1302702943
C   C6        1.0  0.46060  0.01040  0.63960  1.0000 0.1302702943
C   C7        1.0  0.44580  0.88710  0.28500  1.0000 -0.0254569481
C   C8        1.0  0.55420  0.11290  0.71500  1.0000 -0.0254569481
C   C9        1.0  0.59550  0.83170  0.28820  1.0000 -0.1200546211
C   C10       1.0  0.40450  0.16830  0.71180  1.0000 -0.1200546211
C   C11       1.0  0.87960  0.49530  0.33070  1.0000 0.1193476768
C   C12       1.0  0.12040  0.50470  0.66930  1.0000 0.1193476768
C   C13       1.0  0.85640  0.53240  0.24220  1.0000 -0.2194959482
C   C14       1.0  0.14360  0.46760  0.75780  1.0000 -0.2194959482
C   C15       1.0  0.95730  0.59700  0.17880  1.0000 0.1379181968
C   C16       1.0  0.04270  0.40300  0.82120  1.0000 0.1379181968
C   C17       1.0  0.08710  0.62650  0.20720  1.0000 -0.2456840275
C   C18       1.0  0.91290  0.37350  0.79280  1.0000 -0.2456840275
C   C19       1.0  0.10050  0.59060  0.29740  1.0000 0.1115780723
C   C20       1.0  0.89950  0.40940  0.70260  1.0000 0.1115780723
C   C21       1.0  0.93050  0.64010  0.08240  1.0000 -0.1200546211
C   C22       1.0  0.06950  0.35990  0.91760  1.0000 -0.1200546211
C   C23       1.0  0.96140  0.73150  0.02420  1.0000 -0.1143717876
C   C24       1.0  0.03860  0.26850  0.97580  1.0000 -0.1143717876
C   C25       1.0  0.92300  0.77460  0.93510  1.0000 0.1379181968
C   C26       1.0  0.07700  0.22540  0.06490  1.0000 0.1379181968
C   C27       1.0  0.92040  0.89900  0.89050  1.0000 -0.2194959482
C   C28       1.0  0.07960  0.10100  0.10950  1.0000 -0.2194959482
C   C29       1.0  0.89240  0.94200  0.80490  1.0000 0.0466387535
C   C30       1.0  0.10760  0.05800  0.19510  1.0000 0.0443997273
C   C31       1.0  0.84410  0.74200  0.80180  1.0000 0.1302702943
C   C32       1.0  0.15590  0.25800  0.19820  1.0000 0.1379181968
C   C33       1.0  0.87570  0.69660  0.89170  1.0000 -0.2402991353
C   C34       1.0  0.12430  0.30340  0.10830  1.0000 -0.2402991353
N   N1        1.0  0.65370  0.89870  0.33560  1.0000 0.0466387535
N   N2        1.0  0.34630  0.10130  0.66440  1.0000 0.0466387535
N   N3        1.0  0.41200  0.98640  0.33020  1.0000 -0.2699553741
N   N4        1.0  0.58800  0.01360  0.66980  1.0000 -0.2699553741
N   N5        1.0  0.99590  0.52850  0.35920  1.0000 -0.2053054122
N   N6        1.0  0.00410  0.47150  0.64080  1.0000 -0.2053054122
N   N7        1.0  0.86170  0.85880  0.75620  1.0000 -0.188438244
N   N8        1.0  0.13830  0.14120  0.24380  1.0000 -0.188438244
O   O1        1.0  0.77220  0.59710  0.51540  1.0000 -0.7501348926
O   O2        1.0  0.22780  0.40290  0.48460  1.0000 -0.7501348926
O   O3        1.0  0.72690  0.75000  0.62940  1.0000 -0.7355699612
O   O4        1.0  0.27310  0.25000  0.37060  1.0000 -0.7355699612
O   O5        1.0  0.53750  0.76160  0.52830  1.0000 -0.5824615432
O   O6        1.0  0.46250  0.23840  0.47170  1.0000 -0.5824615432
O   O7        1.0  0.09100  0.67120  0.47360  1.0000 -0.7618374301
O   O8        1.0  0.90900  0.32880  0.52640  1.0000 -0.7618374301
O   O9        1.0  0.03270  0.85410  0.56080  1.0000 -0.7355699612
O   O10       1.0  0.96730  0.14590  0.43920  1.0000 -0.7355699612
O   O11       1.0  0.11720  0.90030  0.39110  1.0000 -0.7501348926
O   O12       1.0  0.88280  0.09970  0.60890  1.0000 -0.7501348926
O   O13       1.0  0.76540  0.97120  0.48800  1.0000 -0.4532283319
O   O14       1.0  0.23460  0.02880  0.51200  1.0000 -0.4532283319
