# DDEC6 charges by PACMAN v1.1 (https://github.com/mtap-research/PACMAN-charge/)
data_2016[Zn][ths]3[ASR]7
_chemical_formula_sum              "Zn12 H96 C144 I24 N48"
_cell_length_a       19.0335
_cell_length_b       19.0335
_cell_length_c       31.0655
_cell_angle_alpha    79.576
_cell_angle_beta     100.424
_cell_angle_gamma    134.849

_symmetry_space_group_name_H-M    "P 1"
_symmetry_Int_Tables_number       1

loop_
  _symmetry_equiv_pos_as_xyz
  'x, y, z'

loop_
  _atom_site_type_symbol
  _atom_site_label
  _atom_site_symmetry_multiplicity
  _atom_site_fract_x
  _atom_site_fract_y
  _atom_site_fract_z
  _atom_site_occupancy
  _atom_site_charge
Zn  Zn1       1.0  0.54807  0.71321  0.90257  1.0000 0.4606254066
Zn  Zn2       1.0  0.28679  0.45193  0.40257  1.0000 0.4606254066
Zn  Zn3       1.0  0.67821  0.01753  0.72906  1.0000 0.4398671615
Zn  Zn4       1.0  0.98247  0.32179  0.22906  1.0000 0.4398671615
Zn  Zn5       1.0  0.02514  0.77278  0.06437  1.0000 0.4606254066
Zn  Zn6       1.0  0.22722  0.97486  0.56437  1.0000 0.4606254066
Zn  Zn7       1.0  0.71321  0.54807  0.59743  1.0000 0.4606254066
Zn  Zn8       1.0  0.45193  0.28679  0.09743  1.0000 0.4606254066
Zn  Zn9       1.0  0.01753  0.67821  0.77094  1.0000 0.4398671615
Zn  Zn10      1.0  0.32179  0.98247  0.27094  1.0000 0.4398671615
Zn  Zn11      1.0  0.77278  0.02514  0.43563  1.0000 0.4606254066
Zn  Zn12      1.0  0.97486  0.22722  0.93563  1.0000 0.4606254066
H   H1        1.0  0.88860  0.15580  0.76050  1.0000 0.10143489
H   H2        1.0  0.84420  0.11140  0.26050  1.0000 0.10143489
H   H3        1.0  0.49420  0.81560  0.83820  1.0000 0.1084933554
H   H4        1.0  0.18440  0.50580  0.33820  1.0000 0.1084933554
H   H5        1.0  0.47090  0.50710  0.93430  1.0000 0.1084933554
H   H6        1.0  0.49290  0.52910  0.43430  1.0000 0.1084933554
H   H7        1.0  0.10080  0.95000  0.99740  1.0000 0.1084933554
H   H8        1.0  0.05000  0.89920  0.49740  1.0000 0.1084933554
H   H9        1.0  0.37700  0.77520  0.78140  1.0000 0.1311699592
H   H10       1.0  0.22480  0.62300  0.28140  1.0000 0.1311699592
H   H11       1.0  0.29030  0.51230  0.01090  1.0000 0.1375967975
H   H12       1.0  0.48770  0.70970  0.51090  1.0000 0.1375967975
H   H13       1.0  0.07980  0.42660  0.14310  1.0000 0.1084933554
H   H14       1.0  0.57340  0.92020  0.64310  1.0000 0.1084933554
H   H15       1.0  0.03440  0.32180  0.75770  1.0000 0.1375967975
H   H16       1.0  0.67820  0.96560  0.25770  1.0000 0.1375967975
H   H17       1.0  0.04010  0.89370  0.11890  1.0000 0.1084933554
H   H18       1.0  0.10630  0.95990  0.61890  1.0000 0.1084933554
H   H19       1.0  0.14650  0.09930  0.99350  1.0000 0.1375967975
H   H20       1.0  0.90070  0.85350  0.49350  1.0000 0.1375967975
H   H21       1.0  0.74960  0.21080  0.67770  1.0000 0.1084933554
H   H22       1.0  0.78920  0.25040  0.17770  1.0000 0.1084933554
H   H23       1.0  0.40970  0.64810  0.96600  1.0000 0.1084933554
H   H24       1.0  0.35190  0.59030  0.46600  1.0000 0.1084933554
H   H25       1.0  0.27770  0.82770  0.70230  1.0000 0.1228141862
H   H26       1.0  0.17230  0.72230  0.20230  1.0000 0.1228141862
H   H27       1.0  0.36480  0.53940  0.85910  1.0000 0.10143489
H   H28       1.0  0.46060  0.63520  0.35910  1.0000 0.10143489
H   H29       1.0  0.09160  0.75580  0.57230  1.0000 0.1084933554
H   H30       1.0  0.24420  0.90840  0.07230  1.0000 0.1084933554
H   H31       1.0  0.06000  0.62760  0.61740  1.0000 0.1311699592
H   H32       1.0  0.37240  0.94000  0.11740  1.0000 0.1311699592
H   H33       1.0  0.35390  0.36870  0.97760  1.0000 0.1375967975
H   H34       1.0  0.63130  0.64610  0.47760  1.0000 0.1375967975
H   H35       1.0  0.14190  0.41490  0.09050  1.0000 0.1311699592
H   H36       1.0  0.58510  0.85810  0.59050  1.0000 0.1311699592
H   H37       1.0  0.24170  0.49070  0.80500  1.0000 0.1311699592
H   H38       1.0  0.50930  0.75830  0.30500  1.0000 0.1311699592
H   H39       1.0  0.30040  0.94900  0.65580  1.0000 0.10143489
H   H40       1.0  0.05100  0.69960  0.15580  1.0000 0.10143489
H   H41       1.0  0.05420  0.16720  0.15770  1.0000 0.1375967975
H   H42       1.0  0.83280  0.94580  0.65770  1.0000 0.1375967975
H   H43       1.0  0.00170  0.19010  0.21010  1.0000 0.10143489
H   H44       1.0  0.80990  0.99830  0.71010  1.0000 0.10143489
H   H45       1.0  0.89110  0.37670  0.67130  1.0000 0.1375967975
H   H46       1.0  0.62330  0.10890  0.17130  1.0000 0.1375967975
H   H47       1.0  0.08210  0.04030  0.11780  1.0000 0.1375967975
H   H48       1.0  0.95970  0.91790  0.61780  1.0000 0.1375967975
H   H49       1.0  0.15580  0.88860  0.73950  1.0000 0.10143489
H   H50       1.0  0.11140  0.84420  0.23950  1.0000 0.10143489
H   H51       1.0  0.81560  0.49420  0.66180  1.0000 0.1084933554
H   H52       1.0  0.50580  0.18440  0.16180  1.0000 0.1084933554
H   H53       1.0  0.50710  0.47090  0.56570  1.0000 0.1084933554
H   H54       1.0  0.52910  0.49290  0.06570  1.0000 0.1084933554
H   H55       1.0  0.95000  0.10080  0.50260  1.0000 0.1084933554
H   H56       1.0  0.89920  0.05000  0.00260  1.0000 0.1084933554
H   H57       1.0  0.77520  0.37700  0.71860  1.0000 0.1311699592
H   H58       1.0  0.62300  0.22480  0.21860  1.0000 0.1311699592
H   H59       1.0  0.51230  0.29030  0.48910  1.0000 0.1375967975
H   H60       1.0  0.70970  0.48770  0.98910  1.0000 0.1375967975
H   H61       1.0  0.42660  0.07980  0.35690  1.0000 0.1084933554
H   H62       1.0  0.92020  0.57340  0.85690  1.0000 0.1084933554
H   H63       1.0  0.32180  0.03440  0.74230  1.0000 0.1375967975
H   H64       1.0  0.96560  0.67820  0.24230  1.0000 0.1375967975
H   H65       1.0  0.89370  0.04010  0.38110  1.0000 0.1084933554
H   H66       1.0  0.95990  0.10630  0.88110  1.0000 0.1084933554
H   H67       1.0  0.09930  0.14650  0.50650  1.0000 0.1375967975
H   H68       1.0  0.85350  0.90070  0.00650  1.0000 0.1375967975
H   H69       1.0  0.21080  0.74960  0.82230  1.0000 0.1084933554
H   H70       1.0  0.25040  0.78920  0.32230  1.0000 0.1084933554
H   H71       1.0  0.64810  0.40970  0.53400  1.0000 0.1084933554
H   H72       1.0  0.59030  0.35190  0.03400  1.0000 0.1084933554
H   H73       1.0  0.82770  0.27770  0.79770  1.0000 0.1228141862
H   H74       1.0  0.72230  0.17230  0.29770  1.0000 0.1228141862
H   H75       1.0  0.53940  0.36480  0.64090  1.0000 0.10143489
H   H76       1.0  0.63520  0.46060  0.14090  1.0000 0.10143489
H   H77       1.0  0.75580  0.09160  0.92770  1.0000 0.1084933554
H   H78       1.0  0.90840  0.24420  0.42770  1.0000 0.1084933554
H   H79       1.0  0.62760  0.06000  0.88260  1.0000 0.1311699592
H   H80       1.0  0.94000  0.37240  0.38260  1.0000 0.1311699592
H   H81       1.0  0.36870  0.35390  0.52240  1.0000 0.1375967975
H   H82       1.0  0.64610  0.63130  0.02240  1.0000 0.1375967975
H   H83       1.0  0.41490  0.14190  0.40950  1.0000 0.1311699592
H   H84       1.0  0.85810  0.58510  0.90950  1.0000 0.1311699592
H   H85       1.0  0.49070  0.24170  0.69500  1.0000 0.1311699592
H   H86       1.0  0.75830  0.50930  0.19500  1.0000 0.1311699592
H   H87       1.0  0.94900  0.30040  0.84420  1.0000 0.10143489
H   H88       1.0  0.69960  0.05100  0.34420  1.0000 0.10143489
H   H89       1.0  0.16720  0.05420  0.34230  1.0000 0.1375967975
H   H90       1.0  0.94580  0.83280  0.84230  1.0000 0.1375967975
H   H91       1.0  0.19010  0.00170  0.28990  1.0000 0.10143489
H   H92       1.0  0.99830  0.80990  0.78990  1.0000 0.10143489
H   H93       1.0  0.37670  0.89110  0.82870  1.0000 0.1375967975
H   H94       1.0  0.10890  0.62330  0.32870  1.0000 0.1375967975
H   H95       1.0  0.04030  0.08210  0.38220  1.0000 0.1375967975
H   H96       1.0  0.91790  0.95970  0.88220  1.0000 0.1375967975
C   C1        1.0  0.88920  0.20120  0.74280  1.0000 0.0793004604
C   C2        1.0  0.79880  0.11080  0.24280  1.0000 0.0793004604
C   C3        1.0  0.14320  0.17980  0.05410  1.0000 0.3727895531
C   C4        1.0  0.82020  0.85680  0.55410  1.0000 0.3727895531
C   C5        1.0  0.15560  0.63640  0.69470  1.0000 0.3727895531
C   C6        1.0  0.36360  0.84440  0.19470  1.0000 0.3727895531
C   C7        1.0  0.44310  0.74990  0.83110  1.0000 0.0875880259
C   C8        1.0  0.25010  0.55690  0.33110  1.0000 0.0875880259
C   C9        1.0  0.16810  0.71490  0.66490  1.0000 0.0589703618
C   C10       1.0  0.28510  0.83190  0.16490  1.0000 0.0589703618
C   C11       1.0  0.29560  0.62820  0.78710  1.0000 0.0589703618
C   C12       1.0  0.37180  0.70440  0.28710  1.0000 0.0589703618
C   C13       1.0  0.43400  0.50800  0.94980  1.0000 0.0694884112
C   C14       1.0  0.49200  0.56600  0.44980  1.0000 0.0694884112
C   C15       1.0  0.21650  0.59690  0.75160  1.0000 0.3727895531
C   C16       1.0  0.40310  0.78350  0.25160  1.0000 0.3727895531
C   C17       1.0  0.09690  0.96830  0.02200  1.0000 0.0875880259
C   C18       1.0  0.03170  0.90310  0.52200  1.0000 0.0875880259
C   C19       1.0  0.07020  0.47640  0.71600  1.0000 0.3559079173
C   C20       1.0  0.52360  0.92980  0.21600  1.0000 0.3559079173
C   C21       1.0  0.97860  0.36880  0.71490  1.0000 0.0694884112
C   C22       1.0  0.63120  0.02140  0.21490  1.0000 0.0694884112
C   C23       1.0  0.37260  0.72600  0.79720  1.0000 -0.1492064248
C   C24       1.0  0.27400  0.62740  0.29720  1.0000 -0.1492064248
C   C25       1.0  0.11510  0.08430  0.05470  1.0000 0.0589703618
C   C26       1.0  0.91570  0.88490  0.55470  1.0000 0.0589703618
C   C27       1.0  0.32650  0.51010  0.99570  1.0000 -0.1391805572
C   C28       1.0  0.48990  0.67350  0.49570  1.0000 -0.1391805572
C   C29       1.0  0.07570  0.37430  0.14610  1.0000 0.0793004604
C   C30       1.0  0.62570  0.92430  0.64610  1.0000 0.0793004604
C   C31       1.0  0.97730  0.30090  0.74130  1.0000 -0.1492064248
C   C32       1.0  0.69910  0.02270  0.24130  1.0000 -0.1492064248
C   C33       1.0  0.06100  0.93520  0.09320  1.0000 0.0875880259
C   C34       1.0  0.06480  0.93900  0.59320  1.0000 0.0875880259
C   C35       1.0  0.23500  0.33920  0.02870  1.0000 0.3727895531
C   C36       1.0  0.66080  0.76500  0.52870  1.0000 0.3727895531
C   C37       1.0  0.12330  0.05770  0.01920  1.0000 -0.1492064248
C   C38       1.0  0.94230  0.87670  0.51920  1.0000 -0.1492064248
C   C39       1.0  0.13890  0.27530  0.08480  1.0000 0.3727895531
C   C40       1.0  0.72470  0.86110  0.58480  1.0000 0.3727895531
C   C41       1.0  0.80760  0.23360  0.69390  1.0000 0.0793004604
C   C42       1.0  0.76640  0.19240  0.19390  1.0000 0.0793004604
C   C43       1.0  0.39800  0.59120  0.96850  1.0000 0.0793004604
C   C44       1.0  0.40880  0.60200  0.46850  1.0000 0.0793004604
C   C45       1.0  0.23900  0.81140  0.67590  1.0000 -0.1492064248
C   C46       1.0  0.18860  0.76100  0.17590  1.0000 -0.1391805572
C   C47       1.0  0.36630  0.58690  0.84350  1.0000 0.0875880259
C   C48       1.0  0.41310  0.63370  0.34350  1.0000 0.0875880259
C   C49       1.0  0.31010  0.42570  0.99960  1.0000 0.0589703618
C   C50       1.0  0.57430  0.68990  0.49960  1.0000 0.0589703618
C   C51       1.0  0.12960  0.77000  0.59880  1.0000 0.0875880259
C   C52       1.0  0.23000  0.87040  0.09880  1.0000 0.0875880259
C   C53       1.0  0.11020  0.69260  0.62550  1.0000 -0.1391805572
C   C54       1.0  0.30740  0.88980  0.12550  1.0000 -0.1391805572
C   C55       1.0  0.10310  0.28770  0.11810  1.0000 0.0589703618
C   C56       1.0  0.71230  0.89690  0.61810  1.0000 0.0694884112
C   C57       1.0  0.36430  0.42470  0.97590  1.0000 -0.1492064248
C   C58       1.0  0.57530  0.63570  0.47590  1.0000 -0.1492064248
C   C59       1.0  0.11210  0.36730  0.11410  1.0000 -0.1332409379
C   C60       1.0  0.63270  0.88790  0.61410  1.0000 -0.1332409379
C   C61       1.0  0.29260  0.55720  0.81090  1.0000 -0.1391805572
C   C62       1.0  0.44280  0.70740  0.31090  1.0000 -0.1492064248
C   C63       1.0  0.25280  0.88400  0.64770  1.0000 0.0793004604
C   C64       1.0  0.11600  0.74720  0.14770  1.0000 0.0793004604
C   C65       1.0  0.06090  0.22130  0.15420  1.0000 -0.1391805572
C   C66       1.0  0.77870  0.93910  0.65420  1.0000 -0.1391805572
C   C67       1.0  0.02870  0.23470  0.18540  1.0000 0.0793004604
C   C68       1.0  0.76530  0.97130  0.68540  1.0000 0.0793004604
C   C69       1.0  0.89200  0.33340  0.69020  1.0000 -0.1607551349
C   C70       1.0  0.66667  0.10800  0.19020  1.0000 -0.1607551349
C   C71       1.0  0.08550  0.02290  0.09270  1.0000 -0.1391805572
C   C72       1.0  0.97710  0.91450  0.59270  1.0000 -0.1391805572
C   C73       1.0  0.20120  0.88920  0.75720  1.0000 0.0793004604
C   C74       1.0  0.11080  0.79880  0.25720  1.0000 0.0793004604
C   C75       1.0  0.17980  0.14320  0.44590  1.0000 0.3727895531
C   C76       1.0  0.85680  0.82020  0.94590  1.0000 0.3727895531
C   C77       1.0  0.63640  0.15560  0.80530  1.0000 0.3727895531
C   C78       1.0  0.84440  0.36360  0.30530  1.0000 0.3727895531
C   C79       1.0  0.74990  0.44310  0.66890  1.0000 0.0875880259
C   C80       1.0  0.55690  0.25010  0.16890  1.0000 0.0875880259
C   C81       1.0  0.71490  0.16810  0.83510  1.0000 0.0589703618
C   C82       1.0  0.83190  0.28510  0.33510  1.0000 0.0589703618
C   C83       1.0  0.62820  0.29560  0.71290  1.0000 0.0589703618
C   C84       1.0  0.70440  0.37180  0.21290  1.0000 0.0589703618
C   C85       1.0  0.50800  0.43400  0.55020  1.0000 0.0694884112
C   C86       1.0  0.56600  0.49200  0.05020  1.0000 0.0694884112
C   C87       1.0  0.59690  0.21650  0.74840  1.0000 0.3727895531
C   C88       1.0  0.78350  0.40310  0.24840  1.0000 0.3727895531
C   C89       1.0  0.96830  0.09690  0.47800  1.0000 0.0875880259
C   C90       1.0  0.90310  0.03170  0.97800  1.0000 0.0875880259
C   C91       1.0  0.47640  0.07020  0.78400  1.0000 0.3559079173
C   C92       1.0  0.92980  0.52360  0.28400  1.0000 0.3559079173
C   C93       1.0  0.36880  0.97860  0.78510  1.0000 0.0694884112
C   C94       1.0  0.02140  0.63120  0.28510  1.0000 0.0694884112
C   C95       1.0  0.72600  0.37260  0.70280  1.0000 -0.1492064248
C   C96       1.0  0.62740  0.27400  0.20280  1.0000 -0.1492064248
C   C97       1.0  0.08430  0.11510  0.44530  1.0000 0.0589703618
C   C98       1.0  0.88490  0.91570  0.94530  1.0000 0.0589703618
C   C99       1.0  0.51010  0.32650  0.50430  1.0000 -0.1391805572
C   C100      1.0  0.67350  0.48990  0.00430  1.0000 -0.1332409379
C   C101      1.0  0.37430  0.07570  0.35390  1.0000 0.0793004604
C   C102      1.0  0.92430  0.62570  0.85390  1.0000 0.0793004604
C   C103      1.0  0.30090  0.97730  0.75870  1.0000 -0.1492064248
C   C104      1.0  0.02270  0.69910  0.25870  1.0000 -0.1492064248
C   C105      1.0  0.93520  0.06100  0.40680  1.0000 0.0875880259
C   C106      1.0  0.93900  0.06480  0.90680  1.0000 0.0875880259
C   C107      1.0  0.33920  0.23500  0.47130  1.0000 0.3727895531
C   C108      1.0  0.76500  0.66080  0.97130  1.0000 0.3727895531
C   C109      1.0  0.05770  0.12330  0.48080  1.0000 -0.1492064248
C   C110      1.0  0.87670  0.94230  0.98080  1.0000 -0.1492064248
C   C111      1.0  0.27530  0.13890  0.41520  1.0000 0.3727895531
C   C112      1.0  0.86110  0.72470  0.91520  1.0000 0.3727895531
C   C113      1.0  0.23360  0.80760  0.80610  1.0000 0.0793004604
C   C114      1.0  0.19240  0.76640  0.30610  1.0000 0.0793004604
C   C115      1.0  0.59120  0.39800  0.53150  1.0000 0.0793004604
C   C116      1.0  0.60200  0.40880  0.03150  1.0000 0.0793004604
C   C117      1.0  0.81140  0.23900  0.82410  1.0000 -0.1391805572
C   C118      1.0  0.76100  0.18860  0.32410  1.0000 -0.1391805572
C   C119      1.0  0.58690  0.36630  0.65650  1.0000 0.0875880259
C   C120      1.0  0.63370  0.41310  0.15650  1.0000 0.0875880259
C   C121      1.0  0.42570  0.31010  0.50040  1.0000 0.0589703618
C   C122      1.0  0.68990  0.57430  0.00040  1.0000 0.0589703618
C   C123      1.0  0.77000  0.12960  0.90120  1.0000 0.0875880259
C   C124      1.0  0.87040  0.23000  0.40120  1.0000 0.0875880259
C   C125      1.0  0.69260  0.11020  0.87450  1.0000 -0.1391805572
C   C126      1.0  0.88980  0.30740  0.37450  1.0000 -0.1391805572
C   C127      1.0  0.28770  0.10310  0.38190  1.0000 0.0694884112
C   C128      1.0  0.89690  0.71230  0.88190  1.0000 0.0694884112
C   C129      1.0  0.42470  0.36430  0.52410  1.0000 -0.1492064248
C   C130      1.0  0.63570  0.57530  0.02410  1.0000 -0.1492064248
C   C131      1.0  0.36730  0.11210  0.38590  1.0000 -0.1332409379
C   C132      1.0  0.88790  0.63270  0.88590  1.0000 -0.1332409379
C   C133      1.0  0.55720  0.29260  0.68910  1.0000 -0.1492064248
C   C134      1.0  0.70740  0.44280  0.18910  1.0000 -0.1391805572
C   C135      1.0  0.88400  0.25280  0.85230  1.0000 0.0793004604
C   C136      1.0  0.74720  0.11600  0.35230  1.0000 0.0793004604
C   C137      1.0  0.22130  0.06090  0.34580  1.0000 -0.1391805572
C   C138      1.0  0.93910  0.77870  0.84580  1.0000 -0.1391805572
C   C139      1.0  0.23470  0.02870  0.31460  1.0000 0.0793004604
C   C140      1.0  0.97130  0.76530  0.81460  1.0000 0.0793004604
C   C141      1.0  0.33340  0.89200  0.80980  1.0000 -0.1607551349
C   C142      1.0  0.10800  0.66667  0.30980  1.0000 -0.1607551349
C   C143      1.0  0.02290  0.08550  0.40730  1.0000 -0.1391805572
C   C144      1.0  0.91450  0.97710  0.90730  1.0000 -0.1391805572
I   I1        1.0  0.52251  0.98505  0.70922  1.0000 -0.4308146335
I   I2        1.0  0.01495  0.47749  0.20922  1.0000 -0.4308146335
I   I3        1.0  0.62279  0.86231  0.94071  1.0000 -0.441658925
I   I4        1.0  0.13769  0.37721  0.44071  1.0000 -0.441658925
I   I5        1.0  0.71164  0.96072  0.80399  1.0000 -0.4308146335
I   I6        1.0  0.03928  0.28836  0.30399  1.0000 -0.4308146335
I   I7        1.0  0.63978  0.68806  0.86847  1.0000 -0.4308146335
I   I8        1.0  0.31194  0.36022  0.36847  1.0000 -0.4308146335
I   I9        1.0  0.04767  0.74801  0.99265  1.0000 -0.441658925
I   I10       1.0  0.25199  0.95233  0.49265  1.0000 -0.441658925
I   I11       1.0  0.86629  0.65031  0.10394  1.0000 -0.455917686
I   I12       1.0  0.34969  0.13371  0.60394  1.0000 -0.455917686
I   I13       1.0  0.98505  0.52251  0.79078  1.0000 -0.4308146335
I   I14       1.0  0.47749  0.01495  0.29078  1.0000 -0.4308146335
I   I15       1.0  0.86231  0.62279  0.55929  1.0000 -0.441658925
I   I16       1.0  0.37721  0.13769  0.05929  1.0000 -0.441658925
I   I17       1.0  0.96072  0.71164  0.69601  1.0000 -0.4308146335
I   I18       1.0  0.28836  0.03928  0.19601  1.0000 -0.4308146335
I   I19       1.0  0.68806  0.63978  0.63153  1.0000 -0.4308146335
I   I20       1.0  0.36022  0.31194  0.13153  1.0000 -0.4308146335
I   I21       1.0  0.74801  0.04767  0.50735  1.0000 -0.441658925
I   I22       1.0  0.95233  0.25199  0.00735  1.0000 -0.441658925
I   I23       1.0  0.65031  0.86629  0.39606  1.0000 -0.455917686
I   I24       1.0  0.13371  0.34969  0.89606  1.0000 -0.455917686
N   N1        1.0  0.03518  0.30982  0.18090  1.0000 -0.1868671474
N   N2        1.0  0.69018  0.96482  0.68090  1.0000 -0.1868671474
N   N3        1.0  0.80490  0.16770  0.71990  1.0000 -0.180774355
N   N4        1.0  0.83230  0.19510  0.21990  1.0000 -0.180774355
N   N5        1.0  0.22740  0.66880  0.72660  1.0000 -0.3829494936
N   N6        1.0  0.33120  0.77260  0.22660  1.0000 -0.3829494936
N   N7        1.0  0.45134  0.59046  0.94560  1.0000 -0.196896374
N   N8        1.0  0.40954  0.54866  0.44560  1.0000 -0.196896374
N   N9        1.0  0.43974  0.68106  0.85380  1.0000 -0.1737422345
N   N10       1.0  0.31894  0.56026  0.35380  1.0000 -0.1737422345
N   N11       1.0  0.07485  0.54135  0.68740  1.0000 -0.3908907002
N   N12       1.0  0.45865  0.92515  0.18740  1.0000 -0.3908907002
N   N13       1.0  0.06599  0.90741  0.05820  1.0000 -0.1868671474
N   N14       1.0  0.09259  0.93401  0.55820  1.0000 -0.1868671474
N   N15       1.0  0.14112  0.50068  0.74730  1.0000 -0.3908907002
N   N16       1.0  0.49932  0.85888  0.24730  1.0000 -0.3908907002
N   N17       1.0  0.20003  0.86457  0.60900  1.0000 -0.180774355
N   N18       1.0  0.13543  0.79997  0.10900  1.0000 -0.180774355
N   N19       1.0  0.10625  0.18575  0.08450  1.0000 -0.4001227466
N   N20       1.0  0.81425  0.89375  0.58450  1.0000 -0.4001227466
N   N21       1.0  0.20369  0.35411  0.05810  1.0000 -0.3908907002
N   N22       1.0  0.64589  0.79631  0.55810  1.0000 -0.3908907002
N   N23       1.0  0.20494  0.25226  0.02450  1.0000 -0.3908907002
N   N24       1.0  0.74774  0.79506  0.52450  1.0000 -0.3908907002
N   N25       1.0  0.30982  0.03518  0.31910  1.0000 -0.1868671474
N   N26       1.0  0.96482  0.69018  0.81910  1.0000 -0.1868671474
N   N27       1.0  0.16770  0.80490  0.78010  1.0000 -0.180774355
N   N28       1.0  0.19510  0.83230  0.28010  1.0000 -0.180774355
N   N29       1.0  0.66880  0.22740  0.77340  1.0000 -0.3829494936
N   N30       1.0  0.77260  0.33120  0.27340  1.0000 -0.3829494936
N   N31       1.0  0.59046  0.45134  0.55440  1.0000 -0.196896374
N   N32       1.0  0.54866  0.40954  0.05440  1.0000 -0.196896374
N   N33       1.0  0.68106  0.43974  0.64620  1.0000 -0.1737422345
N   N34       1.0  0.56026  0.31894  0.14620  1.0000 -0.1737422345
N   N35       1.0  0.54135  0.07485  0.81260  1.0000 -0.3908907002
N   N36       1.0  0.92515  0.45865  0.31260  1.0000 -0.3908907002
N   N37       1.0  0.90741  0.06599  0.44180  1.0000 -0.1868671474
N   N38       1.0  0.93401  0.09259  0.94180  1.0000 -0.1868671474
N   N39       1.0  0.50068  0.14112  0.75270  1.0000 -0.3908907002
N   N40       1.0  0.85888  0.49932  0.25270  1.0000 -0.3908907002
N   N41       1.0  0.86457  0.20003  0.89100  1.0000 -0.180774355
N   N42       1.0  0.79997  0.13543  0.39100  1.0000 -0.180774355
N   N43       1.0  0.18575  0.10625  0.41550  1.0000 -0.4001227466
N   N44       1.0  0.89375  0.81425  0.91550  1.0000 -0.4001227466
N   N45       1.0  0.35411  0.20369  0.44190  1.0000 -0.4001227466
N   N46       1.0  0.79631  0.64589  0.94190  1.0000 -0.4001227466
N   N47       1.0  0.25226  0.20494  0.47550  1.0000 -0.3908907002
N   N48       1.0  0.79506  0.74774  0.97550  1.0000 -0.3908907002
