# DDEC6 charges by PACMAN v1.1 (https://github.com/mtap-research/PACMAN-charge/)
data_2016[Zn][pcu]3[ASR]12
_chemical_formula_sum              "Zn4 B20 H52 C44 N4 O14"
_cell_length_a       12.0317
_cell_length_b       13.8465
_cell_length_c       15.5341
_cell_angle_alpha    110.362
_cell_angle_beta     109.511
_cell_angle_gamma    92.299

_symmetry_space_group_name_H-M    "P 1"
_symmetry_Int_Tables_number       1

loop_
  _symmetry_equiv_pos_as_xyz
  'x, y, z'

loop_
  _atom_site_type_symbol
  _atom_site_label
  _atom_site_symmetry_multiplicity
  _atom_site_fract_x
  _atom_site_fract_y
  _atom_site_fract_z
  _atom_site_occupancy
  _atom_site_charge
Zn  Zn1       1.0  0.52586  0.30812  0.35129  1.0000 0.8992450611
Zn  Zn2       1.0  0.47414  0.69188  0.64871  1.0000 0.8992450611
Zn  Zn3       1.0  0.43872  0.56061  0.42985  1.0000 0.9573509173
Zn  Zn4       1.0  0.56128  0.43939  0.57015  1.0000 0.9573509173
B   B1        1.0  0.23560  0.63800  0.92260  1.0000 -0.1715899869
B   B2        1.0  0.76440  0.36200  0.07740  1.0000 -0.1778969987
B   B3        1.0  0.27430  0.75870  0.92580  1.0000 -0.2175234704
B   B4        1.0  0.72570  0.24130  0.07420  1.0000 -0.2175234704
B   B5        1.0  0.36100  0.84410  0.04020  1.0000 -0.1897190783
B   B6        1.0  0.63900  0.15590  0.95980  1.0000 -0.1897190783
B   B7        1.0  0.38150  0.77660  0.12140  1.0000 -0.1415526269
B   B8        1.0  0.61850  0.22340  0.87860  1.0000 -0.1415526269
B   B9        1.0  0.15350  0.64210  0.99140  1.0000 -0.2084593796
B   B10       1.0  0.84650  0.35790  0.00860  1.0000 -0.2084593796
B   B11       1.0  0.12770  0.71600  0.91600  1.0000 -0.2084593796
B   B12       1.0  0.87230  0.28400  0.08400  1.0000 -0.2084593796
B   B13       1.0  0.20470  0.83850  0.98260  1.0000 -0.2084593796
B   B14       1.0  0.79530  0.16150  0.01740  1.0000 -0.2084593796
B   B15       1.0  0.26790  0.85760  0.11190  1.0000 -0.1715899869
B   B16       1.0  0.73210  0.14240  0.88810  1.0000 -0.1715899869
B   B17       1.0  0.23930  0.72870  0.11610  1.0000 -0.1715899869
B   B18       1.0  0.76070  0.27130  0.88390  1.0000 -0.1715899869
B   B19       1.0  0.12670  0.76870  0.02880  1.0000 -0.1897190783
B   B20       1.0  0.87330  0.23130  0.97120  1.0000 -0.1778969987
H   H1        1.0  0.22370  0.56550  0.85660  1.0000 -0.0185957577
H   H2        1.0  0.77630  0.43450  0.14340  1.0000 -0.0185957577
H   H3        1.0  0.29180  0.76770  0.86240  1.0000 -0.0185957577
H   H4        1.0  0.70820  0.23230  0.13760  1.0000 -0.0185957577
H   H5        1.0  0.43150  0.90920  0.05470  1.0000 -0.0118979687
H   H6        1.0  0.56850  0.09080  0.94530  1.0000 -0.0118979687
H   H7        1.0  0.46450  0.79730  0.18930  1.0000 -0.0386776679
H   H8        1.0  0.53550  0.20270  0.81070  1.0000 -0.0386776679
H   H9        1.0  0.08850  0.57200  0.97530  1.0000 0.0083622934
H   H10       1.0  0.91150  0.42800  0.02470  1.0000 0.0083622934
H   H11       1.0  0.04330  0.69880  0.85010  1.0000 -0.0336468368
H   H12       1.0  0.95670  0.30120  0.14990  1.0000 -0.0386776679
H   H13       1.0  0.17140  0.90300  0.95870  1.0000 -0.0386776679
H   H14       1.0  0.82860  0.09700  0.04130  1.0000 -0.0386776679
H   H15       1.0  0.27330  0.93260  0.17330  1.0000 -0.0386776679
H   H16       1.0  0.72670  0.06740  0.82670  1.0000 -0.0386776679
H   H17       1.0  0.22960  0.71840  0.18170  1.0000 -0.0386776679
H   H18       1.0  0.77040  0.28160  0.81830  1.0000 -0.0386776679
H   H19       1.0  0.04050  0.78580  0.03860  1.0000 -0.0473666748
H   H20       1.0  0.95950  0.21420  0.96140  1.0000 -0.0473666748
H   H21       1.0  0.47090  0.60550  0.95500  1.0000 0.1062971429
H   H22       1.0  0.52910  0.39450  0.04500  1.0000 0.1062971429
H   H23       1.0  0.64410  0.71990  0.09320  1.0000 0.3532041983
H   H24       1.0  0.35590  0.28010  0.90680  1.0000 0.3532041983
H   H25       1.0  0.66570  0.84610  0.06600  1.0000 0.1865221636
H   H26       1.0  0.33430  0.15390  0.93400  1.0000 0.1865221636
H   H27       1.0  0.72210  0.94290  0.98970  1.0000 0.2261335478
H   H28       1.0  0.27790  0.05710  0.01030  1.0000 0.2261335478
H   H29       1.0  0.65070  0.87340  0.81560  1.0000 0.1707596761
H   H30       1.0  0.34930  0.12660  0.18440  1.0000 0.1707596761
H   H31       1.0  0.44640  0.63910  0.80630  1.0000 0.1707596761
H   H32       1.0  0.55360  0.36090  0.19370  1.0000 0.1707596761
H   H33       1.0  0.43590  0.57430  0.08830  1.0000 0.1170234048
H   H34       1.0  0.56410  0.42570  0.91170  1.0000 0.1170234048
H   H35       1.0  0.37250  0.43860  0.96290  1.0000 0.3669544832
H   H36       1.0  0.62750  0.56140  0.03710  1.0000 0.3669544832
H   H37       1.0  0.17530  0.40070  0.00900  1.0000 0.2462326662
H   H38       1.0  0.82470  0.59930  0.99100  1.0000 0.2462326662
H   H39       1.0  0.11700  0.33250  0.10630  1.0000 0.198565066
H   H40       1.0  0.88300  0.66750  0.89370  1.0000 0.198565066
H   H41       1.0  0.22060  0.40650  0.27680  1.0000 0.1498528348
H   H42       1.0  0.77940  0.59350  0.72320  1.0000 0.1498528348
H   H43       1.0  0.42460  0.61270  0.25100  1.0000 0.1610310302
H   H44       1.0  0.57540  0.38730  0.74900  1.0000 0.1610310302
H   H45       1.0  0.12980  0.62190  0.65690  1.0000 0.1774571018
H   H46       1.0  0.87020  0.37810  0.34310  1.0000 0.1774571018
H   H47       1.0  0.06910  0.44410  0.36940  1.0000 0.1498528348
H   H48       1.0  0.93090  0.55590  0.63060  1.0000 0.1498528348
H   H49       1.0  0.55410  0.15980  0.63380  1.0000 0.1707596761
H   H50       1.0  0.44590  0.84020  0.36620  1.0000 0.1707596761
H   H51       1.0  0.53430  0.00410  0.65800  1.0000 0.1707596761
H   H52       1.0  0.46570  0.99590  0.34200  1.0000 0.1707596761
C   C1        1.0  0.37150  0.71630  0.00520  1.0000 0.0083622934
C   C2        1.0  0.62850  0.28370  0.99480  1.0000 0.0083622934
C   C3        1.0  0.30120  0.65350  0.04320  1.0000 0.0083622934
C   C4        1.0  0.69880  0.34650  0.95680  1.0000 0.0083622934
C   C5        1.0  0.48890  0.68220  0.99620  1.0000 0.1498528348
C   C6        1.0  0.51110  0.31780  0.00380  1.0000 0.1498528348
C   C7        1.0  0.53910  0.73830  0.94550  1.0000 0.0347255935
C   C8        1.0  0.46090  0.26170  0.05450  1.0000 0.0356876572
C   C9        1.0  0.62900  0.82410  0.99620  1.0000 -0.0473666748
C   C10       1.0  0.37100  0.17590  0.00380  1.0000 -0.0386776679
C   C11       1.0  0.66750  0.87850  0.95210  1.0000 -0.0617553181
C   C12       1.0  0.33250  0.12150  0.04790  1.0000 -0.0617553181
C   C13       1.0  0.62470  0.83720  0.84930  1.0000 0.0805591998
C   C14       1.0  0.37530  0.16280  0.15070  1.0000 0.0805591998
C   C15       1.0  0.50450  0.70130  0.84490  1.0000 0.0569376351
C   C16       1.0  0.49550  0.29870  0.15510  1.0000 0.0569376351
C   C17       1.0  0.34670  0.55530  0.05580  1.0000 0.1431614087
C   C18       1.0  0.65330  0.44470  0.94420  1.0000 0.1431614087
C   C19       1.0  0.30440  0.51350  0.11810  1.0000 0.0496307985
C   C20       1.0  0.69560  0.48650  0.88190  1.0000 0.0496307985
C   C21       1.0  0.21550  0.43120  0.07880  1.0000 -0.0118979687
C   C22       1.0  0.78450  0.56880  0.92120  1.0000 -0.0118979687
C   C23       1.0  0.18120  0.39000  0.13520  1.0000 -0.0757466218
C   C24       1.0  0.81880  0.61000  0.86480  1.0000 -0.0757466218
C   C25       1.0  0.24300  0.43490  0.23620  1.0000 0.1170234048
C   C26       1.0  0.75700  0.56510  0.76380  1.0000 0.1170234048
C   C27       1.0  0.36140  0.55430  0.22100  1.0000 0.0805591998
C   C28       1.0  0.63860  0.44570  0.77900  1.0000 0.0805591998
C   C29       1.0  0.24230  0.57600  0.52920  1.0000 0.5746157543
C   C30       1.0  0.75770  0.42400  0.47080  1.0000 0.5746157543
C   C31       1.0  0.11640  0.53760  0.51500  1.0000 -0.0118979687
C   C32       1.0  0.88360  0.46240  0.48500  1.0000 -0.0118979687
C   C33       1.0  0.07790  0.57290  0.59400  1.0000 -0.0473666748
C   C34       1.0  0.92210  0.42710  0.40600  1.0000 -0.0386776679
C   C35       1.0  0.04080  0.46640  0.42220  1.0000 -0.0473666748
C   C36       1.0  0.95920  0.53360  0.57780  1.0000 -0.0473666748
C   C37       1.0  0.52540  0.19320  0.46990  1.0000 0.5956311004
C   C38       1.0  0.47460  0.80680  0.53010  1.0000 0.5956311004
C   C39       1.0  0.51330  0.09390  0.48670  1.0000 -0.0118979687
C   C40       1.0  0.48670  0.90610  0.51330  1.0000 -0.0118979687
C   C41       1.0  0.53230  0.09480  0.57890  1.0000 -0.0617553181
C   C42       1.0  0.46770  0.90520  0.42110  1.0000 -0.0617553181
C   C43       1.0  0.52000  0.00220  0.59340  1.0000 -0.0386776679
C   C44       1.0  0.48000  0.99780  0.40660  1.0000 -0.0386776679
N   N1        1.0  0.54810  0.74810  0.79840  1.0000 -0.2586968465
N   N2        1.0  0.45190  0.25190  0.20160  1.0000 -0.2586968465
N   N3        1.0  0.33190  0.51570  0.27900  1.0000 -0.2586968465
N   N4        1.0  0.66810  0.48430  0.72100  1.0000 -0.2586968465
O   O1        1.0  0.30640  0.64260  0.61790  1.0000 -0.4963446184
O   O2        1.0  0.69360  0.35740  0.38210  1.0000 -0.4903089328
O   O3        1.0  0.44840  0.40700  0.42280  1.0000 -0.8380660041
O   O4        1.0  0.55160  0.59300  0.57720  1.0000 -0.8380660041
O   O5        1.0  0.57620  0.69860  0.09040  1.0000 -0.5128393395
O   O6        1.0  0.42380  0.30140  0.90960  1.0000 -0.5128393395
O   O7        1.0  0.32100  0.47780  0.95970  1.0000 -0.4963446184
O   O8        1.0  0.67900  0.52220  0.04030  1.0000 -0.4903089328
O   O9        1.0  0.27640  0.54670  0.46010  1.0000 -0.4564322455
O   O10       1.0  0.72360  0.45330  0.53990  1.0000 -0.4564322455
O   O11       1.0  0.51550  0.18450  0.38460  1.0000 -0.4903089328
O   O12       1.0  0.48450  0.81550  0.61540  1.0000 -0.4903089328
O   O13       1.0  0.55070  0.27830  0.54340  1.0000 -0.5150584801
O   O14       1.0  0.44930  0.72170  0.45660  1.0000 -0.5150584801
