# DDEC6 charges by PACMAN v1.1 (https://github.com/mtap-research/PACMAN-charge/)
data_2016[Dy][nan]3[ASR]4
_chemical_formula_sum              "Dy12 H84 C180 O72"
_cell_length_a       33.0223
_cell_length_b       33.0223
_cell_length_c       33.0223
_cell_angle_alpha    155.249
_cell_angle_beta     155.249
_cell_angle_gamma    35.2866

_symmetry_space_group_name_H-M    "P 1"
_symmetry_Int_Tables_number       1

loop_
  _symmetry_equiv_pos_as_xyz
  'x, y, z'

loop_
  _atom_site_type_symbol
  _atom_site_label
  _atom_site_symmetry_multiplicity
  _atom_site_fract_x
  _atom_site_fract_y
  _atom_site_fract_z
  _atom_site_occupancy
  _atom_site_charge
Dy  Dy1       1.0  0.95908  0.45908  0.50000  1.0000 2.0628550521
Dy  Dy2       1.0  0.54092  0.04092  0.50000  1.0000 2.0628550521
Dy  Dy3       1.0  0.79092  0.79092  0.00000  1.0000 2.0628550521
Dy  Dy4       1.0  0.20908  0.20908  0.00000  1.0000 2.0628550521
Dy  Dy5       1.0  0.92773  0.16172  0.21167  1.0000 2.0119892827
Dy  Dy6       1.0  0.95005  0.71606  0.78833  1.0000 2.0119892827
Dy  Dy7       1.0  0.83828  0.04995  0.76601  1.0000 2.0119892827
Dy  Dy8       1.0  0.28394  0.07227  0.23399  1.0000 2.0119892827
Dy  Dy9       1.0  0.79995  0.08828  0.26601  1.0000 2.0119892827
Dy  Dy10      1.0  0.82227  0.53394  0.73399  1.0000 2.0119892827
Dy  Dy11      1.0  0.46606  0.20005  0.28833  1.0000 2.0119892827
Dy  Dy12      1.0  0.91172  0.17773  0.71167  1.0000 2.0119892827
H   H1        1.0  0.17670  0.20440  0.37930  1.0000 0.1431207855
H   H2        1.0  0.82510  0.79740  0.62070  1.0000 0.1431207855
H   H3        1.0  0.79560  0.17490  0.97230  1.0000 0.1431207855
H   H4        1.0  0.20260  0.82330  0.02770  1.0000 0.1431207855
H   H5        1.0  0.92490  0.04560  0.47230  1.0000 0.1431207855
H   H6        1.0  0.57330  0.45260  0.52770  1.0000 0.1431207855
H   H7        1.0  0.54740  0.07510  0.12070  1.0000 0.1431207855
H   H8        1.0  0.95440  0.42670  0.87930  1.0000 0.1431207855
H   H9        1.0  0.46520  0.23170  0.67550  1.0000 0.1218985415
H   H10       1.0  0.55620  0.78970  0.32450  1.0000 0.1218985415
H   H11       1.0  0.76830  0.44380  0.23350  1.0000 0.1218985415
H   H12       1.0  0.21030  0.53480  0.76650  1.0000 0.1218985415
H   H13       1.0  0.19380  0.01830  0.73350  1.0000 0.1218985415
H   H14       1.0  0.28480  0.46030  0.26650  1.0000 0.1218985415
H   H15       1.0  0.53970  0.80620  0.82450  1.0000 0.1218985415
H   H16       1.0  0.98170  0.71520  0.17550  1.0000 0.1218985415
H   H17       1.0  0.44990  0.31000  0.79290  1.0000 0.1094320711
H   H18       1.0  0.51710  0.65700  0.20710  1.0000 0.1094320711
H   H19       1.0  0.69000  0.48290  0.13990  1.0000 0.1094320711
H   H20       1.0  0.34300  0.55010  0.86010  1.0000 0.1094320711
H   H21       1.0  0.23290  0.94000  0.63990  1.0000 0.1094320711
H   H22       1.0  0.30010  0.59300  0.36010  1.0000 0.1094320711
H   H23       1.0  0.40700  0.76710  0.70710  1.0000 0.1094320711
H   H24       1.0  0.06000  0.69990  0.29290  1.0000 0.1094320711
H   H25       1.0  0.38210  0.47480  0.91110  1.0000 0.0999697468
H   H26       1.0  0.56370  0.47100  0.08890  1.0000 0.0999697468
H   H27       1.0  0.52520  0.43630  0.90730  1.0000 0.0999697468
H   H28       1.0  0.52900  0.61790  0.09270  1.0000 0.0999697468
H   H29       1.0  0.18630  0.77520  0.40730  1.0000 0.0999697468
H   H30       1.0  0.36790  0.77900  0.59270  1.0000 0.0999697468
H   H31       1.0  0.22100  0.81370  0.58890  1.0000 0.0999697468
H   H32       1.0  0.22480  0.63210  0.41110  1.0000 0.0999697468
H   H33       1.0  0.36710  0.54910  0.02680  1.0000 0.1094320711
H   H34       1.0  0.52230  0.34030  0.97320  1.0000 0.1094320711
H   H35       1.0  0.45090  0.47770  0.81800  1.0000 0.1094320711
H   H36       1.0  0.65970  0.63290  0.18200  1.0000 0.1094320711
H   H37       1.0  0.22770  0.70090  0.31800  1.0000 0.1094320711
H   H38       1.0  0.38290  0.90970  0.68200  1.0000 0.1094320711
H   H39       1.0  0.09030  0.77230  0.47320  1.0000 0.1094320711
H   H40       1.0  0.29910  0.61710  0.52680  1.0000 0.1094320711
H   H41       1.0  0.26860  0.47960  0.92400  1.0000 0.1094320711
H   H42       1.0  0.55560  0.34460  0.07600  1.0000 0.1094320711
H   H43       1.0  0.52040  0.44440  0.78900  1.0000 0.1094320711
H   H44       1.0  0.65540  0.73140  0.21100  1.0000 0.1094320711
H   H45       1.0  0.19440  0.77040  0.28900  1.0000 0.1094320711
H   H46       1.0  0.48140  0.90540  0.71100  1.0000 0.1094320711
H   H47       1.0  0.09460  0.80560  0.57600  1.0000 0.1094320711
H   H48       1.0  0.22960  0.51860  0.42400  1.0000 0.1094320711
H   H49       1.0  0.20440  0.25570  0.58830  1.0000 0.1218985415
H   H50       1.0  0.66740  0.61610  0.41170  1.0000 0.1218985415
H   H51       1.0  0.74430  0.33260  0.94870  1.0000 0.1218985415
H   H52       1.0  0.38390  0.79560  0.05130  1.0000 0.1218985415
H   H53       1.0  0.08260  0.99430  0.44870  1.0000 0.1218985415
H   H54       1.0  0.54560  0.63390  0.55130  1.0000 0.1218985415
H   H55       1.0  0.36610  0.91740  0.91170  1.0000 0.1218985415
H   H56       1.0  0.00570  0.45440  0.08830  1.0000 0.1218985415
H   H57       1.0  0.24330  0.29320  0.77550  1.0000 0.1218985415
H   H58       1.0  0.51770  0.46780  0.22450  1.0000 0.1218985415
H   H59       1.0  0.70680  0.48230  0.95010  1.0000 0.1218985415
H   H60       1.0  0.53220  0.75670  0.04990  1.0000 0.1218985415
H   H61       1.0  0.23230  0.95680  0.45010  1.0000 0.1218985415
H   H62       1.0  0.50670  0.78220  0.54990  1.0000 0.1218985415
H   H63       1.0  0.21780  0.76770  0.72450  1.0000 0.1218985415
H   H64       1.0  0.04320  0.49330  0.27550  1.0000 0.1218985415
H   H65       1.0  0.13290  0.21730  0.64780  1.0000 0.1218985415
H   H66       1.0  0.56950  0.48510  0.35220  1.0000 0.1218985415
H   H67       1.0  0.78270  0.43050  0.91560  1.0000 0.1218985415
H   H68       1.0  0.51490  0.86710  0.08440  1.0000 0.1218985415
H   H69       1.0  0.18050  0.03270  0.41560  1.0000 0.1218985415
H   H70       1.0  0.61710  0.76490  0.58440  1.0000 0.1218985415
H   H71       1.0  0.23510  0.81950  0.85220  1.0000 0.1218985415
H   H72       1.0  0.96730  0.38290  0.14780  1.0000 0.1218985415
H   H73       1.0  0.92570  0.25420  0.41170  1.0000 0.1431207855
H   H74       1.0  0.84250  0.51400  0.58830  1.0000 0.1431207855
H   H75       1.0  0.74580  0.15750  0.67150  1.0000 0.1431207855
H   H76       1.0  0.48600  0.07430  0.32850  1.0000 0.1431207855
H   H77       1.0  0.90750  0.99580  0.17150  1.0000 0.1431207855
H   H78       1.0  0.82430  0.73600  0.82850  1.0000 0.1431207855
H   H79       1.0  0.26400  0.09250  0.08830  1.0000 0.1431207855
H   H80       1.0  0.00420  0.17570  0.91170  1.0000 0.1431207855
H   H81       1.0  0.92920  0.92920  0.00000  1.0000 0.0636421612
H   H82       1.0  0.07080  0.07080  0.00000  1.0000 0.0636421612
H   H83       1.0  0.82080  0.32080  0.50000  1.0000 0.0636421612
H   H84       1.0  0.67920  0.17920  0.50000  1.0000 0.0636421612
C   C1        1.0  0.11848  0.29548  0.47140  1.0000 0.6471310727
C   C2        1.0  0.82408  0.64708  0.52860  1.0000 0.6471310727
C   C3        1.0  0.70452  0.17592  0.82300  1.0000 0.6471310727
C   C4        1.0  0.35292  0.88152  0.17700  1.0000 0.6471310727
C   C5        1.0  0.92592  0.95452  0.32300  1.0000 0.6471310727
C   C6        1.0  0.63152  0.60292  0.67700  1.0000 0.6471310727
C   C7        1.0  0.39708  0.07408  0.02860  1.0000 0.6471310727
C   C8        1.0  0.04548  0.36848  0.97140  1.0000 0.6471310727
C   C9        1.0  0.22066  0.27756  0.53490  1.0000 -0.0688376191
C   C10       1.0  0.74266  0.68576  0.46510  1.0000 -0.0688376191
C   C11       1.0  0.72244  0.25734  0.94310  1.0000 -0.0688376191
C   C12       1.0  0.31424  0.77934  0.05690  1.0000 -0.0688376191
C   C13       1.0  0.00734  0.97244  0.44310  1.0000 -0.0688376191
C   C14       1.0  0.52934  0.56424  0.55690  1.0000 -0.0688376191
C   C15       1.0  0.43576  0.99266  0.96510  1.0000 -0.0688376191
C   C16       1.0  0.02756  0.47066  0.03490  1.0000 -0.0688376191
C   C17       1.0  0.23158  0.22718  0.46380  1.0000 -0.0997669322
C   C18       1.0  0.76338  0.76778  0.53620  1.0000 -0.0997669322
C   C19       1.0  0.77282  0.23662  0.00440  1.0000 -0.0997669322
C   C20       1.0  0.23222  0.76842  0.99560  1.0000 -0.0997669322
C   C21       1.0  0.98662  0.02282  0.50440  1.0000 -0.0997669322
C   C22       1.0  0.51842  0.48222  0.49560  1.0000 -0.0997669322
C   C23       1.0  0.51778  0.01338  0.03620  1.0000 -0.0997669322
C   C24       1.0  0.97718  0.48158  0.96380  1.0000 -0.0997669322
C   C25       1.0  0.32202  0.20922  0.51400  1.0000 -0.019721306
C   C26       1.0  0.69522  0.80802  0.48600  1.0000 -0.019721306
C   C27       1.0  0.79078  0.30478  0.11280  1.0000 -0.019721306
C   C28       1.0  0.19198  0.67798  0.88720  1.0000 -0.019721306
C   C29       1.0  0.05478  0.04078  0.61280  1.0000 -0.019721306
C   C30       1.0  0.42798  0.44198  0.38720  1.0000 -0.019721306
C   C31       1.0  0.55802  0.94522  0.98600  1.0000 -0.019721306
C   C32       1.0  0.95922  0.57202  0.01400  1.0000 -0.019721306
C   C33       1.0  0.40384  0.24224  0.63960  1.0000 -0.0997669322
C   C34       1.0  0.60264  0.76424  0.36040  1.0000 -0.0997669322
C   C35       1.0  0.75776  0.39736  0.16160  1.0000 -0.0997669322
C   C36       1.0  0.23576  0.59616  0.83840  1.0000 -0.0997669322
C   C37       1.0  0.14736  0.00776  0.66160  1.0000 -0.0997669322
C   C38       1.0  0.34616  0.48576  0.33840  1.0000 -0.0997669322
C   C39       1.0  0.51424  0.85264  0.86040  1.0000 -0.0997669322
C   C40       1.0  0.99224  0.65384  0.13960  1.0000 -0.0997669322
C   C41       1.0  0.39456  0.28996  0.71020  1.0000 -0.1597509207
C   C42       1.0  0.57976  0.68436  0.28980  1.0000 -0.1597509207
C   C43       1.0  0.71004  0.42024  0.10460  1.0000 -0.1597509207
C   C44       1.0  0.31564  0.60544  0.89540  1.0000 -0.1597509207
C   C45       1.0  0.17024  0.96004  0.60460  1.0000 -0.1597509207
C   C46       1.0  0.35544  0.56564  0.39540  1.0000 -0.1597509207
C   C47       1.0  0.43436  0.82976  0.78980  1.0000 -0.1597509207
C   C48       1.0  0.03996  0.64456  0.21020  1.0000 -0.1597509207
C   C49       1.0  0.30129  0.31009  0.65980  1.0000 0.047888242
C   C50       1.0  0.65029  0.64149  0.34020  1.0000 0.047888242
C   C51       1.0  0.68991  0.34971  0.99120  1.0000 0.047888242
C   C52       1.0  0.35851  0.69871  0.00880  1.0000 0.047888242
C   C53       1.0  0.09971  0.93991  0.49120  1.0000 0.047888242
C   C54       1.0  0.44871  0.60851  0.50880  1.0000 0.047888242
C   C55       1.0  0.39149  0.90029  0.84020  1.0000 0.047888242
C   C56       1.0  0.06009  0.55129  0.15980  1.0000 0.047888242
C   C57       1.0  0.32635  0.15625  0.43010  1.0000 0.6320809594
C   C58       1.0  0.72615  0.89625  0.56990  1.0000 0.6320809594
C   C59       1.0  0.84375  0.27385  0.17010  1.0000 0.6320809594
C   C60       1.0  0.10375  0.67365  0.82990  1.0000 0.6320809594
C   C61       1.0  0.02385  0.09375  0.67010  1.0000 0.6320809594
C   C62       1.0  0.42365  0.35375  0.32990  1.0000 0.6320809594
C   C63       1.0  0.64625  0.97615  0.06990  1.0000 0.6320809594
C   C64       1.0  0.90625  0.57635  0.93010  1.0000 0.6320809594
C   C65       1.0  0.29341  0.35941  0.73760  1.0000 0.0754395335
C   C66       1.0  0.62181  0.55581  0.26240  1.0000 0.0754395335
C   C67       1.0  0.64059  0.37819  0.93400  1.0000 0.0754395335
C   C68       1.0  0.44419  0.70659  0.06600  1.0000 0.0754395335
C   C69       1.0  0.12819  0.89059  0.43400  1.0000 0.0754395335
C   C70       1.0  0.45659  0.69419  0.56600  1.0000 0.0754395335
C   C71       1.0  0.30581  0.87181  0.76240  1.0000 0.0754395335
C   C72       1.0  0.10941  0.54341  0.23760  1.0000 0.0754395335
C   C73       1.0  0.34250  0.44600  0.86870  1.0000 -0.1597509207
C   C74       1.0  0.57730  0.47380  0.13130  1.0000 -0.1597509207
C   C75       1.0  0.55400  0.42270  0.89650  1.0000 -0.1597509207
C   C76       1.0  0.52620  0.65750  0.10350  1.0000 -0.1597509207
C   C77       1.0  0.17270  0.80400  0.39650  1.0000 -0.1597509207
C   C78       1.0  0.40750  0.77620  0.60350  1.0000 -0.1597509207
C   C79       1.0  0.22380  0.82730  0.63130  1.0000 -0.1597509207
C   C80       1.0  0.19600  0.59250  0.36870  1.0000 -0.1597509207
C   C81       1.0  0.33333  0.49042  0.93790  1.0000 -0.0917979984
C   C82       1.0  0.55252  0.39542  0.06210  1.0000 -0.0917979984
C   C83       1.0  0.50958  0.44748  0.84290  1.0000 -0.0917979984
C   C84       1.0  0.60458  0.66667  0.15710  1.0000 -0.0917979984
C   C85       1.0  0.19748  0.75958  0.34290  1.0000 -0.0917979984
C   C86       1.0  0.41668  0.85458  0.65710  1.0000 -0.0917979984
C   C87       1.0  0.14542  0.80252  0.56210  1.0000 -0.0917979984
C   C88       1.0  0.24042  0.58332  0.43790  1.0000 -0.0917979984
C   C89       1.0  0.27476  0.44886  0.87690  1.0000 -0.1427290269
C   C90       1.0  0.57196  0.39786  0.12310  1.0000 -0.1427290269
C   C91       1.0  0.55114  0.42804  0.82590  1.0000 -0.1427290269
C   C92       1.0  0.60214  0.72524  0.17410  1.0000 -0.1427290269
C   C93       1.0  0.17804  0.80114  0.32590  1.0000 -0.1427290269
C   C94       1.0  0.47524  0.85214  0.67410  1.0000 -0.1427290269
C   C95       1.0  0.14786  0.82196  0.62310  1.0000 -0.1427290269
C   C96       1.0  0.19886  0.52476  0.37690  1.0000 -0.1427290269
C   C97       1.0  0.22566  0.36156  0.74550  1.0000 0.0754395335
C   C98       1.0  0.61606  0.48016  0.25450  1.0000 0.0754395335
C   C99       1.0  0.63844  0.38394  0.86410  1.0000 0.0754395335
C   C100      1.0  0.51984  0.77434  0.13590  1.0000 0.0754395335
C   C101      1.0  0.13394  0.88844  0.36410  1.0000 0.0754395335
C   C102      1.0  0.52434  0.76984  0.63590  1.0000 0.0754395335
C   C103      1.0  0.23016  0.86606  0.75450  1.0000 0.0754395335
C   C104      1.0  0.11156  0.47566  0.24550  1.0000 0.0754395335
C   C105      1.0  0.23586  0.31566  0.67600  1.0000 -0.1735314575
C   C106      1.0  0.63966  0.55986  0.32400  1.0000 -0.1735314575
C   C107      1.0  0.68434  0.36034  0.92020  1.0000 -0.1735314575
C   C108      1.0  0.44014  0.76414  0.07980  1.0000 -0.1735314575
C   C109      1.0  0.11034  0.93434  0.42020  1.0000 -0.1735314575
C   C110      1.0  0.51414  0.69014  0.57980  1.0000 -0.1735314575
C   C111      1.0  0.30986  0.88966  0.82400  1.0000 -0.1735314575
C   C112      1.0  0.06566  0.48586  0.17600  1.0000 -0.1735314575
C   C113      1.0  0.15450  0.31780  0.67090  1.0000 0.047888242
C   C114      1.0  0.64690  0.48360  0.32910  1.0000 0.047888242
C   C115      1.0  0.68220  0.35310  0.83670  1.0000 0.047888242
C   C116      1.0  0.51640  0.84550  0.16330  1.0000 0.047888242
C   C117      1.0  0.10310  0.93220  0.33670  1.0000 0.047888242
C   C118      1.0  0.59550  0.76640  0.66330  1.0000 0.047888242
C   C119      1.0  0.23360  0.89690  0.82910  1.0000 0.047888242
C   C120      1.0  0.06780  0.40450  0.17090  1.0000 0.047888242
C   C121      1.0  0.17928  0.28508  0.70140  1.0000 -0.1597509207
C   C122      1.0  0.58368  0.47788  0.29860  1.0000 -0.1597509207
C   C123      1.0  0.71492  0.41632  0.89420  1.0000 -0.1597509207
C   C124      1.0  0.52212  0.82072  0.10580  1.0000 -0.1597509207
C   C125      1.0  0.16632  0.96492  0.39420  1.0000 -0.1597509207
C   C126      1.0  0.57072  0.77212  0.60580  1.0000 -0.1597509207
C   C127      1.0  0.22788  0.83368  0.79860  1.0000 -0.1597509207
C   C128      1.0  0.03508  0.42928  0.20140  1.0000 -0.1597509207
C   C129      1.0  0.11332  0.24132  0.62700  1.0000 -0.0917979984
C   C130      1.0  0.61432  0.48632  0.37300  1.0000 -0.0917979984
C   C131      1.0  0.75868  0.38568  0.87200  1.0000 -0.0917979984
C   C132      1.0  0.51368  0.88668  0.12800  1.0000 -0.0917979984
C   C133      1.0  0.13568  0.00868  0.37200  1.0000 -0.0917979984
C   C134      1.0  0.63668  0.76368  0.62800  1.0000 -0.0917979984
C   C135      1.0  0.23632  0.86432  0.87300  1.0000 -0.0917979984
C   C136      1.0  0.99132  0.36332  0.12700  1.0000 -0.0917979984
C   C137      1.0  0.01730  0.23230  0.52040  1.0000 -0.019721306
C   C138      1.0  0.71190  0.49690  0.47960  1.0000 -0.019721306
C   C139      1.0  0.76770  0.28810  0.78500  1.0000 -0.019721306
C   C140      1.0  0.50310  0.98270  0.21500  1.0000 -0.019721306
C   C141      1.0  0.03810  0.01770  0.28500  1.0000 -0.019721306
C   C142      1.0  0.73270  0.75310  0.71500  1.0000 -0.019721306
C   C143      1.0  0.24690  0.96190  0.97960  1.0000 -0.019721306
C   C144      1.0  0.98230  0.26730  0.02040  1.0000 -0.019721306
C   C145      1.0  0.98987  0.26327  0.48640  1.0000 -0.1100559586
C   C146      1.0  0.77687  0.50347  0.51360  1.0000 -0.1100559586
C   C147      1.0  0.73673  0.22313  0.72660  1.0000 -0.1100559586
C   C148      1.0  0.49653  0.01013  0.27340  1.0000 -0.1100559586
C   C149      1.0  0.97313  0.98673  0.22660  1.0000 -0.1100559586
C   C150      1.0  0.76013  0.74653  0.77340  1.0000 -0.1100559586
C   C151      1.0  0.25347  0.02687  0.01360  1.0000 -0.1100559586
C   C152      1.0  0.01327  0.23987  0.98640  1.0000 -0.1100559586
C   C153      1.0  0.05706  0.30806  0.56240  1.0000 -0.0494626669
C   C154      1.0  0.74566  0.49466  0.43760  1.0000 -0.0494626669
C   C155      1.0  0.69194  0.25434  0.74900  1.0000 -0.0494626669
C   C156      1.0  0.50534  0.94294  0.25100  1.0000 -0.0494626669
C   C157      1.0  0.00434  0.94194  0.24900  1.0000 -0.0494626669
C   C158      1.0  0.69294  0.75534  0.75100  1.0000 -0.0494626669
C   C159      1.0  0.24466  0.99566  0.93760  1.0000 -0.0494626669
C   C160      1.0  0.05806  0.30706  0.06240  1.0000 -0.0494626669
C   C161      1.0  0.94284  0.18174  0.43370  1.0000 0.5585330597
C   C162      1.0  0.74804  0.50914  0.56630  1.0000 0.5585330597
C   C163      1.0  0.81826  0.25196  0.76110  1.0000 0.5585330597
C   C164      1.0  0.49086  0.05716  0.23890  1.0000 0.5585330597
C   C165      1.0  0.00196  0.06826  0.26110  1.0000 0.5585330597
C   C166      1.0  0.80716  0.74086  0.73890  1.0000 0.5585330597
C   C167      1.0  0.25914  0.99804  0.06630  1.0000 0.5585330597
C   C168      1.0  0.93174  0.19284  0.93370  1.0000 0.5585330597
C   C169      1.0  0.02317  0.35127  0.53150  1.0000 0.6162638834
C   C170      1.0  0.81977  0.49167  0.46850  1.0000 0.6162638834
C   C171      1.0  0.64873  0.18023  0.67190  1.0000 0.6162638834
C   C172      1.0  0.50833  0.97683  0.32810  1.0000 0.6162638834
C   C173      1.0  0.93023  0.89873  0.17190  1.0000 0.6162638834
C   C174      1.0  0.72683  0.75833  0.82810  1.0000 0.6162638834
C   C175      1.0  0.24167  0.06977  0.96850  1.0000 0.6162638834
C   C176      1.0  0.10127  0.27317  0.03150  1.0000 0.6162638834
C   C177      1.0  0.94390  0.94390  0.00000  1.0000 0.4496899045
C   C178      1.0  0.05610  0.05610  0.00000  1.0000 0.4496899045
C   C179      1.0  0.80610  0.30610  0.50000  1.0000 0.4496899045
C   C180      1.0  0.69390  0.19390  0.50000  1.0000 0.4496899045
O   O1        1.0  0.06089  0.22349  0.35460  1.0000 -0.6298599073
O   O2        1.0  0.86889  0.70629  0.64540  1.0000 -0.6298599073
O   O3        1.0  0.77651  0.13111  0.83740  1.0000 -0.6298599073
O   O4        1.0  0.29371  0.93911  0.16260  1.0000 -0.6298599073
O   O5        1.0  0.88111  0.02651  0.33740  1.0000 -0.6298599073
O   O6        1.0  0.68911  0.54371  0.66260  1.0000 -0.6298599073
O   O7        1.0  0.45629  0.11889  0.14540  1.0000 -0.6298599073
O   O8        1.0  0.97349  0.31089  0.85460  1.0000 -0.6298599073
O   O9        1.0  0.09797  0.38137  0.53820  1.0000 -0.6723619231
O   O10       1.0  0.84317  0.55977  0.46180  1.0000 -0.6723619231
O   O11       1.0  0.61863  0.15683  0.71660  1.0000 -0.6723619231
O   O12       1.0  0.44023  0.90203  0.28340  1.0000 -0.6723619231
O   O13       1.0  0.90683  0.86863  0.21660  1.0000 -0.6723619231
O   O14       1.0  0.65203  0.69023  0.78340  1.0000 -0.6723619231
O   O15       1.0  0.30977  0.09317  0.96180  1.0000 -0.6723619231
O   O16       1.0  0.13137  0.34797  0.03820  1.0000 -0.6723619231
O   O17       1.0  0.24986  0.14606  0.33140  1.0000 -0.6362531909
O   O18       1.0  0.81466  0.91846  0.66860  1.0000 -0.6362531909
O   O19       1.0  0.85394  0.18534  0.10380  1.0000 -0.6362531909
O   O20       1.0  0.08154  0.75014  0.89620  1.0000 -0.6362531909
O   O21       1.0  0.93534  0.10394  0.60380  1.0000 -0.6362531909
O   O22       1.0  0.50014  0.33154  0.39620  1.0000 -0.6362531909
O   O23       1.0  0.66846  0.06466  0.16860  1.0000 -0.6362531909
O   O24       1.0  0.89606  0.49986  0.83140  1.0000 -0.6362531909
O   O25       1.0  0.40493  0.12653  0.46200  1.0000 -0.7161346206
O   O26       1.0  0.66453  0.94293  0.53800  1.0000 -0.7161346206
O   O27       1.0  0.87347  0.33547  0.27840  1.0000 -0.7161346206
O   O28       1.0  0.05707  0.59507  0.72160  1.0000 -0.7161346206
O   O29       1.0  0.08547  0.12347  0.77840  1.0000 -0.7161346206
O   O30       1.0  0.34507  0.30707  0.22160  1.0000 -0.7161346206
O   O31       1.0  0.69293  0.91453  0.03800  1.0000 -0.7161346206
O   O32       1.0  0.87653  0.65493  0.96200  1.0000 -0.7161346206
O   O33       1.0  0.96535  0.15195  0.46180  1.0000 -0.6218593844
O   O34       1.0  0.69015  0.50355  0.53820  1.0000 -0.6218593844
O   O35       1.0  0.84805  0.30985  0.81340  1.0000 -0.6218593844
O   O36       1.0  0.49645  0.03465  0.18660  1.0000 -0.6218593844
O   O37       1.0  0.05985  0.09805  0.31340  1.0000 -0.6218593844
O   O38       1.0  0.78465  0.74645  0.68660  1.0000 -0.6218593844
O   O39       1.0  0.25355  0.94015  0.03820  1.0000 -0.6218593844
O   O40       1.0  0.90195  0.21535  0.96180  1.0000 -0.6218593844
O   O41       1.0  0.85752  0.16872  0.33160  1.0000 -0.6492225134
O   O42       1.0  0.83712  0.52592  0.66840  1.0000 -0.6492225134
O   O43       1.0  0.83128  0.16288  0.68880  1.0000 -0.6492225134
O   O44       1.0  0.47408  0.14248  0.31120  1.0000 -0.6492225134
O   O45       1.0  0.91288  0.08128  0.18880  1.0000 -0.6492225134
O   O46       1.0  0.89248  0.72408  0.81120  1.0000 -0.6492225134
O   O47       1.0  0.27592  0.08712  0.16840  1.0000 -0.6492225134
O   O48       1.0  0.91872  0.10752  0.83160  1.0000 -0.6492225134
O   O49       1.0  0.97340  0.29760  0.41360  1.0000 -0.732454946
O   O50       1.0  0.88400  0.55980  0.58640  1.0000 -0.732454946
O   O51       1.0  0.70240  0.11600  0.67580  1.0000 -0.732454946
O   O52       1.0  0.44020  0.02660  0.32420  1.0000 -0.732454946
O   O53       1.0  0.86600  0.95240  0.17580  1.0000 -0.732454946
O   O54       1.0  0.77660  0.69020  0.82420  1.0000 -0.732454946
O   O55       1.0  0.30980  0.13400  0.08640  1.0000 -0.732454946
O   O56       1.0  0.04760  0.22340  0.91360  1.0000 -0.732454946
O   O57       1.0  0.04021  0.43791  0.61850  1.0000 -0.5590143853
O   O58       1.0  0.81941  0.42171  0.38150  1.0000 -0.5590143853
O   O59       1.0  0.56209  0.18059  0.60230  1.0000 -0.5590143853
O   O60       1.0  0.57829  0.95979  0.39770  1.0000 -0.5590143853
O   O61       1.0  0.93059  0.81209  0.10230  1.0000 -0.5590143853
O   O62       1.0  0.70979  0.82829  0.89770  1.0000 -0.5590143853
O   O63       1.0  0.17171  0.06941  0.88150  1.0000 -0.5590143853
O   O64       1.0  0.18791  0.29021  0.11850  1.0000 -0.5590143853
O   O65       1.0  0.98150  0.02580  0.09530  1.0000 -0.5392462292
O   O66       1.0  0.93050  0.88620  0.90470  1.0000 -0.5392462292
O   O67       1.0  0.97420  0.06950  0.95570  1.0000 -0.5392462292
O   O68       1.0  0.11380  0.01850  0.04430  1.0000 -0.5392462292
O   O69       1.0  0.81950  0.22420  0.45570  1.0000 -0.5392462292
O   O70       1.0  0.76850  0.36380  0.54430  1.0000 -0.5392462292
O   O71       1.0  0.63620  0.18050  0.40470  1.0000 -0.5392462292
O   O72       1.0  0.77580  0.23150  0.59530  1.0000 -0.5392462292
