# DDEC6 charges by PACMAN v1.1 (https://github.com/mtap-research/PACMAN-charge/)
data_2016[Cu][nbo]3[ASR]5
_chemical_formula_sum              "Cu48 H480 C960 N48 O192"
_cell_length_a       36.1601
_cell_length_b       36.1601
_cell_length_c       36.1601
_cell_angle_alpha    90
_cell_angle_beta     90
_cell_angle_gamma    90

_symmetry_space_group_name_H-M    "P 1"
_symmetry_Int_Tables_number       1

loop_
  _symmetry_equiv_pos_as_xyz
  'x, y, z'

loop_
  _atom_site_type_symbol
  _atom_site_label
  _atom_site_symmetry_multiplicity
  _atom_site_fract_x
  _atom_site_fract_y
  _atom_site_fract_z
  _atom_site_occupancy
  _atom_site_charge
Cu  Cu1       1.0  0.08624  0.67345  0.32873  1.0000 0.7886059192
Cu  Cu2       1.0  0.41376  0.32655  0.82873  1.0000 0.7886059192
Cu  Cu3       1.0  0.58624  0.82655  0.67127  1.0000 0.7886059192
Cu  Cu4       1.0  0.91376  0.17345  0.17127  1.0000 0.7886059192
Cu  Cu5       1.0  0.32873  0.08624  0.67345  1.0000 0.7886059192
Cu  Cu6       1.0  0.17127  0.91376  0.17345  1.0000 0.7886059192
Cu  Cu7       1.0  0.82873  0.41376  0.32655  1.0000 0.7886059192
Cu  Cu8       1.0  0.67127  0.58624  0.82655  1.0000 0.7886059192
Cu  Cu9       1.0  0.67345  0.32873  0.08624  1.0000 0.7886059192
Cu  Cu10      1.0  0.17345  0.17127  0.91376  1.0000 0.7886059192
Cu  Cu11      1.0  0.32655  0.82873  0.41376  1.0000 0.7886059192
Cu  Cu12      1.0  0.82655  0.67127  0.58624  1.0000 0.7886059192
Cu  Cu13      1.0  0.91376  0.32655  0.67127  1.0000 0.7886059192
Cu  Cu14      1.0  0.58624  0.67345  0.17127  1.0000 0.7886059192
Cu  Cu15      1.0  0.41376  0.17345  0.32873  1.0000 0.7886059192
Cu  Cu16      1.0  0.08624  0.82655  0.82873  1.0000 0.7886059192
Cu  Cu17      1.0  0.67127  0.91376  0.32655  1.0000 0.7886059192
Cu  Cu18      1.0  0.82873  0.08624  0.82655  1.0000 0.7886059192
Cu  Cu19      1.0  0.17127  0.58624  0.67345  1.0000 0.7886059192
Cu  Cu20      1.0  0.32873  0.41376  0.17345  1.0000 0.7886059192
Cu  Cu21      1.0  0.32655  0.67127  0.91376  1.0000 0.7886059192
Cu  Cu22      1.0  0.82655  0.82873  0.08624  1.0000 0.7886059192
Cu  Cu23      1.0  0.67345  0.17127  0.58624  1.0000 0.7886059192
Cu  Cu24      1.0  0.17345  0.32873  0.41376  1.0000 0.7950772732
Cu  Cu25      1.0  0.06146  0.62778  0.37436  1.0000 0.7716972098
Cu  Cu26      1.0  0.43854  0.37222  0.87436  1.0000 0.7716972098
Cu  Cu27      1.0  0.56146  0.87222  0.62564  1.0000 0.7716972098
Cu  Cu28      1.0  0.93854  0.12778  0.12564  1.0000 0.7716972098
Cu  Cu29      1.0  0.37436  0.06146  0.62778  1.0000 0.7716972098
Cu  Cu30      1.0  0.12564  0.93854  0.12778  1.0000 0.7716972098
Cu  Cu31      1.0  0.87436  0.43854  0.37222  1.0000 0.7716972098
Cu  Cu32      1.0  0.62564  0.56146  0.87222  1.0000 0.7716972098
Cu  Cu33      1.0  0.62778  0.37436  0.06146  1.0000 0.7716972098
Cu  Cu34      1.0  0.12778  0.12564  0.93854  1.0000 0.7716972098
Cu  Cu35      1.0  0.37222  0.87436  0.43854  1.0000 0.7716972098
Cu  Cu36      1.0  0.87222  0.62564  0.56146  1.0000 0.7716972098
Cu  Cu37      1.0  0.93854  0.37222  0.62564  1.0000 0.7716972098
Cu  Cu38      1.0  0.56146  0.62778  0.12564  1.0000 0.7716972098
Cu  Cu39      1.0  0.43854  0.12778  0.37436  1.0000 0.7716972098
Cu  Cu40      1.0  0.06146  0.87222  0.87436  1.0000 0.7716972098
Cu  Cu41      1.0  0.62564  0.93854  0.37222  1.0000 0.7716972098
Cu  Cu42      1.0  0.87436  0.06146  0.87222  1.0000 0.7716972098
Cu  Cu43      1.0  0.12564  0.56146  0.62778  1.0000 0.7716972098
Cu  Cu44      1.0  0.37436  0.43854  0.12778  1.0000 0.7716972098
Cu  Cu45      1.0  0.37222  0.62564  0.93854  1.0000 0.7716972098
Cu  Cu46      1.0  0.87222  0.87436  0.06146  1.0000 0.7716972098
Cu  Cu47      1.0  0.62778  0.12564  0.56146  1.0000 0.7716972098
Cu  Cu48      1.0  0.12778  0.37436  0.43854  1.0000 0.7716972098
H   H1        1.0  0.13683  0.53607  0.35192  1.0000 0.1294781596
H   H2        1.0  0.36317  0.46393  0.85192  1.0000 0.1294781596
H   H3        1.0  0.63683  0.96393  0.64808  1.0000 0.1294781596
H   H4        1.0  0.86317  0.03607  0.14808  1.0000 0.1294781596
H   H5        1.0  0.35192  0.13683  0.53607  1.0000 0.1294781596
H   H6        1.0  0.14808  0.86317  0.03607  1.0000 0.1294781596
H   H7        1.0  0.85192  0.36317  0.46393  1.0000 0.1294781596
H   H8        1.0  0.64808  0.63683  0.96393  1.0000 0.1294781596
H   H9        1.0  0.53607  0.35192  0.13683  1.0000 0.1294781596
H   H10       1.0  0.03607  0.14808  0.86317  1.0000 0.1294781596
H   H11       1.0  0.46393  0.85192  0.36317  1.0000 0.1294781596
H   H12       1.0  0.96393  0.64808  0.63683  1.0000 0.1294781596
H   H13       1.0  0.86317  0.46393  0.64808  1.0000 0.1294781596
H   H14       1.0  0.63683  0.53607  0.14808  1.0000 0.1294781596
H   H15       1.0  0.36317  0.03607  0.35192  1.0000 0.1294781596
H   H16       1.0  0.13683  0.96393  0.85192  1.0000 0.1294781596
H   H17       1.0  0.64808  0.86317  0.46393  1.0000 0.1294781596
H   H18       1.0  0.85192  0.13683  0.96393  1.0000 0.1294781596
H   H19       1.0  0.14808  0.63683  0.53607  1.0000 0.1294781596
H   H20       1.0  0.35192  0.36317  0.03607  1.0000 0.1294781596
H   H21       1.0  0.46393  0.64808  0.86317  1.0000 0.1294781596
H   H22       1.0  0.96393  0.85192  0.13683  1.0000 0.1294781596
H   H23       1.0  0.53607  0.14808  0.63683  1.0000 0.1294781596
H   H24       1.0  0.03607  0.35192  0.36317  1.0000 0.1294781596
H   H25       1.0  0.15680  0.54719  0.21544  1.0000 0.11957417
H   H26       1.0  0.34320  0.45281  0.71544  1.0000 0.11957417
H   H27       1.0  0.65680  0.95281  0.78456  1.0000 0.112585711
H   H28       1.0  0.84320  0.04719  0.28456  1.0000 0.112585711
H   H29       1.0  0.21544  0.15680  0.54719  1.0000 0.11957417
H   H30       1.0  0.28456  0.84320  0.04719  1.0000 0.112585711
H   H31       1.0  0.71544  0.34320  0.45281  1.0000 0.11957417
H   H32       1.0  0.78456  0.65680  0.95281  1.0000 0.112585711
H   H33       1.0  0.54719  0.21544  0.15680  1.0000 0.11957417
H   H34       1.0  0.04719  0.28456  0.84320  1.0000 0.112585711
H   H35       1.0  0.45281  0.71544  0.34320  1.0000 0.11957417
H   H36       1.0  0.95281  0.78456  0.65680  1.0000 0.112585711
H   H37       1.0  0.84320  0.45281  0.78456  1.0000 0.11957417
H   H38       1.0  0.65680  0.54719  0.28456  1.0000 0.112585711
H   H39       1.0  0.34320  0.04719  0.21544  1.0000 0.11957417
H   H40       1.0  0.15680  0.95281  0.71544  1.0000 0.112585711
H   H41       1.0  0.78456  0.84320  0.45281  1.0000 0.112585711
H   H42       1.0  0.71544  0.15680  0.95281  1.0000 0.11957417
H   H43       1.0  0.28456  0.65680  0.54719  1.0000 0.112585711
H   H44       1.0  0.21544  0.34320  0.04719  1.0000 0.11957417
H   H45       1.0  0.45281  0.78456  0.84320  1.0000 0.11957417
H   H46       1.0  0.95281  0.71544  0.15680  1.0000 0.112585711
H   H47       1.0  0.54719  0.28456  0.65680  1.0000 0.112585711
H   H48       1.0  0.04719  0.21544  0.34320  1.0000 0.11957417
H   H49       1.0  0.12938  0.59935  0.25010  1.0000 0.11957417
H   H50       1.0  0.37062  0.40065  0.75010  1.0000 0.11957417
H   H51       1.0  0.62938  0.90065  0.74990  1.0000 0.11957417
H   H52       1.0  0.87062  0.09935  0.24990  1.0000 0.11957417
H   H53       1.0  0.25010  0.12938  0.59935  1.0000 0.11957417
H   H54       1.0  0.24990  0.87062  0.09935  1.0000 0.11957417
H   H55       1.0  0.75010  0.37062  0.40065  1.0000 0.112585711
H   H56       1.0  0.74990  0.62938  0.90065  1.0000 0.11957417
H   H57       1.0  0.59935  0.25010  0.12938  1.0000 0.11957417
H   H58       1.0  0.09935  0.24990  0.87062  1.0000 0.11957417
H   H59       1.0  0.40065  0.75010  0.37062  1.0000 0.11957417
H   H60       1.0  0.90065  0.74990  0.62938  1.0000 0.11957417
H   H61       1.0  0.87062  0.40065  0.74990  1.0000 0.11957417
H   H62       1.0  0.62938  0.59935  0.24990  1.0000 0.11957417
H   H63       1.0  0.37062  0.09935  0.25010  1.0000 0.11957417
H   H64       1.0  0.12938  0.90065  0.75010  1.0000 0.11957417
H   H65       1.0  0.74990  0.87062  0.40065  1.0000 0.11957417
H   H66       1.0  0.75010  0.12938  0.90065  1.0000 0.112585711
H   H67       1.0  0.24990  0.62938  0.59935  1.0000 0.11957417
H   H68       1.0  0.25010  0.37062  0.09935  1.0000 0.11957417
H   H69       1.0  0.40065  0.74990  0.87062  1.0000 0.11957417
H   H70       1.0  0.90065  0.75010  0.12938  1.0000 0.11957417
H   H71       1.0  0.59935  0.24990  0.62938  1.0000 0.11957417
H   H72       1.0  0.09935  0.25010  0.37062  1.0000 0.11957417
H   H73       1.0  0.15434  0.46955  0.36963  1.0000 0.1294781596
H   H74       1.0  0.34566  0.53045  0.86963  1.0000 0.1294781596
H   H75       1.0  0.65434  0.03045  0.63037  1.0000 0.1294781596
H   H76       1.0  0.84566  0.96955  0.13037  1.0000 0.1294781596
H   H77       1.0  0.36963  0.15434  0.46955  1.0000 0.1294781596
H   H78       1.0  0.13037  0.84566  0.96955  1.0000 0.1294781596
H   H79       1.0  0.86963  0.34566  0.53045  1.0000 0.1294781596
H   H80       1.0  0.63037  0.65434  0.03045  1.0000 0.1294781596
H   H81       1.0  0.46955  0.36963  0.15434  1.0000 0.1294781596
H   H82       1.0  0.96955  0.13037  0.84566  1.0000 0.1294781596
H   H83       1.0  0.53045  0.86963  0.34566  1.0000 0.1294781596
H   H84       1.0  0.03045  0.63037  0.65434  1.0000 0.1294781596
H   H85       1.0  0.84566  0.53045  0.63037  1.0000 0.1294781596
H   H86       1.0  0.65434  0.46955  0.13037  1.0000 0.1294781596
H   H87       1.0  0.34566  0.96955  0.36963  1.0000 0.1294781596
H   H88       1.0  0.15434  0.03045  0.86963  1.0000 0.1294781596
H   H89       1.0  0.63037  0.84566  0.53045  1.0000 0.1294781596
H   H90       1.0  0.86963  0.15434  0.03045  1.0000 0.1294781596
H   H91       1.0  0.13037  0.65434  0.46955  1.0000 0.1294781596
H   H92       1.0  0.36963  0.34566  0.96955  1.0000 0.1294781596
H   H93       1.0  0.53045  0.63037  0.84566  1.0000 0.1294781596
H   H94       1.0  0.03045  0.86963  0.15434  1.0000 0.1294781596
H   H95       1.0  0.46955  0.13037  0.65434  1.0000 0.1294781596
H   H96       1.0  0.96955  0.36963  0.34566  1.0000 0.1294781596
H   H97       1.0  0.19715  0.40705  0.25411  1.0000 0.112585711
H   H98       1.0  0.30285  0.59295  0.75411  1.0000 0.112585711
H   H99       1.0  0.69715  0.09295  0.74589  1.0000 0.112585711
H   H100      1.0  0.80285  0.90705  0.24589  1.0000 0.112585711
H   H101      1.0  0.25411  0.19715  0.40705  1.0000 0.112585711
H   H102      1.0  0.24589  0.80285  0.90705  1.0000 0.112585711
H   H103      1.0  0.75411  0.30285  0.59295  1.0000 0.112585711
H   H104      1.0  0.74589  0.69715  0.09295  1.0000 0.112585711
H   H105      1.0  0.40705  0.25411  0.19715  1.0000 0.112585711
H   H106      1.0  0.90705  0.24589  0.80285  1.0000 0.112585711
H   H107      1.0  0.59295  0.75411  0.30285  1.0000 0.112585711
H   H108      1.0  0.09295  0.74589  0.69715  1.0000 0.112585711
H   H109      1.0  0.80285  0.59295  0.74589  1.0000 0.112585711
H   H110      1.0  0.69715  0.40705  0.24589  1.0000 0.112585711
H   H111      1.0  0.30285  0.90705  0.25411  1.0000 0.112585711
H   H112      1.0  0.19715  0.09295  0.75411  1.0000 0.112585711
H   H113      1.0  0.74589  0.80285  0.59295  1.0000 0.112585711
H   H114      1.0  0.75411  0.19715  0.09295  1.0000 0.112585711
H   H115      1.0  0.24589  0.69715  0.40705  1.0000 0.112585711
H   H116      1.0  0.25411  0.30285  0.90705  1.0000 0.112585711
H   H117      1.0  0.59295  0.74589  0.80285  1.0000 0.112585711
H   H118      1.0  0.09295  0.75411  0.19715  1.0000 0.112585711
H   H119      1.0  0.40705  0.24589  0.69715  1.0000 0.112585711
H   H120      1.0  0.90705  0.25411  0.30285  1.0000 0.112585711
H   H121      1.0  0.19330  0.37186  0.31163  1.0000 0.11957417
H   H122      1.0  0.30670  0.62814  0.81163  1.0000 0.11957417
H   H123      1.0  0.69330  0.12814  0.68837  1.0000 0.11957417
H   H124      1.0  0.80670  0.87186  0.18837  1.0000 0.11957417
H   H125      1.0  0.31163  0.19330  0.37186  1.0000 0.11957417
H   H126      1.0  0.18837  0.80670  0.87186  1.0000 0.11957417
H   H127      1.0  0.81163  0.30670  0.62814  1.0000 0.11957417
H   H128      1.0  0.68837  0.69330  0.12814  1.0000 0.11957417
H   H129      1.0  0.37186  0.31163  0.19330  1.0000 0.11957417
H   H130      1.0  0.87186  0.18837  0.80670  1.0000 0.11957417
H   H131      1.0  0.62814  0.81163  0.30670  1.0000 0.11957417
H   H132      1.0  0.12814  0.68837  0.69330  1.0000 0.11957417
H   H133      1.0  0.80670  0.62814  0.68837  1.0000 0.11957417
H   H134      1.0  0.69330  0.37186  0.18837  1.0000 0.11957417
H   H135      1.0  0.30670  0.87186  0.31163  1.0000 0.11957417
H   H136      1.0  0.19330  0.12814  0.81163  1.0000 0.11957417
H   H137      1.0  0.68837  0.80670  0.62814  1.0000 0.11957417
H   H138      1.0  0.81163  0.19330  0.12814  1.0000 0.11957417
H   H139      1.0  0.18837  0.69330  0.37186  1.0000 0.11957417
H   H140      1.0  0.31163  0.30670  0.87186  1.0000 0.11957417
H   H141      1.0  0.62814  0.68837  0.80670  1.0000 0.11957417
H   H142      1.0  0.12814  0.81163  0.19330  1.0000 0.11957417
H   H143      1.0  0.37186  0.18837  0.69330  1.0000 0.11957417
H   H144      1.0  0.87186  0.31163  0.30670  1.0000 0.11957417
H   H145      1.0  0.07063  0.18992  0.01930  1.0000 0.1294781596
H   H146      1.0  0.42937  0.81008  0.51930  1.0000 0.1294781596
H   H147      1.0  0.57063  0.31008  0.98070  1.0000 0.1294781596
H   H148      1.0  0.92937  0.68992  0.48070  1.0000 0.1294781596
H   H149      1.0  0.01930  0.07063  0.18992  1.0000 0.1294781596
H   H150      1.0  0.48070  0.92937  0.68992  1.0000 0.1294781596
H   H151      1.0  0.51930  0.42937  0.81008  1.0000 0.1294781596
H   H152      1.0  0.98070  0.57063  0.31008  1.0000 0.1294781596
H   H153      1.0  0.18992  0.01930  0.07063  1.0000 0.1294781596
H   H154      1.0  0.68992  0.48070  0.92937  1.0000 0.1294781596
H   H155      1.0  0.81008  0.51930  0.42937  1.0000 0.1294781596
H   H156      1.0  0.31008  0.98070  0.57063  1.0000 0.1294781596
H   H157      1.0  0.92937  0.81008  0.98070  1.0000 0.1294781596
H   H158      1.0  0.57063  0.18992  0.48070  1.0000 0.1294781596
H   H159      1.0  0.42937  0.68992  0.01930  1.0000 0.1294781596
H   H160      1.0  0.07063  0.31008  0.51930  1.0000 0.1294781596
H   H161      1.0  0.98070  0.92937  0.81008  1.0000 0.1294781596
H   H162      1.0  0.51930  0.07063  0.31008  1.0000 0.1294781596
H   H163      1.0  0.48070  0.57063  0.18992  1.0000 0.1294781596
H   H164      1.0  0.01930  0.42937  0.68992  1.0000 0.1294781596
H   H165      1.0  0.81008  0.98070  0.92937  1.0000 0.1294781596
H   H166      1.0  0.31008  0.51930  0.07063  1.0000 0.1294781596
H   H167      1.0  0.18992  0.48070  0.57063  1.0000 0.1294781596
H   H168      1.0  0.68992  0.01930  0.42937  1.0000 0.1294781596
H   H169      1.0  0.15567  0.29481  0.04955  1.0000 0.112585711
H   H170      1.0  0.34433  0.70519  0.54955  1.0000 0.112585711
H   H171      1.0  0.65567  0.20519  0.95045  1.0000 0.112585711
H   H172      1.0  0.84433  0.79481  0.45045  1.0000 0.112585711
H   H173      1.0  0.04955  0.15567  0.29481  1.0000 0.112585711
H   H174      1.0  0.45045  0.84433  0.79481  1.0000 0.112585711
H   H175      1.0  0.54955  0.34433  0.70519  1.0000 0.112585711
H   H176      1.0  0.95045  0.65567  0.20519  1.0000 0.112585711
H   H177      1.0  0.29481  0.04955  0.15567  1.0000 0.112585711
H   H178      1.0  0.79481  0.45045  0.84433  1.0000 0.112585711
H   H179      1.0  0.70519  0.54955  0.34433  1.0000 0.112585711
H   H180      1.0  0.20519  0.95045  0.65567  1.0000 0.112585711
H   H181      1.0  0.84433  0.70519  0.95045  1.0000 0.112585711
H   H182      1.0  0.65567  0.29481  0.45045  1.0000 0.112585711
H   H183      1.0  0.34433  0.79481  0.04955  1.0000 0.112585711
H   H184      1.0  0.15567  0.20519  0.54955  1.0000 0.112585711
H   H185      1.0  0.95045  0.84433  0.70519  1.0000 0.112585711
H   H186      1.0  0.54955  0.15567  0.20519  1.0000 0.112585711
H   H187      1.0  0.45045  0.65567  0.29481  1.0000 0.112585711
H   H188      1.0  0.04955  0.34433  0.79481  1.0000 0.112585711
H   H189      1.0  0.70519  0.95045  0.84433  1.0000 0.112585711
H   H190      1.0  0.20519  0.54955  0.15567  1.0000 0.112585711
H   H191      1.0  0.29481  0.45045  0.65567  1.0000 0.112585711
H   H192      1.0  0.79481  0.04955  0.34433  1.0000 0.112585711
H   H193      1.0  0.17365  0.24905  0.00219  1.0000 0.112585711
H   H194      1.0  0.32635  0.75095  0.50219  1.0000 0.112585711
H   H195      1.0  0.67365  0.25095  0.99781  1.0000 0.112585711
H   H196      1.0  0.82635  0.74905  0.49781  1.0000 0.112585711
H   H197      1.0  0.00219  0.17365  0.24905  1.0000 0.112585711
H   H198      1.0  0.49781  0.82635  0.74905  1.0000 0.112585711
H   H199      1.0  0.50219  0.32635  0.75095  1.0000 0.112585711
H   H200      1.0  0.99781  0.67365  0.25095  1.0000 0.112585711
H   H201      1.0  0.24905  0.00219  0.17365  1.0000 0.112585711
H   H202      1.0  0.74905  0.49781  0.82635  1.0000 0.112585711
H   H203      1.0  0.75095  0.50219  0.32635  1.0000 0.112585711
H   H204      1.0  0.25095  0.99781  0.67365  1.0000 0.112585711
H   H205      1.0  0.82635  0.75095  0.99781  1.0000 0.112585711
H   H206      1.0  0.67365  0.24905  0.49781  1.0000 0.112585711
H   H207      1.0  0.32635  0.74905  0.00219  1.0000 0.112585711
H   H208      1.0  0.17365  0.25095  0.50219  1.0000 0.112585711
H   H209      1.0  0.99781  0.82635  0.75095  1.0000 0.112585711
H   H210      1.0  0.50219  0.17365  0.25095  1.0000 0.112585711
H   H211      1.0  0.49781  0.67365  0.24905  1.0000 0.112585711
H   H212      1.0  0.00219  0.32635  0.74905  1.0000 0.112585711
H   H213      1.0  0.75095  0.99781  0.82635  1.0000 0.112585711
H   H214      1.0  0.25095  0.50219  0.17365  1.0000 0.112585711
H   H215      1.0  0.24905  0.49781  0.67365  1.0000 0.112585711
H   H216      1.0  0.74905  0.00219  0.32635  1.0000 0.112585711
H   H217      1.0  0.01844  0.19228  0.06545  1.0000 0.1294781596
H   H218      1.0  0.48156  0.80772  0.56545  1.0000 0.1294781596
H   H219      1.0  0.51844  0.30772  0.93455  1.0000 0.1294781596
H   H220      1.0  0.98156  0.69228  0.43455  1.0000 0.1294781596
H   H221      1.0  0.06545  0.01844  0.19228  1.0000 0.1294781596
H   H222      1.0  0.43455  0.98156  0.69228  1.0000 0.1294781596
H   H223      1.0  0.56545  0.48156  0.80772  1.0000 0.1294781596
H   H224      1.0  0.93455  0.51844  0.30772  1.0000 0.1294781596
H   H225      1.0  0.19228  0.06545  0.01844  1.0000 0.1294781596
H   H226      1.0  0.69228  0.43455  0.98156  1.0000 0.1294781596
H   H227      1.0  0.80772  0.56545  0.48156  1.0000 0.1294781596
H   H228      1.0  0.30772  0.93455  0.51844  1.0000 0.1294781596
H   H229      1.0  0.98156  0.80772  0.93455  1.0000 0.1294781596
H   H230      1.0  0.51844  0.19228  0.43455  1.0000 0.1294781596
H   H231      1.0  0.48156  0.69228  0.06545  1.0000 0.1294781596
H   H232      1.0  0.01844  0.30772  0.56545  1.0000 0.1294781596
H   H233      1.0  0.93455  0.98156  0.80772  1.0000 0.1294781596
H   H234      1.0  0.56545  0.01844  0.30772  1.0000 0.1294781596
H   H235      1.0  0.43455  0.51844  0.19228  1.0000 0.1294781596
H   H236      1.0  0.06545  0.48156  0.69228  1.0000 0.1294781596
H   H237      1.0  0.80772  0.93455  0.98156  1.0000 0.1294781596
H   H238      1.0  0.30772  0.56545  0.01844  1.0000 0.1294781596
H   H239      1.0  0.19228  0.43455  0.51844  1.0000 0.1294781596
H   H240      1.0  0.69228  0.06545  0.48156  1.0000 0.1294781596
H   H241      1.0  0.03705  0.30529  0.14297  1.0000 0.112585711
H   H242      1.0  0.46295  0.69471  0.64297  1.0000 0.112585711
H   H243      1.0  0.53705  0.19471  0.85703  1.0000 0.11957417
H   H244      1.0  0.96295  0.80529  0.35703  1.0000 0.11957417
H   H245      1.0  0.14297  0.03705  0.30529  1.0000 0.112585711
H   H246      1.0  0.35703  0.96295  0.80529  1.0000 0.11957417
H   H247      1.0  0.64297  0.46295  0.69471  1.0000 0.112585711
H   H248      1.0  0.85703  0.53705  0.19471  1.0000 0.11957417
H   H249      1.0  0.30529  0.14297  0.03705  1.0000 0.112585711
H   H250      1.0  0.80529  0.35703  0.96295  1.0000 0.11957417
H   H251      1.0  0.69471  0.64297  0.46295  1.0000 0.112585711
H   H252      1.0  0.19471  0.85703  0.53705  1.0000 0.11957417
H   H253      1.0  0.96295  0.69471  0.85703  1.0000 0.11957417
H   H254      1.0  0.53705  0.30529  0.35703  1.0000 0.112585711
H   H255      1.0  0.46295  0.80529  0.14297  1.0000 0.112585711
H   H256      1.0  0.03705  0.19471  0.64297  1.0000 0.112585711
H   H257      1.0  0.85703  0.96295  0.69471  1.0000 0.11957417
H   H258      1.0  0.64297  0.03705  0.19471  1.0000 0.112585711
H   H259      1.0  0.35703  0.53705  0.30529  1.0000 0.112585711
H   H260      1.0  0.14297  0.46295  0.80529  1.0000 0.112585711
H   H261      1.0  0.69471  0.85703  0.96295  1.0000 0.11957417
H   H262      1.0  0.19471  0.64297  0.03705  1.0000 0.112585711
H   H263      1.0  0.30529  0.35703  0.53705  1.0000 0.112585711
H   H264      1.0  0.80529  0.14297  0.46295  1.0000 0.112585711
H   H265      1.0  0.98413  0.26391  0.15560  1.0000 0.11957417
H   H266      1.0  0.51587  0.73609  0.65560  1.0000 0.11957417
H   H267      1.0  0.48413  0.23609  0.84440  1.0000 0.11957417
H   H268      1.0  0.01587  0.76391  0.34440  1.0000 0.11957417
H   H269      1.0  0.15560  0.98413  0.26391  1.0000 0.11957417
H   H270      1.0  0.34440  0.01587  0.76391  1.0000 0.11957417
H   H271      1.0  0.65560  0.51587  0.73609  1.0000 0.11957417
H   H272      1.0  0.84440  0.48413  0.23609  1.0000 0.11957417
H   H273      1.0  0.26391  0.15560  0.98413  1.0000 0.11957417
H   H274      1.0  0.76391  0.34440  0.01587  1.0000 0.11957417
H   H275      1.0  0.73609  0.65560  0.51587  1.0000 0.11957417
H   H276      1.0  0.23609  0.84440  0.48413  1.0000 0.11957417
H   H277      1.0  0.01587  0.73609  0.84440  1.0000 0.11957417
H   H278      1.0  0.48413  0.26391  0.34440  1.0000 0.11957417
H   H279      1.0  0.51587  0.76391  0.15560  1.0000 0.11957417
H   H280      1.0  0.98413  0.23609  0.65560  1.0000 0.11957417
H   H281      1.0  0.84440  0.01587  0.73609  1.0000 0.11957417
H   H282      1.0  0.65560  0.98413  0.23609  1.0000 0.11957417
H   H283      1.0  0.34440  0.48413  0.26391  1.0000 0.11957417
H   H284      1.0  0.15560  0.51587  0.76391  1.0000 0.11957417
H   H285      1.0  0.73609  0.84440  0.01587  1.0000 0.11957417
H   H286      1.0  0.23609  0.65560  0.98413  1.0000 0.11957417
H   H287      1.0  0.26391  0.34440  0.48413  1.0000 0.11957417
H   H288      1.0  0.76391  0.15560  0.51587  1.0000 0.11957417
H   H289      1.0  0.11089  0.29495  0.15817  1.0000 0.11957417
H   H290      1.0  0.38911  0.70505  0.65817  1.0000 0.11957417
H   H291      1.0  0.61089  0.20505  0.84183  1.0000 0.11957417
H   H292      1.0  0.88911  0.79495  0.34183  1.0000 0.11957417
H   H293      1.0  0.15817  0.11089  0.29495  1.0000 0.11957417
H   H294      1.0  0.34183  0.88911  0.79495  1.0000 0.11957417
H   H295      1.0  0.65817  0.38911  0.70505  1.0000 0.11957417
H   H296      1.0  0.84183  0.61089  0.20505  1.0000 0.11957417
H   H297      1.0  0.29495  0.15817  0.11089  1.0000 0.11957417
H   H298      1.0  0.79495  0.34183  0.88911  1.0000 0.11957417
H   H299      1.0  0.70505  0.65817  0.38911  1.0000 0.11957417
H   H300      1.0  0.20505  0.84183  0.61089  1.0000 0.11957417
H   H301      1.0  0.88911  0.70505  0.84183  1.0000 0.11957417
H   H302      1.0  0.61089  0.29495  0.34183  1.0000 0.11957417
H   H303      1.0  0.38911  0.79495  0.15817  1.0000 0.11957417
H   H304      1.0  0.11089  0.20505  0.65817  1.0000 0.11957417
H   H305      1.0  0.84183  0.88911  0.70505  1.0000 0.11957417
H   H306      1.0  0.65817  0.11089  0.20505  1.0000 0.11957417
H   H307      1.0  0.34183  0.61089  0.29495  1.0000 0.11957417
H   H308      1.0  0.15817  0.38911  0.79495  1.0000 0.11957417
H   H309      1.0  0.70505  0.84183  0.88911  1.0000 0.11957417
H   H310      1.0  0.20505  0.65817  0.11089  1.0000 0.11957417
H   H311      1.0  0.29495  0.34183  0.61089  1.0000 0.11957417
H   H312      1.0  0.79495  0.15817  0.38911  1.0000 0.11957417
H   H313      1.0  0.13753  0.34917  0.18793  1.0000 0.112585711
H   H314      1.0  0.36247  0.65083  0.68793  1.0000 0.112585711
H   H315      1.0  0.63753  0.15083  0.81207  1.0000 0.112585711
H   H316      1.0  0.86247  0.84917  0.31207  1.0000 0.112585711
H   H317      1.0  0.18793  0.13753  0.34917  1.0000 0.112585711
H   H318      1.0  0.31207  0.86247  0.84917  1.0000 0.112585711
H   H319      1.0  0.68793  0.36247  0.65083  1.0000 0.112585711
H   H320      1.0  0.81207  0.63753  0.15083  1.0000 0.112585711
H   H321      1.0  0.34917  0.18793  0.13753  1.0000 0.112585711
H   H322      1.0  0.84917  0.31207  0.86247  1.0000 0.112585711
H   H323      1.0  0.65083  0.68793  0.36247  1.0000 0.112585711
H   H324      1.0  0.15083  0.81207  0.63753  1.0000 0.112585711
H   H325      1.0  0.86247  0.65083  0.81207  1.0000 0.112585711
H   H326      1.0  0.63753  0.34917  0.31207  1.0000 0.112585711
H   H327      1.0  0.36247  0.84917  0.18793  1.0000 0.112585711
H   H328      1.0  0.13753  0.15083  0.68793  1.0000 0.112585711
H   H329      1.0  0.81207  0.86247  0.65083  1.0000 0.112585711
H   H330      1.0  0.68793  0.13753  0.15083  1.0000 0.112585711
H   H331      1.0  0.31207  0.63753  0.34917  1.0000 0.112585711
H   H332      1.0  0.18793  0.36247  0.84917  1.0000 0.112585711
H   H333      1.0  0.65083  0.81207  0.86247  1.0000 0.112585711
H   H334      1.0  0.15083  0.68793  0.13753  1.0000 0.112585711
H   H335      1.0  0.34917  0.31207  0.63753  1.0000 0.112585711
H   H336      1.0  0.84917  0.18793  0.36247  1.0000 0.112585711
H   H337      1.0  0.13278  0.40807  0.08391  1.0000 0.112585711
H   H338      1.0  0.36722  0.59193  0.58391  1.0000 0.112585711
H   H339      1.0  0.63278  0.09193  0.91609  1.0000 0.112585711
H   H340      1.0  0.86722  0.90807  0.41609  1.0000 0.112585711
H   H341      1.0  0.08391  0.13278  0.40807  1.0000 0.112585711
H   H342      1.0  0.41609  0.86722  0.90807  1.0000 0.112585711
H   H343      1.0  0.58391  0.36722  0.59193  1.0000 0.112585711
H   H344      1.0  0.91609  0.63278  0.09193  1.0000 0.112585711
H   H345      1.0  0.40807  0.08391  0.13278  1.0000 0.112585711
H   H346      1.0  0.90807  0.41609  0.86722  1.0000 0.112585711
H   H347      1.0  0.59193  0.58391  0.36722  1.0000 0.112585711
H   H348      1.0  0.09193  0.91609  0.63278  1.0000 0.112585711
H   H349      1.0  0.86722  0.59193  0.91609  1.0000 0.112585711
H   H350      1.0  0.63278  0.40807  0.41609  1.0000 0.112585711
H   H351      1.0  0.36722  0.90807  0.08391  1.0000 0.112585711
H   H352      1.0  0.13278  0.09193  0.58391  1.0000 0.112585711
H   H353      1.0  0.91609  0.86722  0.59193  1.0000 0.112585711
H   H354      1.0  0.58391  0.13278  0.09193  1.0000 0.112585711
H   H355      1.0  0.41609  0.63278  0.40807  1.0000 0.112585711
H   H356      1.0  0.08391  0.36722  0.90807  1.0000 0.112585711
H   H357      1.0  0.59193  0.91609  0.86722  1.0000 0.112585711
H   H358      1.0  0.09193  0.58391  0.13278  1.0000 0.112585711
H   H359      1.0  0.40807  0.41609  0.63278  1.0000 0.112585711
H   H360      1.0  0.90807  0.08391  0.36722  1.0000 0.112585711
H   H361      1.0  0.11088  0.48006  0.21570  1.0000 0.11957417
H   H362      1.0  0.38912  0.51994  0.71570  1.0000 0.11957417
H   H363      1.0  0.61088  0.01994  0.78430  1.0000 0.11957417
H   H364      1.0  0.88912  0.98006  0.28430  1.0000 0.11957417
H   H365      1.0  0.21570  0.11088  0.48006  1.0000 0.11957417
H   H366      1.0  0.28430  0.88912  0.98006  1.0000 0.11957417
H   H367      1.0  0.71570  0.38912  0.51994  1.0000 0.11957417
H   H368      1.0  0.78430  0.61088  0.01994  1.0000 0.11957417
H   H369      1.0  0.48006  0.21570  0.11088  1.0000 0.11957417
H   H370      1.0  0.98006  0.28430  0.88912  1.0000 0.11957417
H   H371      1.0  0.51994  0.71570  0.38912  1.0000 0.11957417
H   H372      1.0  0.01994  0.78430  0.61088  1.0000 0.11957417
H   H373      1.0  0.88912  0.51994  0.78430  1.0000 0.11957417
H   H374      1.0  0.61088  0.48006  0.28430  1.0000 0.11957417
H   H375      1.0  0.38912  0.98006  0.21570  1.0000 0.11957417
H   H376      1.0  0.11088  0.01994  0.71570  1.0000 0.11957417
H   H377      1.0  0.78430  0.88912  0.51994  1.0000 0.11957417
H   H378      1.0  0.71570  0.11088  0.01994  1.0000 0.11957417
H   H379      1.0  0.28430  0.61088  0.48006  1.0000 0.11957417
H   H380      1.0  0.21570  0.38912  0.98006  1.0000 0.11957417
H   H381      1.0  0.51994  0.78430  0.88912  1.0000 0.11957417
H   H382      1.0  0.01994  0.71570  0.11088  1.0000 0.11957417
H   H383      1.0  0.48006  0.28430  0.61088  1.0000 0.11957417
H   H384      1.0  0.98006  0.21570  0.38912  1.0000 0.11957417
H   H385      1.0  0.09350  0.43601  0.16814  1.0000 0.112585711
H   H386      1.0  0.40650  0.56399  0.66814  1.0000 0.112585711
H   H387      1.0  0.59350  0.06399  0.83186  1.0000 0.112585711
H   H388      1.0  0.90650  0.93601  0.33186  1.0000 0.112585711
H   H389      1.0  0.16814  0.09350  0.43601  1.0000 0.112585711
H   H390      1.0  0.33186  0.90650  0.93601  1.0000 0.112585711
H   H391      1.0  0.66814  0.40650  0.56399  1.0000 0.112585711
H   H392      1.0  0.83186  0.59350  0.06399  1.0000 0.112585711
H   H393      1.0  0.43601  0.16814  0.09350  1.0000 0.112585711
H   H394      1.0  0.93601  0.33186  0.90650  1.0000 0.112585711
H   H395      1.0  0.56399  0.66814  0.40650  1.0000 0.112585711
H   H396      1.0  0.06399  0.83186  0.59350  1.0000 0.112585711
H   H397      1.0  0.90650  0.56399  0.83186  1.0000 0.112585711
H   H398      1.0  0.59350  0.43601  0.33186  1.0000 0.112585711
H   H399      1.0  0.40650  0.93601  0.16814  1.0000 0.112585711
H   H400      1.0  0.09350  0.06399  0.66814  1.0000 0.112585711
H   H401      1.0  0.83186  0.90650  0.56399  1.0000 0.112585711
H   H402      1.0  0.66814  0.09350  0.06399  1.0000 0.112585711
H   H403      1.0  0.33186  0.59350  0.43601  1.0000 0.112585711
H   H404      1.0  0.16814  0.40650  0.93601  1.0000 0.112585711
H   H405      1.0  0.56399  0.83186  0.90650  1.0000 0.112585711
H   H406      1.0  0.06399  0.66814  0.09350  1.0000 0.112585711
H   H407      1.0  0.43601  0.33186  0.59350  1.0000 0.112585711
H   H408      1.0  0.93601  0.16814  0.40650  1.0000 0.112585711
H   H409      1.0  0.20842  0.40593  0.15444  1.0000 0.112585711
H   H410      1.0  0.29158  0.59407  0.65444  1.0000 0.11957417
H   H411      1.0  0.70842  0.09407  0.84556  1.0000 0.11957417
H   H412      1.0  0.79158  0.90593  0.34556  1.0000 0.11957417
H   H413      1.0  0.15444  0.20842  0.40593  1.0000 0.112585711
H   H414      1.0  0.34556  0.79158  0.90593  1.0000 0.11957417
H   H415      1.0  0.65444  0.29158  0.59407  1.0000 0.11957417
H   H416      1.0  0.84556  0.70842  0.09407  1.0000 0.112585711
H   H417      1.0  0.40593  0.15444  0.20842  1.0000 0.112585711
H   H418      1.0  0.90593  0.34556  0.79158  1.0000 0.112585711
H   H419      1.0  0.59407  0.65444  0.29158  1.0000 0.11957417
H   H420      1.0  0.09407  0.84556  0.70842  1.0000 0.11957417
H   H421      1.0  0.79158  0.59407  0.84556  1.0000 0.11957417
H   H422      1.0  0.70842  0.40593  0.34556  1.0000 0.11957417
H   H423      1.0  0.29158  0.90593  0.15444  1.0000 0.11957417
H   H424      1.0  0.20842  0.09407  0.65444  1.0000 0.112585711
H   H425      1.0  0.84556  0.79158  0.59407  1.0000 0.11957417
H   H426      1.0  0.65444  0.20842  0.09407  1.0000 0.112585711
H   H427      1.0  0.34556  0.70842  0.40593  1.0000 0.11957417
H   H428      1.0  0.15444  0.29158  0.90593  1.0000 0.11957417
H   H429      1.0  0.59407  0.84556  0.79158  1.0000 0.11957417
H   H430      1.0  0.09407  0.65444  0.20842  1.0000 0.112585711
H   H431      1.0  0.40593  0.34556  0.70842  1.0000 0.112585711
H   H432      1.0  0.90593  0.15444  0.29158  1.0000 0.11957417
H   H433      1.0  0.22490  0.44849  0.20432  1.0000 0.11957417
H   H434      1.0  0.27510  0.55151  0.70432  1.0000 0.11957417
H   H435      1.0  0.72490  0.05151  0.79568  1.0000 0.11957417
H   H436      1.0  0.77510  0.94849  0.29568  1.0000 0.11957417
H   H437      1.0  0.20432  0.22490  0.44849  1.0000 0.11957417
H   H438      1.0  0.29568  0.77510  0.94849  1.0000 0.11957417
H   H439      1.0  0.70432  0.27510  0.55151  1.0000 0.11957417
H   H440      1.0  0.79568  0.72490  0.05151  1.0000 0.11957417
H   H441      1.0  0.44849  0.20432  0.22490  1.0000 0.11957417
H   H442      1.0  0.94849  0.29568  0.77510  1.0000 0.11957417
H   H443      1.0  0.55151  0.70432  0.27510  1.0000 0.11957417
H   H444      1.0  0.05151  0.79568  0.72490  1.0000 0.11957417
H   H445      1.0  0.77510  0.55151  0.79568  1.0000 0.11957417
H   H446      1.0  0.72490  0.44849  0.29568  1.0000 0.11957417
H   H447      1.0  0.27510  0.94849  0.20432  1.0000 0.11957417
H   H448      1.0  0.22490  0.05151  0.70432  1.0000 0.11957417
H   H449      1.0  0.79568  0.77510  0.55151  1.0000 0.11957417
H   H450      1.0  0.70432  0.22490  0.05151  1.0000 0.11957417
H   H451      1.0  0.29568  0.72490  0.44849  1.0000 0.11957417
H   H452      1.0  0.20432  0.27510  0.94849  1.0000 0.11957417
H   H453      1.0  0.55151  0.79568  0.77510  1.0000 0.11957417
H   H454      1.0  0.05151  0.70432  0.22490  1.0000 0.11957417
H   H455      1.0  0.44849  0.29568  0.72490  1.0000 0.11957417
H   H456      1.0  0.94849  0.20432  0.27510  1.0000 0.11957417
H   H457      1.0  0.10428  0.35341  0.05336  1.0000 0.112585711
H   H458      1.0  0.39572  0.64659  0.55336  1.0000 0.112585711
H   H459      1.0  0.60428  0.14659  0.94664  1.0000 0.112585711
H   H460      1.0  0.89572  0.85341  0.44664  1.0000 0.112585711
H   H461      1.0  0.05336  0.10428  0.35341  1.0000 0.112585711
H   H462      1.0  0.44664  0.89572  0.85341  1.0000 0.112585711
H   H463      1.0  0.55336  0.39572  0.64659  1.0000 0.112585711
H   H464      1.0  0.94664  0.60428  0.14659  1.0000 0.112585711
H   H465      1.0  0.35341  0.05336  0.10428  1.0000 0.112585711
H   H466      1.0  0.85341  0.44664  0.89572  1.0000 0.112585711
H   H467      1.0  0.64659  0.55336  0.39572  1.0000 0.112585711
H   H468      1.0  0.14659  0.94664  0.60428  1.0000 0.112585711
H   H469      1.0  0.89572  0.64659  0.94664  1.0000 0.112585711
H   H470      1.0  0.60428  0.35341  0.44664  1.0000 0.112585711
H   H471      1.0  0.39572  0.85341  0.05336  1.0000 0.112585711
H   H472      1.0  0.10428  0.14659  0.55336  1.0000 0.112585711
H   H473      1.0  0.94664  0.89572  0.64659  1.0000 0.112585711
H   H474      1.0  0.55336  0.10428  0.14659  1.0000 0.112585711
H   H475      1.0  0.44664  0.60428  0.35341  1.0000 0.112585711
H   H476      1.0  0.05336  0.39572  0.85341  1.0000 0.112585711
H   H477      1.0  0.64659  0.94664  0.89572  1.0000 0.112585711
H   H478      1.0  0.14659  0.55336  0.10428  1.0000 0.112585711
H   H479      1.0  0.35341  0.44664  0.60428  1.0000 0.112585711
H   H480      1.0  0.85341  0.05336  0.39572  1.0000 0.112585711
C   C1        1.0  0.11083  0.60153  0.32302  1.0000 0.5892940563
C   C2        1.0  0.38917  0.39847  0.82302  1.0000 0.5892940563
C   C3        1.0  0.61083  0.89847  0.67698  1.0000 0.5892940563
C   C4        1.0  0.88917  0.10153  0.17698  1.0000 0.5892940563
C   C5        1.0  0.32302  0.11083  0.60153  1.0000 0.5892940563
C   C6        1.0  0.17698  0.88917  0.10153  1.0000 0.5892940563
C   C7        1.0  0.82302  0.38917  0.39847  1.0000 0.5892940563
C   C8        1.0  0.67698  0.61083  0.89847  1.0000 0.5892940563
C   C9        1.0  0.60153  0.32302  0.11083  1.0000 0.5892940563
C   C10       1.0  0.10153  0.17698  0.88917  1.0000 0.5892940563
C   C11       1.0  0.39847  0.82302  0.38917  1.0000 0.5892940563
C   C12       1.0  0.89847  0.67698  0.61083  1.0000 0.5892940563
C   C13       1.0  0.88917  0.39847  0.67698  1.0000 0.5892940563
C   C14       1.0  0.61083  0.60153  0.17698  1.0000 0.5892940563
C   C15       1.0  0.38917  0.10153  0.32302  1.0000 0.5892940563
C   C16       1.0  0.11083  0.89847  0.82302  1.0000 0.5892940563
C   C17       1.0  0.67698  0.88917  0.39847  1.0000 0.5892940563
C   C18       1.0  0.82302  0.11083  0.89847  1.0000 0.5892940563
C   C19       1.0  0.17698  0.61083  0.60153  1.0000 0.5892940563
C   C20       1.0  0.32302  0.38917  0.10153  1.0000 0.5892940563
C   C21       1.0  0.39847  0.67698  0.88917  1.0000 0.5892940563
C   C22       1.0  0.89847  0.82302  0.11083  1.0000 0.5892940563
C   C23       1.0  0.60153  0.17698  0.61083  1.0000 0.5892940563
C   C24       1.0  0.10153  0.32302  0.38917  1.0000 0.5892940563
C   C25       1.0  0.96868  0.19765  0.12265  1.0000 0.5966133514
C   C26       1.0  0.53132  0.80235  0.62265  1.0000 0.5966133514
C   C27       1.0  0.46868  0.30235  0.87735  1.0000 0.5966133514
C   C28       1.0  0.03132  0.69765  0.37735  1.0000 0.5966133514
C   C29       1.0  0.12265  0.96868  0.19765  1.0000 0.5966133514
C   C30       1.0  0.37735  0.03132  0.69765  1.0000 0.5966133514
C   C31       1.0  0.62265  0.53132  0.80235  1.0000 0.5966133514
C   C32       1.0  0.87735  0.46868  0.30235  1.0000 0.5966133514
C   C33       1.0  0.19765  0.12265  0.96868  1.0000 0.5966133514
C   C34       1.0  0.69765  0.37735  0.03132  1.0000 0.5966133514
C   C35       1.0  0.80235  0.62265  0.53132  1.0000 0.5966133514
C   C36       1.0  0.30235  0.87735  0.46868  1.0000 0.5966133514
C   C37       1.0  0.03132  0.80235  0.87735  1.0000 0.5966133514
C   C38       1.0  0.46868  0.19765  0.37735  1.0000 0.5966133514
C   C39       1.0  0.53132  0.69765  0.12265  1.0000 0.5966133514
C   C40       1.0  0.96868  0.30235  0.62265  1.0000 0.5966133514
C   C41       1.0  0.87735  0.03132  0.80235  1.0000 0.5966133514
C   C42       1.0  0.62265  0.96868  0.30235  1.0000 0.5966133514
C   C43       1.0  0.37735  0.46868  0.19765  1.0000 0.5966133514
C   C44       1.0  0.12265  0.53132  0.69765  1.0000 0.5966133514
C   C45       1.0  0.80235  0.87735  0.03132  1.0000 0.5966133514
C   C46       1.0  0.30235  0.62265  0.96868  1.0000 0.5966133514
C   C47       1.0  0.19765  0.37735  0.46868  1.0000 0.5966133514
C   C48       1.0  0.69765  0.12265  0.53132  1.0000 0.5966133514
C   C49       1.0  0.16630  0.39433  0.37745  1.0000 0.5802711934
C   C50       1.0  0.33370  0.60567  0.87745  1.0000 0.5802711934
C   C51       1.0  0.66630  0.10567  0.62255  1.0000 0.5802711934
C   C52       1.0  0.83370  0.89433  0.12255  1.0000 0.5802711934
C   C53       1.0  0.37745  0.16630  0.39433  1.0000 0.5802711934
C   C54       1.0  0.12255  0.83370  0.89433  1.0000 0.5802711934
C   C55       1.0  0.87745  0.33370  0.60567  1.0000 0.5802711934
C   C56       1.0  0.62255  0.66630  0.10567  1.0000 0.5802711934
C   C57       1.0  0.39433  0.37745  0.16630  1.0000 0.5802711934
C   C58       1.0  0.89433  0.12255  0.83370  1.0000 0.5802711934
C   C59       1.0  0.60567  0.87745  0.33370  1.0000 0.5802711934
C   C60       1.0  0.10567  0.62255  0.66630  1.0000 0.5802711934
C   C61       1.0  0.83370  0.60567  0.62255  1.0000 0.5802711934
C   C62       1.0  0.66630  0.39433  0.12255  1.0000 0.5802711934
C   C63       1.0  0.33370  0.89433  0.37745  1.0000 0.5802711934
C   C64       1.0  0.16630  0.10567  0.87745  1.0000 0.5802711934
C   C65       1.0  0.62255  0.83370  0.60567  1.0000 0.5802711934
C   C66       1.0  0.87745  0.16630  0.10567  1.0000 0.5802711934
C   C67       1.0  0.12255  0.66630  0.39433  1.0000 0.5802711934
C   C68       1.0  0.37745  0.33370  0.89433  1.0000 0.5802711934
C   C69       1.0  0.60567  0.62255  0.83370  1.0000 0.5802711934
C   C70       1.0  0.10567  0.87745  0.16630  1.0000 0.5802711934
C   C71       1.0  0.39433  0.12255  0.66630  1.0000 0.5802711934
C   C72       1.0  0.89433  0.37745  0.33370  1.0000 0.5802711934
C   C73       1.0  0.13325  0.19088  0.97647  1.0000 0.5892940563
C   C74       1.0  0.36675  0.80912  0.47647  1.0000 0.5892940563
C   C75       1.0  0.63325  0.30912  0.02353  1.0000 0.5892940563
C   C76       1.0  0.86675  0.69088  0.52353  1.0000 0.5892940563
C   C77       1.0  0.97647  0.13325  0.19088  1.0000 0.5892940563
C   C78       1.0  0.52353  0.86675  0.69088  1.0000 0.5892940563
C   C79       1.0  0.47647  0.36675  0.80912  1.0000 0.5892940563
C   C80       1.0  0.02353  0.63325  0.30912  1.0000 0.5892940563
C   C81       1.0  0.19088  0.97647  0.13325  1.0000 0.5892940563
C   C82       1.0  0.69088  0.52353  0.86675  1.0000 0.5892940563
C   C83       1.0  0.80912  0.47647  0.36675  1.0000 0.5892940563
C   C84       1.0  0.30912  0.02353  0.63325  1.0000 0.5892940563
C   C85       1.0  0.86675  0.80912  0.02353  1.0000 0.5892940563
C   C86       1.0  0.63325  0.19088  0.52353  1.0000 0.5892940563
C   C87       1.0  0.36675  0.69088  0.97647  1.0000 0.5892940563
C   C88       1.0  0.13325  0.30912  0.47647  1.0000 0.5892940563
C   C89       1.0  0.02353  0.86675  0.80912  1.0000 0.5892940563
C   C90       1.0  0.47647  0.13325  0.30912  1.0000 0.5892940563
C   C91       1.0  0.52353  0.63325  0.19088  1.0000 0.5892940563
C   C92       1.0  0.97647  0.36675  0.69088  1.0000 0.5892940563
C   C93       1.0  0.80912  0.02353  0.86675  1.0000 0.5892940563
C   C94       1.0  0.30912  0.47647  0.13325  1.0000 0.5892940563
C   C95       1.0  0.19088  0.52353  0.63325  1.0000 0.5892940563
C   C96       1.0  0.69088  0.97647  0.36675  1.0000 0.5892940563
C   C97       1.0  0.13144  0.57193  0.30368  1.0000 -0.0412483898
C   C98       1.0  0.36856  0.42807  0.80368  1.0000 -0.0412483898
C   C99       1.0  0.63144  0.92807  0.69632  1.0000 -0.0412483898
C   C100      1.0  0.86856  0.07193  0.19632  1.0000 -0.0412483898
C   C101      1.0  0.30368  0.13144  0.57193  1.0000 -0.0412483898
C   C102      1.0  0.19632  0.86856  0.07193  1.0000 -0.0412483898
C   C103      1.0  0.80368  0.36856  0.42807  1.0000 -0.0412483898
C   C104      1.0  0.69632  0.63144  0.92807  1.0000 -0.0412483898
C   C105      1.0  0.57193  0.30368  0.13144  1.0000 -0.0412483898
C   C106      1.0  0.07193  0.19632  0.86856  1.0000 -0.0412483898
C   C107      1.0  0.42807  0.80368  0.36856  1.0000 -0.0412483898
C   C108      1.0  0.92807  0.69632  0.63144  1.0000 -0.0412483898
C   C109      1.0  0.86856  0.42807  0.69632  1.0000 -0.0412483898
C   C110      1.0  0.63144  0.57193  0.19632  1.0000 -0.0412483898
C   C111      1.0  0.36856  0.07193  0.30368  1.0000 -0.0412483898
C   C112      1.0  0.13144  0.92807  0.80368  1.0000 -0.0412483898
C   C113      1.0  0.69632  0.86856  0.42807  1.0000 -0.0412483898
C   C114      1.0  0.80368  0.13144  0.92807  1.0000 -0.0412483898
C   C115      1.0  0.19632  0.63144  0.57193  1.0000 -0.0412483898
C   C116      1.0  0.30368  0.36856  0.07193  1.0000 -0.0412483898
C   C117      1.0  0.42807  0.69632  0.86856  1.0000 -0.0412483898
C   C118      1.0  0.92807  0.80368  0.13144  1.0000 -0.0412483898
C   C119      1.0  0.57193  0.19632  0.63144  1.0000 -0.0412483898
C   C120      1.0  0.07193  0.30368  0.36856  1.0000 -0.0412483898
C   C121      1.0  0.14195  0.53936  0.32262  1.0000 -0.1205257679
C   C122      1.0  0.35805  0.46064  0.82262  1.0000 -0.1205257679
C   C123      1.0  0.64195  0.96064  0.67738  1.0000 -0.1205257679
C   C124      1.0  0.85805  0.03936  0.17738  1.0000 -0.1205257679
C   C125      1.0  0.32262  0.14195  0.53936  1.0000 -0.1205257679
C   C126      1.0  0.17738  0.85805  0.03936  1.0000 -0.1205257679
C   C127      1.0  0.82262  0.35805  0.46064  1.0000 -0.1205257679
C   C128      1.0  0.67738  0.64195  0.96064  1.0000 -0.1205257679
C   C129      1.0  0.53936  0.32262  0.14195  1.0000 -0.1205257679
C   C130      1.0  0.03936  0.17738  0.85805  1.0000 -0.1205257679
C   C131      1.0  0.46064  0.82262  0.35805  1.0000 -0.1205257679
C   C132      1.0  0.96064  0.67738  0.64195  1.0000 -0.1205257679
C   C133      1.0  0.85805  0.46064  0.67738  1.0000 -0.1205257679
C   C134      1.0  0.64195  0.53936  0.17738  1.0000 -0.1205257679
C   C135      1.0  0.35805  0.03936  0.32262  1.0000 -0.1205257679
C   C136      1.0  0.14195  0.96064  0.82262  1.0000 -0.1205257679
C   C137      1.0  0.67738  0.85805  0.46064  1.0000 -0.1205257679
C   C138      1.0  0.82262  0.14195  0.96064  1.0000 -0.1205257679
C   C139      1.0  0.17738  0.64195  0.53936  1.0000 -0.1205257679
C   C140      1.0  0.32262  0.35805  0.03936  1.0000 -0.1205257679
C   C141      1.0  0.46064  0.67738  0.85805  1.0000 -0.1205257679
C   C142      1.0  0.96064  0.82262  0.14195  1.0000 -0.1205257679
C   C143      1.0  0.53936  0.17738  0.64195  1.0000 -0.1205257679
C   C144      1.0  0.03936  0.32262  0.35805  1.0000 -0.1205257679
C   C145      1.0  0.15847  0.51102  0.30225  1.0000 -0.0172761722
C   C146      1.0  0.34153  0.48898  0.80225  1.0000 -0.0172761722
C   C147      1.0  0.65847  0.98898  0.69775  1.0000 -0.0172761722
C   C148      1.0  0.84153  0.01102  0.19775  1.0000 -0.0172761722
C   C149      1.0  0.30225  0.15847  0.51102  1.0000 -0.0172761722
C   C150      1.0  0.19775  0.84153  0.01102  1.0000 -0.0172761722
C   C151      1.0  0.80225  0.34153  0.48898  1.0000 -0.0172761722
C   C152      1.0  0.69775  0.65847  0.98898  1.0000 -0.0172761722
C   C153      1.0  0.51102  0.30225  0.15847  1.0000 -0.0172761722
C   C154      1.0  0.01102  0.19775  0.84153  1.0000 -0.0172761722
C   C155      1.0  0.48898  0.80225  0.34153  1.0000 -0.0172761722
C   C156      1.0  0.98898  0.69775  0.65847  1.0000 -0.0172761722
C   C157      1.0  0.84153  0.48898  0.69775  1.0000 -0.0172761722
C   C158      1.0  0.65847  0.51102  0.19775  1.0000 -0.0172761722
C   C159      1.0  0.34153  0.01102  0.30225  1.0000 -0.0172761722
C   C160      1.0  0.15847  0.98898  0.80225  1.0000 -0.0147632085
C   C161      1.0  0.69775  0.84153  0.48898  1.0000 -0.0172761722
C   C162      1.0  0.80225  0.15847  0.98898  1.0000 -0.0172761722
C   C163      1.0  0.19775  0.65847  0.51102  1.0000 -0.0172761722
C   C164      1.0  0.30225  0.34153  0.01102  1.0000 -0.0147632085
C   C165      1.0  0.48898  0.69775  0.84153  1.0000 -0.0172761722
C   C166      1.0  0.98898  0.80225  0.15847  1.0000 -0.0172761722
C   C167      1.0  0.51102  0.19775  0.65847  1.0000 -0.0172761722
C   C168      1.0  0.01102  0.30225  0.34153  1.0000 -0.0172761722
C   C169      1.0  0.16329  0.51349  0.26443  1.0000 0.11957417
C   C170      1.0  0.33671  0.48651  0.76443  1.0000 0.11957417
C   C171      1.0  0.66329  0.98651  0.73557  1.0000 0.11957417
C   C172      1.0  0.83671  0.01349  0.23557  1.0000 0.11957417
C   C173      1.0  0.26443  0.16329  0.51349  1.0000 0.11957417
C   C174      1.0  0.23557  0.83671  0.01349  1.0000 0.11957417
C   C175      1.0  0.76443  0.33671  0.48651  1.0000 0.11957417
C   C176      1.0  0.73557  0.66329  0.98651  1.0000 0.11957417
C   C177      1.0  0.51349  0.26443  0.16329  1.0000 0.112585711
C   C178      1.0  0.01349  0.23557  0.83671  1.0000 0.11957417
C   C179      1.0  0.48651  0.76443  0.33671  1.0000 0.11957417
C   C180      1.0  0.98651  0.73557  0.66329  1.0000 0.11957417
C   C181      1.0  0.83671  0.48651  0.73557  1.0000 0.11957417
C   C182      1.0  0.66329  0.51349  0.23557  1.0000 0.11957417
C   C183      1.0  0.33671  0.01349  0.26443  1.0000 0.112585711
C   C184      1.0  0.16329  0.98651  0.76443  1.0000 0.11957417
C   C185      1.0  0.73557  0.83671  0.48651  1.0000 0.11957417
C   C186      1.0  0.76443  0.16329  0.98651  1.0000 0.11957417
C   C187      1.0  0.23557  0.66329  0.51349  1.0000 0.11957417
C   C188      1.0  0.26443  0.33671  0.01349  1.0000 0.11957417
C   C189      1.0  0.48651  0.73557  0.83671  1.0000 0.11957417
C   C190      1.0  0.98651  0.76443  0.16329  1.0000 0.11957417
C   C191      1.0  0.51349  0.23557  0.66329  1.0000 0.11957417
C   C192      1.0  0.01349  0.26443  0.33671  1.0000 0.112585711
C   C193      1.0  0.15319  0.54527  0.24509  1.0000 -0.1822407026
C   C194      1.0  0.34681  0.45473  0.74509  1.0000 -0.1822407026
C   C195      1.0  0.65319  0.95473  0.75491  1.0000 -0.1822407026
C   C196      1.0  0.84681  0.04527  0.25491  1.0000 -0.1822407026
C   C197      1.0  0.24509  0.15319  0.54527  1.0000 -0.1822407026
C   C198      1.0  0.25491  0.84681  0.04527  1.0000 -0.1822407026
C   C199      1.0  0.74509  0.34681  0.45473  1.0000 -0.1822407026
C   C200      1.0  0.75491  0.65319  0.95473  1.0000 -0.1822407026
C   C201      1.0  0.54527  0.24509  0.15319  1.0000 -0.1822407026
C   C202      1.0  0.04527  0.25491  0.84681  1.0000 -0.1822407026
C   C203      1.0  0.45473  0.74509  0.34681  1.0000 -0.1822407026
C   C204      1.0  0.95473  0.75491  0.65319  1.0000 -0.1822407026
C   C205      1.0  0.84681  0.45473  0.75491  1.0000 -0.1822407026
C   C206      1.0  0.65319  0.54527  0.25491  1.0000 -0.1822407026
C   C207      1.0  0.34681  0.04527  0.24509  1.0000 -0.1822407026
C   C208      1.0  0.15319  0.95473  0.74509  1.0000 -0.1822407026
C   C209      1.0  0.75491  0.84681  0.45473  1.0000 -0.1822407026
C   C210      1.0  0.74509  0.15319  0.95473  1.0000 -0.1822407026
C   C211      1.0  0.25491  0.65319  0.54527  1.0000 -0.1822407026
C   C212      1.0  0.24509  0.34681  0.04527  1.0000 -0.1822407026
C   C213      1.0  0.45473  0.75491  0.84681  1.0000 -0.1822407026
C   C214      1.0  0.95473  0.74509  0.15319  1.0000 -0.1822407026
C   C215      1.0  0.54527  0.25491  0.65319  1.0000 -0.1822407026
C   C216      1.0  0.04527  0.24509  0.34681  1.0000 -0.1822407026
C   C217      1.0  0.13779  0.57480  0.26505  1.0000 -0.0898097695
C   C218      1.0  0.36221  0.42520  0.76505  1.0000 -0.0898097695
C   C219      1.0  0.63779  0.92520  0.73495  1.0000 -0.0898097695
C   C220      1.0  0.86221  0.07480  0.23495  1.0000 -0.0898097695
C   C221      1.0  0.26505  0.13779  0.57480  1.0000 -0.0898097695
C   C222      1.0  0.23495  0.86221  0.07480  1.0000 -0.0898097695
C   C223      1.0  0.76505  0.36221  0.42520  1.0000 -0.0898097695
C   C224      1.0  0.73495  0.63779  0.92520  1.0000 -0.0898097695
C   C225      1.0  0.57480  0.26505  0.13779  1.0000 -0.0898097695
C   C226      1.0  0.07480  0.23495  0.86221  1.0000 -0.0898097695
C   C227      1.0  0.42520  0.76505  0.36221  1.0000 -0.0898097695
C   C228      1.0  0.92520  0.73495  0.63779  1.0000 -0.0898097695
C   C229      1.0  0.86221  0.42520  0.73495  1.0000 -0.0898097695
C   C230      1.0  0.63779  0.57480  0.23495  1.0000 -0.0898097695
C   C231      1.0  0.36221  0.07480  0.26505  1.0000 -0.0898097695
C   C232      1.0  0.13779  0.92520  0.76505  1.0000 -0.0898097695
C   C233      1.0  0.73495  0.86221  0.42520  1.0000 -0.0898097695
C   C234      1.0  0.76505  0.13779  0.92520  1.0000 -0.0898097695
C   C235      1.0  0.23495  0.63779  0.57480  1.0000 -0.0898097695
C   C236      1.0  0.26505  0.36221  0.07480  1.0000 -0.0898097695
C   C237      1.0  0.42520  0.73495  0.86221  1.0000 -0.0898097695
C   C238      1.0  0.92520  0.76505  0.13779  1.0000 -0.0898097695
C   C239      1.0  0.57480  0.23495  0.63779  1.0000 -0.0898097695
C   C240      1.0  0.07480  0.26505  0.36221  1.0000 -0.0898097695
C   C241      1.0  0.17409  0.41798  0.34519  1.0000 -0.0484405971
C   C242      1.0  0.32591  0.58202  0.84519  1.0000 -0.0484405971
C   C243      1.0  0.67409  0.08202  0.65481  1.0000 -0.0484405971
C   C244      1.0  0.82591  0.91798  0.15481  1.0000 -0.0484405971
C   C245      1.0  0.34519  0.17409  0.41798  1.0000 -0.0484405971
C   C246      1.0  0.15481  0.82591  0.91798  1.0000 -0.0484405971
C   C247      1.0  0.84519  0.32591  0.58202  1.0000 -0.0484405971
C   C248      1.0  0.65481  0.67409  0.08202  1.0000 -0.0484405971
C   C249      1.0  0.41798  0.34519  0.17409  1.0000 -0.0484405971
C   C250      1.0  0.91798  0.15481  0.82591  1.0000 -0.0484405971
C   C251      1.0  0.58202  0.84519  0.32591  1.0000 -0.0484405971
C   C252      1.0  0.08202  0.65481  0.67409  1.0000 -0.0484405971
C   C253      1.0  0.82591  0.58202  0.65481  1.0000 -0.0484405971
C   C254      1.0  0.67409  0.41798  0.15481  1.0000 -0.0484405971
C   C255      1.0  0.32591  0.91798  0.34519  1.0000 -0.0484405971
C   C256      1.0  0.17409  0.08202  0.84519  1.0000 -0.0484405971
C   C257      1.0  0.65481  0.82591  0.58202  1.0000 -0.0484405971
C   C258      1.0  0.84519  0.17409  0.08202  1.0000 -0.0484405971
C   C259      1.0  0.15481  0.67409  0.41798  1.0000 -0.0484405971
C   C260      1.0  0.34519  0.32591  0.91798  1.0000 -0.0484405971
C   C261      1.0  0.58202  0.65481  0.82591  1.0000 -0.0484405971
C   C262      1.0  0.08202  0.84519  0.17409  1.0000 -0.0484405971
C   C263      1.0  0.41798  0.15481  0.67409  1.0000 -0.0484405971
C   C264      1.0  0.91798  0.34519  0.32591  1.0000 -0.0484405971
C   C265      1.0  0.16515  0.45610  0.34518  1.0000 -0.1205257679
C   C266      1.0  0.33485  0.54390  0.84518  1.0000 -0.1205257679
C   C267      1.0  0.66515  0.04390  0.65482  1.0000 -0.1205257679
C   C268      1.0  0.83485  0.95610  0.15482  1.0000 -0.1205257679
C   C269      1.0  0.34518  0.16515  0.45610  1.0000 -0.1205257679
C   C270      1.0  0.15482  0.83485  0.95610  1.0000 -0.1205257679
C   C271      1.0  0.84518  0.33485  0.54390  1.0000 -0.1205257679
C   C272      1.0  0.65482  0.66515  0.04390  1.0000 -0.1205257679
C   C273      1.0  0.45610  0.34518  0.16515  1.0000 -0.1205257679
C   C274      1.0  0.95610  0.15482  0.83485  1.0000 -0.1205257679
C   C275      1.0  0.54390  0.84518  0.33485  1.0000 -0.1205257679
C   C276      1.0  0.04390  0.65482  0.66515  1.0000 -0.1205257679
C   C277      1.0  0.83485  0.54390  0.65482  1.0000 -0.1205257679
C   C278      1.0  0.66515  0.45610  0.15482  1.0000 -0.1205257679
C   C279      1.0  0.33485  0.95610  0.34518  1.0000 -0.1205257679
C   C280      1.0  0.16515  0.04390  0.84518  1.0000 -0.1205257679
C   C281      1.0  0.65482  0.83485  0.54390  1.0000 -0.1205257679
C   C282      1.0  0.84518  0.16515  0.04390  1.0000 -0.1205257679
C   C283      1.0  0.15482  0.66515  0.45610  1.0000 -0.1205257679
C   C284      1.0  0.34518  0.33485  0.95610  1.0000 -0.1205257679
C   C285      1.0  0.54390  0.65482  0.83485  1.0000 -0.1205257679
C   C286      1.0  0.04390  0.84518  0.16515  1.0000 -0.1205257679
C   C287      1.0  0.45610  0.15482  0.66515  1.0000 -0.1205257679
C   C288      1.0  0.95610  0.34518  0.33485  1.0000 -0.1205257679
C   C289      1.0  0.16889  0.47564  0.31202  1.0000 -0.0172761722
C   C290      1.0  0.33111  0.52436  0.81202  1.0000 -0.0172761722
C   C291      1.0  0.66889  0.02436  0.68798  1.0000 -0.0172761722
C   C292      1.0  0.83111  0.97564  0.18798  1.0000 -0.0172761722
C   C293      1.0  0.31202  0.16889  0.47564  1.0000 -0.0172761722
C   C294      1.0  0.18798  0.83111  0.97564  1.0000 -0.0172761722
C   C295      1.0  0.81202  0.33111  0.52436  1.0000 -0.0172761722
C   C296      1.0  0.68798  0.66889  0.02436  1.0000 -0.0172761722
C   C297      1.0  0.47564  0.31202  0.16889  1.0000 -0.0172761722
C   C298      1.0  0.97564  0.18798  0.83111  1.0000 -0.0172761722
C   C299      1.0  0.52436  0.81202  0.33111  1.0000 -0.0172761722
C   C300      1.0  0.02436  0.68798  0.66889  1.0000 -0.0172761722
C   C301      1.0  0.83111  0.52436  0.68798  1.0000 -0.0172761722
C   C302      1.0  0.66889  0.47564  0.18798  1.0000 -0.0172761722
C   C303      1.0  0.33111  0.97564  0.31202  1.0000 -0.0172761722
C   C304      1.0  0.16889  0.02436  0.81202  1.0000 -0.0172761722
C   C305      1.0  0.68798  0.83111  0.52436  1.0000 -0.0172761722
C   C306      1.0  0.81202  0.16889  0.02436  1.0000 -0.0172761722
C   C307      1.0  0.18798  0.66889  0.47564  1.0000 -0.0172761722
C   C308      1.0  0.31202  0.33111  0.97564  1.0000 -0.0172761722
C   C309      1.0  0.52436  0.68798  0.83111  1.0000 -0.0172761722
C   C310      1.0  0.02436  0.81202  0.16889  1.0000 -0.0172761722
C   C311      1.0  0.47564  0.18798  0.66889  1.0000 -0.0172761722
C   C312      1.0  0.97564  0.31202  0.33111  1.0000 -0.0172761722
C   C313      1.0  0.17989  0.45856  0.27969  1.0000 0.11957417
C   C314      1.0  0.32011  0.54144  0.77969  1.0000 0.11957417
C   C315      1.0  0.67989  0.04144  0.72031  1.0000 0.11957417
C   C316      1.0  0.82011  0.95856  0.22031  1.0000 0.11957417
C   C317      1.0  0.27969  0.17989  0.45856  1.0000 0.11957417
C   C318      1.0  0.22031  0.82011  0.95856  1.0000 0.11957417
C   C319      1.0  0.77969  0.32011  0.54144  1.0000 0.11957417
C   C320      1.0  0.72031  0.67989  0.04144  1.0000 0.11957417
C   C321      1.0  0.45856  0.27969  0.17989  1.0000 0.11957417
C   C322      1.0  0.95856  0.22031  0.82011  1.0000 0.11957417
C   C323      1.0  0.54144  0.77969  0.32011  1.0000 0.11957417
C   C324      1.0  0.04144  0.72031  0.67989  1.0000 0.11957417
C   C325      1.0  0.82011  0.54144  0.72031  1.0000 0.11957417
C   C326      1.0  0.67989  0.45856  0.22031  1.0000 0.11957417
C   C327      1.0  0.32011  0.95856  0.27969  1.0000 0.11957417
C   C328      1.0  0.17989  0.04144  0.77969  1.0000 0.11957417
C   C329      1.0  0.72031  0.82011  0.54144  1.0000 0.11957417
C   C330      1.0  0.77969  0.17989  0.04144  1.0000 0.11957417
C   C331      1.0  0.22031  0.67989  0.45856  1.0000 0.11957417
C   C332      1.0  0.27969  0.32011  0.95856  1.0000 0.11957417
C   C333      1.0  0.54144  0.72031  0.82011  1.0000 0.11957417
C   C334      1.0  0.04144  0.77969  0.17989  1.0000 0.11957417
C   C335      1.0  0.45856  0.22031  0.67989  1.0000 0.11957417
C   C336      1.0  0.95856  0.27969  0.32011  1.0000 0.11957417
C   C337      1.0  0.18914  0.42106  0.27924  1.0000 -0.1920074253
C   C338      1.0  0.31086  0.57894  0.77924  1.0000 -0.1920074253
C   C339      1.0  0.68914  0.07894  0.72076  1.0000 -0.1920074253
C   C340      1.0  0.81086  0.92106  0.22076  1.0000 -0.1920074253
C   C341      1.0  0.27924  0.18914  0.42106  1.0000 -0.1920074253
C   C342      1.0  0.22076  0.81086  0.92106  1.0000 -0.1920074253
C   C343      1.0  0.77924  0.31086  0.57894  1.0000 -0.1920074253
C   C344      1.0  0.72076  0.68914  0.07894  1.0000 -0.1920074253
C   C345      1.0  0.42106  0.27924  0.18914  1.0000 -0.1920074253
C   C346      1.0  0.92106  0.22076  0.81086  1.0000 -0.1920074253
C   C347      1.0  0.57894  0.77924  0.31086  1.0000 -0.1920074253
C   C348      1.0  0.07894  0.72076  0.68914  1.0000 -0.1920074253
C   C349      1.0  0.81086  0.57894  0.72076  1.0000 -0.1920074253
C   C350      1.0  0.68914  0.42106  0.22076  1.0000 -0.1920074253
C   C351      1.0  0.31086  0.92106  0.27924  1.0000 -0.1920074253
C   C352      1.0  0.18914  0.07894  0.77924  1.0000 -0.1920074253
C   C353      1.0  0.72076  0.81086  0.57894  1.0000 -0.1920074253
C   C354      1.0  0.77924  0.18914  0.07894  1.0000 -0.1920074253
C   C355      1.0  0.22076  0.68914  0.42106  1.0000 -0.1920074253
C   C356      1.0  0.27924  0.31086  0.92106  1.0000 -0.1920074253
C   C357      1.0  0.57894  0.72076  0.81086  1.0000 -0.1920074253
C   C358      1.0  0.07894  0.77924  0.18914  1.0000 -0.1920074253
C   C359      1.0  0.42106  0.22076  0.68914  1.0000 -0.1920074253
C   C360      1.0  0.92106  0.27924  0.31086  1.0000 -0.1920074253
C   C361      1.0  0.18690  0.40110  0.31227  1.0000 -0.0789135249
C   C362      1.0  0.31310  0.59890  0.81227  1.0000 -0.0789135249
C   C363      1.0  0.68690  0.09890  0.68773  1.0000 -0.0789135249
C   C364      1.0  0.81310  0.90110  0.18773  1.0000 -0.0789135249
C   C365      1.0  0.31227  0.18690  0.40110  1.0000 -0.0789135249
C   C366      1.0  0.18773  0.81310  0.90110  1.0000 -0.0789135249
C   C367      1.0  0.81227  0.31310  0.59890  1.0000 -0.0789135249
C   C368      1.0  0.68773  0.68690  0.09890  1.0000 -0.0789135249
C   C369      1.0  0.40110  0.31227  0.18690  1.0000 -0.0789135249
C   C370      1.0  0.90110  0.18773  0.81310  1.0000 -0.0789135249
C   C371      1.0  0.59890  0.81227  0.31310  1.0000 -0.0789135249
C   C372      1.0  0.09890  0.68773  0.68690  1.0000 -0.0789135249
C   C373      1.0  0.81310  0.59890  0.68773  1.0000 -0.0789135249
C   C374      1.0  0.68690  0.40110  0.18773  1.0000 -0.0789135249
C   C375      1.0  0.31310  0.90110  0.31227  1.0000 -0.0789135249
C   C376      1.0  0.18690  0.09890  0.81227  1.0000 -0.0789135249
C   C377      1.0  0.68773  0.81310  0.59890  1.0000 -0.0789135249
C   C378      1.0  0.81227  0.18690  0.09890  1.0000 -0.0789135249
C   C379      1.0  0.18773  0.68690  0.40110  1.0000 -0.0789135249
C   C380      1.0  0.31227  0.31310  0.90110  1.0000 -0.0789135249
C   C381      1.0  0.59890  0.68773  0.81310  1.0000 -0.0789135249
C   C382      1.0  0.09890  0.81227  0.18690  1.0000 -0.0789135249
C   C383      1.0  0.40110  0.18773  0.68690  1.0000 -0.0789135249
C   C384      1.0  0.90110  0.31227  0.31310  1.0000 -0.0789135249
C   C385      1.0  0.12328  0.21652  0.00648  1.0000 -0.0412483898
C   C386      1.0  0.37672  0.78348  0.50648  1.0000 -0.0412483898
C   C387      1.0  0.62328  0.28348  0.99352  1.0000 -0.0412483898
C   C388      1.0  0.87672  0.71652  0.49352  1.0000 -0.0412483898
C   C389      1.0  0.00648  0.12328  0.21652  1.0000 -0.0412483898
C   C390      1.0  0.49352  0.87672  0.71652  1.0000 -0.0412483898
C   C391      1.0  0.50648  0.37672  0.78348  1.0000 -0.0412483898
C   C392      1.0  0.99352  0.62328  0.28348  1.0000 -0.0412483898
C   C393      1.0  0.21652  0.00648  0.12328  1.0000 -0.0412483898
C   C394      1.0  0.71652  0.49352  0.87672  1.0000 -0.0412483898
C   C395      1.0  0.78348  0.50648  0.37672  1.0000 -0.0412483898
C   C396      1.0  0.28348  0.99352  0.62328  1.0000 -0.0412483898
C   C397      1.0  0.87672  0.78348  0.99352  1.0000 -0.0412483898
C   C398      1.0  0.62328  0.21652  0.49352  1.0000 -0.0412483898
C   C399      1.0  0.37672  0.71652  0.00648  1.0000 -0.0412483898
C   C400      1.0  0.12328  0.28348  0.50648  1.0000 -0.0412483898
C   C401      1.0  0.99352  0.87672  0.78348  1.0000 -0.0412483898
C   C402      1.0  0.50648  0.12328  0.28348  1.0000 -0.0412483898
C   C403      1.0  0.49352  0.62328  0.21652  1.0000 -0.0412483898
C   C404      1.0  0.00648  0.37672  0.71652  1.0000 -0.0412483898
C   C405      1.0  0.78348  0.99352  0.87672  1.0000 -0.0412483898
C   C406      1.0  0.28348  0.50648  0.12328  1.0000 -0.0412483898
C   C407      1.0  0.21652  0.49352  0.62328  1.0000 -0.0412483898
C   C408      1.0  0.71652  0.00648  0.37672  1.0000 -0.0412483898
C   C409      1.0  0.08951  0.21228  0.02558  1.0000 -0.1263397247
C   C410      1.0  0.41049  0.78772  0.52558  1.0000 -0.1205257679
C   C411      1.0  0.58951  0.28772  0.97442  1.0000 -0.1205257679
C   C412      1.0  0.91049  0.71228  0.47442  1.0000 -0.1263397247
C   C413      1.0  0.02558  0.08951  0.21228  1.0000 -0.1263397247
C   C414      1.0  0.47442  0.91049  0.71228  1.0000 -0.1263397247
C   C415      1.0  0.52558  0.41049  0.78772  1.0000 -0.1205257679
C   C416      1.0  0.97442  0.58951  0.28772  1.0000 -0.1263397247
C   C417      1.0  0.21228  0.02558  0.08951  1.0000 -0.1263397247
C   C418      1.0  0.71228  0.47442  0.91049  1.0000 -0.1205257679
C   C419      1.0  0.78772  0.52558  0.41049  1.0000 -0.1263397247
C   C420      1.0  0.28772  0.97442  0.58951  1.0000 -0.1263397247
C   C421      1.0  0.91049  0.78772  0.97442  1.0000 -0.1205257679
C   C422      1.0  0.58951  0.21228  0.47442  1.0000 -0.1263397247
C   C423      1.0  0.41049  0.71228  0.02558  1.0000 -0.1263397247
C   C424      1.0  0.08951  0.28772  0.52558  1.0000 -0.1205257679
C   C425      1.0  0.97442  0.91049  0.78772  1.0000 -0.1205257679
C   C426      1.0  0.52558  0.08951  0.28772  1.0000 -0.1205257679
C   C427      1.0  0.47442  0.58951  0.21228  1.0000 -0.1263397247
C   C428      1.0  0.02558  0.41049  0.71228  1.0000 -0.1263397247
C   C429      1.0  0.78772  0.97442  0.91049  1.0000 -0.1263397247
C   C430      1.0  0.28772  0.52558  0.08951  1.0000 -0.1263397247
C   C431      1.0  0.21228  0.47442  0.58951  1.0000 -0.1263397247
C   C432      1.0  0.71228  0.02558  0.41049  1.0000 -0.1205257679
C   C433      1.0  0.08042  0.23850  0.05221  1.0000 -0.0172761722
C   C434      1.0  0.41958  0.76150  0.55221  1.0000 -0.0172761722
C   C435      1.0  0.58042  0.26150  0.94779  1.0000 -0.0147632085
C   C436      1.0  0.91958  0.73850  0.44779  1.0000 -0.0172761722
C   C437      1.0  0.05221  0.08042  0.23850  1.0000 -0.0172761722
C   C438      1.0  0.44779  0.91958  0.73850  1.0000 -0.0147632085
C   C439      1.0  0.55221  0.41958  0.76150  1.0000 -0.0147632085
C   C440      1.0  0.94779  0.58042  0.26150  1.0000 -0.0172761722
C   C441      1.0  0.23850  0.05221  0.08042  1.0000 -0.0172761722
C   C442      1.0  0.73850  0.44779  0.91958  1.0000 -0.0147632085
C   C443      1.0  0.76150  0.55221  0.41958  1.0000 -0.0172761722
C   C444      1.0  0.26150  0.94779  0.58042  1.0000 -0.0172761722
C   C445      1.0  0.91958  0.76150  0.94779  1.0000 -0.0147632085
C   C446      1.0  0.58042  0.23850  0.44779  1.0000 -0.0172761722
C   C447      1.0  0.41958  0.73850  0.05221  1.0000 -0.0172761722
C   C448      1.0  0.08042  0.26150  0.55221  1.0000 -0.0172761722
C   C449      1.0  0.94779  0.91958  0.76150  1.0000 -0.0147632085
C   C450      1.0  0.55221  0.08042  0.26150  1.0000 -0.0172761722
C   C451      1.0  0.44779  0.58042  0.23850  1.0000 -0.0172761722
C   C452      1.0  0.05221  0.41958  0.73850  1.0000 -0.0172761722
C   C453      1.0  0.76150  0.94779  0.91958  1.0000 -0.0147632085
C   C454      1.0  0.26150  0.55221  0.08042  1.0000 -0.0172761722
C   C455      1.0  0.23850  0.44779  0.58042  1.0000 -0.0172761722
C   C456      1.0  0.73850  0.05221  0.41958  1.0000 -0.0172761722
C   C457      1.0  0.10339  0.26773  0.06063  1.0000 0.11957417
C   C458      1.0  0.39661  0.73227  0.56063  1.0000 0.11957417
C   C459      1.0  0.60339  0.23227  0.93937  1.0000 0.1294781596
C   C460      1.0  0.89661  0.76773  0.43937  1.0000 0.11957417
C   C461      1.0  0.06063  0.10339  0.26773  1.0000 0.11957417
C   C462      1.0  0.43937  0.89661  0.76773  1.0000 0.11957417
C   C463      1.0  0.56063  0.39661  0.73227  1.0000 0.11957417
C   C464      1.0  0.93937  0.60339  0.23227  1.0000 0.11957417
C   C465      1.0  0.26773  0.06063  0.10339  1.0000 0.11957417
C   C466      1.0  0.76773  0.43937  0.89661  1.0000 0.11957417
C   C467      1.0  0.73227  0.56063  0.39661  1.0000 0.11957417
C   C468      1.0  0.23227  0.93937  0.60339  1.0000 0.11957417
C   C469      1.0  0.89661  0.73227  0.93937  1.0000 0.11957417
C   C470      1.0  0.60339  0.26773  0.43937  1.0000 0.11957417
C   C471      1.0  0.39661  0.76773  0.06063  1.0000 0.11957417
C   C472      1.0  0.10339  0.23227  0.56063  1.0000 0.1294781596
C   C473      1.0  0.93937  0.89661  0.73227  1.0000 0.11957417
C   C474      1.0  0.56063  0.10339  0.23227  1.0000 0.1294781596
C   C475      1.0  0.43937  0.60339  0.26773  1.0000 0.11957417
C   C476      1.0  0.06063  0.39661  0.76773  1.0000 0.11957417
C   C477      1.0  0.73227  0.93937  0.89661  1.0000 0.11957417
C   C478      1.0  0.23227  0.56063  0.10339  1.0000 0.11957417
C   C479      1.0  0.26773  0.43937  0.60339  1.0000 0.11957417
C   C480      1.0  0.76773  0.06063  0.39661  1.0000 0.11957417
C   C481      1.0  0.13736  0.27209  0.04291  1.0000 -0.1822407026
C   C482      1.0  0.36264  0.72791  0.54291  1.0000 -0.1822407026
C   C483      1.0  0.63736  0.22791  0.95709  1.0000 -0.1822407026
C   C484      1.0  0.86264  0.77209  0.45709  1.0000 -0.1822407026
C   C485      1.0  0.04291  0.13736  0.27209  1.0000 -0.1822407026
C   C486      1.0  0.45709  0.86264  0.77209  1.0000 -0.1822407026
C   C487      1.0  0.54291  0.36264  0.72791  1.0000 -0.1822407026
C   C488      1.0  0.95709  0.63736  0.22791  1.0000 -0.1822407026
C   C489      1.0  0.27209  0.04291  0.13736  1.0000 -0.1822407026
C   C490      1.0  0.77209  0.45709  0.86264  1.0000 -0.1822407026
C   C491      1.0  0.72791  0.54291  0.36264  1.0000 -0.1822407026
C   C492      1.0  0.22791  0.95709  0.63736  1.0000 -0.1822407026
C   C493      1.0  0.86264  0.72791  0.95709  1.0000 -0.1822407026
C   C494      1.0  0.63736  0.27209  0.45709  1.0000 -0.1822407026
C   C495      1.0  0.36264  0.77209  0.04291  1.0000 -0.1822407026
C   C496      1.0  0.13736  0.22791  0.54291  1.0000 -0.1822407026
C   C497      1.0  0.95709  0.86264  0.72791  1.0000 -0.1822407026
C   C498      1.0  0.54291  0.13736  0.22791  1.0000 -0.1822407026
C   C499      1.0  0.45709  0.63736  0.27209  1.0000 -0.1822407026
C   C500      1.0  0.04291  0.36264  0.77209  1.0000 -0.1822407026
C   C501      1.0  0.72791  0.95709  0.86264  1.0000 -0.1822407026
C   C502      1.0  0.22791  0.54291  0.13736  1.0000 -0.1822407026
C   C503      1.0  0.27209  0.45709  0.63736  1.0000 -0.1822407026
C   C504      1.0  0.77209  0.04291  0.36264  1.0000 -0.1822407026
C   C505      1.0  0.14728  0.24611  0.01585  1.0000 -0.0898097695
C   C506      1.0  0.35272  0.75389  0.51585  1.0000 -0.0898097695
C   C507      1.0  0.64728  0.25389  0.98415  1.0000 -0.0898097695
C   C508      1.0  0.85272  0.74611  0.48415  1.0000 -0.0898097695
C   C509      1.0  0.01585  0.14728  0.24611  1.0000 -0.0898097695
C   C510      1.0  0.48415  0.85272  0.74611  1.0000 -0.0898097695
C   C511      1.0  0.51585  0.35272  0.75389  1.0000 -0.0898097695
C   C512      1.0  0.98415  0.64728  0.25389  1.0000 -0.0898097695
C   C513      1.0  0.24611  0.01585  0.14728  1.0000 -0.0898097695
C   C514      1.0  0.74611  0.48415  0.85272  1.0000 -0.0898097695
C   C515      1.0  0.75389  0.51585  0.35272  1.0000 -0.0898097695
C   C516      1.0  0.25389  0.98415  0.64728  1.0000 -0.0898097695
C   C517      1.0  0.85272  0.75389  0.98415  1.0000 -0.0898097695
C   C518      1.0  0.64728  0.24611  0.48415  1.0000 -0.0898097695
C   C519      1.0  0.35272  0.74611  0.01585  1.0000 -0.0898097695
C   C520      1.0  0.14728  0.25389  0.51585  1.0000 -0.0898097695
C   C521      1.0  0.98415  0.85272  0.75389  1.0000 -0.0898097695
C   C522      1.0  0.51585  0.14728  0.25389  1.0000 -0.0898097695
C   C523      1.0  0.48415  0.64728  0.24611  1.0000 -0.0898097695
C   C524      1.0  0.01585  0.35272  0.74611  1.0000 -0.0898097695
C   C525      1.0  0.75389  0.98415  0.85272  1.0000 -0.0898097695
C   C526      1.0  0.25389  0.51585  0.14728  1.0000 -0.0898097695
C   C527      1.0  0.24611  0.48415  0.64728  1.0000 -0.0898097695
C   C528      1.0  0.74611  0.01585  0.35272  1.0000 -0.0898097695
C   C529      1.0  0.99677  0.22507  0.11127  1.0000 -0.0484405971
C   C530      1.0  0.50323  0.77493  0.61127  1.0000 -0.0484405971
C   C531      1.0  0.49677  0.27493  0.88873  1.0000 -0.0484405971
C   C532      1.0  0.00323  0.72507  0.38873  1.0000 -0.0484405971
C   C533      1.0  0.11127  0.99677  0.22507  1.0000 -0.0484405971
C   C534      1.0  0.38873  0.00323  0.72507  1.0000 -0.0484405971
C   C535      1.0  0.61127  0.50323  0.77493  1.0000 -0.0484405971
C   C536      1.0  0.88873  0.49677  0.27493  1.0000 -0.0484405971
C   C537      1.0  0.22507  0.11127  0.99677  1.0000 -0.0484405971
C   C538      1.0  0.72507  0.38873  0.00323  1.0000 -0.0484405971
C   C539      1.0  0.77493  0.61127  0.50323  1.0000 -0.0484405971
C   C540      1.0  0.27493  0.88873  0.49677  1.0000 -0.0484405971
C   C541      1.0  0.00323  0.77493  0.88873  1.0000 -0.0484405971
C   C542      1.0  0.49677  0.22507  0.38873  1.0000 -0.0484405971
C   C543      1.0  0.50323  0.72507  0.11127  1.0000 -0.0484405971
C   C544      1.0  0.99677  0.27493  0.61127  1.0000 -0.0484405971
C   C545      1.0  0.88873  0.00323  0.77493  1.0000 -0.0484405971
C   C546      1.0  0.61127  0.99677  0.27493  1.0000 -0.0484405971
C   C547      1.0  0.38873  0.49677  0.22507  1.0000 -0.0484405971
C   C548      1.0  0.11127  0.50323  0.72507  1.0000 -0.0484405971
C   C549      1.0  0.77493  0.88873  0.00323  1.0000 -0.0484405971
C   C550      1.0  0.27493  0.61127  0.99677  1.0000 -0.0484405971
C   C551      1.0  0.22507  0.38873  0.49677  1.0000 -0.0484405971
C   C552      1.0  0.72507  0.11127  0.50323  1.0000 -0.0484405971
C   C553      1.0  0.02115  0.21723  0.08177  1.0000 -0.1263397247
C   C554      1.0  0.47885  0.78277  0.58177  1.0000 -0.1205257679
C   C555      1.0  0.52115  0.28277  0.91823  1.0000 -0.1263397247
C   C556      1.0  0.97885  0.71723  0.41823  1.0000 -0.1263397247
C   C557      1.0  0.08177  0.02115  0.21723  1.0000 -0.1263397247
C   C558      1.0  0.41823  0.97885  0.71723  1.0000 -0.1263397247
C   C559      1.0  0.58177  0.47885  0.78277  1.0000 -0.1205257679
C   C560      1.0  0.91823  0.52115  0.28277  1.0000 -0.1263397247
C   C561      1.0  0.21723  0.08177  0.02115  1.0000 -0.1263397247
C   C562      1.0  0.71723  0.41823  0.97885  1.0000 -0.1263397247
C   C563      1.0  0.78277  0.58177  0.47885  1.0000 -0.1205257679
C   C564      1.0  0.28277  0.91823  0.52115  1.0000 -0.1263397247
C   C565      1.0  0.97885  0.78277  0.91823  1.0000 -0.1205257679
C   C566      1.0  0.52115  0.21723  0.41823  1.0000 -0.1263397247
C   C567      1.0  0.47885  0.71723  0.08177  1.0000 -0.1263397247
C   C568      1.0  0.02115  0.28277  0.58177  1.0000 -0.1263397247
C   C569      1.0  0.91823  0.97885  0.78277  1.0000 -0.1263397247
C   C570      1.0  0.58177  0.02115  0.28277  1.0000 -0.1263397247
C   C571      1.0  0.41823  0.52115  0.21723  1.0000 -0.1263397247
C   C572      1.0  0.08177  0.47885  0.71723  1.0000 -0.1263397247
C   C573      1.0  0.78277  0.91823  0.97885  1.0000 -0.1263397247
C   C574      1.0  0.28277  0.58177  0.02115  1.0000 -0.1263397247
C   C575      1.0  0.21723  0.41823  0.52115  1.0000 -0.1263397247
C   C576      1.0  0.71723  0.08177  0.47885  1.0000 -0.1263397247
C   C577      1.0  0.05054  0.24127  0.07555  1.0000 -0.0172761722
C   C578      1.0  0.44946  0.75873  0.57555  1.0000 -0.0172761722
C   C579      1.0  0.55054  0.25873  0.92445  1.0000 -0.0172761722
C   C580      1.0  0.94946  0.74127  0.42445  1.0000 -0.0172761722
C   C581      1.0  0.07555  0.05054  0.24127  1.0000 -0.0172761722
C   C582      1.0  0.42445  0.94946  0.74127  1.0000 -0.0172761722
C   C583      1.0  0.57555  0.44946  0.75873  1.0000 -0.0172761722
C   C584      1.0  0.92445  0.55054  0.25873  1.0000 -0.0172761722
C   C585      1.0  0.24127  0.07555  0.05054  1.0000 -0.0172761722
C   C586      1.0  0.74127  0.42445  0.94946  1.0000 -0.0172761722
C   C587      1.0  0.75873  0.57555  0.44946  1.0000 -0.0172761722
C   C588      1.0  0.25873  0.92445  0.55054  1.0000 -0.0172761722
C   C589      1.0  0.94946  0.75873  0.92445  1.0000 -0.0172761722
C   C590      1.0  0.55054  0.24127  0.42445  1.0000 -0.0172761722
C   C591      1.0  0.44946  0.74127  0.07555  1.0000 -0.0172761722
C   C592      1.0  0.05054  0.25873  0.57555  1.0000 -0.0172761722
C   C593      1.0  0.92445  0.94946  0.75873  1.0000 -0.0172761722
C   C594      1.0  0.57555  0.05054  0.25873  1.0000 -0.0172761722
C   C595      1.0  0.42445  0.55054  0.24127  1.0000 -0.0172761722
C   C596      1.0  0.07555  0.44946  0.74127  1.0000 -0.0172761722
C   C597      1.0  0.75873  0.92445  0.94946  1.0000 -0.0172761722
C   C598      1.0  0.25873  0.57555  0.05054  1.0000 -0.0172761722
C   C599      1.0  0.24127  0.42445  0.55054  1.0000 -0.0172761722
C   C600      1.0  0.74127  0.07555  0.44946  1.0000 -0.0172761722
C   C601      1.0  0.05639  0.27234  0.09689  1.0000 0.1294781596
C   C602      1.0  0.44361  0.72766  0.59689  1.0000 0.11957417
C   C603      1.0  0.55639  0.22766  0.90311  1.0000 0.1294781596
C   C604      1.0  0.94361  0.77234  0.40311  1.0000 0.1294781596
C   C605      1.0  0.09689  0.05639  0.27234  1.0000 0.1294781596
C   C606      1.0  0.40311  0.94361  0.77234  1.0000 0.1294781596
C   C607      1.0  0.59689  0.44361  0.72766  1.0000 0.11957417
C   C608      1.0  0.90311  0.55639  0.22766  1.0000 0.1294781596
C   C609      1.0  0.27234  0.09689  0.05639  1.0000 0.1294781596
C   C610      1.0  0.77234  0.40311  0.94361  1.0000 0.1294781596
C   C611      1.0  0.72766  0.59689  0.44361  1.0000 0.11957417
C   C612      1.0  0.22766  0.90311  0.55639  1.0000 0.1294781596
C   C613      1.0  0.94361  0.72766  0.90311  1.0000 0.1294781596
C   C614      1.0  0.55639  0.27234  0.40311  1.0000 0.1294781596
C   C615      1.0  0.44361  0.77234  0.09689  1.0000 0.1294781596
C   C616      1.0  0.05639  0.22766  0.59689  1.0000 0.11957417
C   C617      1.0  0.90311  0.94361  0.72766  1.0000 0.1294781596
C   C618      1.0  0.59689  0.05639  0.22766  1.0000 0.11957417
C   C619      1.0  0.40311  0.55639  0.27234  1.0000 0.1294781596
C   C620      1.0  0.09689  0.44361  0.77234  1.0000 0.1294781596
C   C621      1.0  0.72766  0.90311  0.94361  1.0000 0.1294781596
C   C622      1.0  0.22766  0.59689  0.05639  1.0000 0.11957417
C   C623      1.0  0.27234  0.40311  0.55639  1.0000 0.1294781596
C   C624      1.0  0.77234  0.09689  0.44361  1.0000 0.1294781596
C   C625      1.0  0.03232  0.28135  0.12568  1.0000 -0.1920074253
C   C626      1.0  0.46768  0.71865  0.62568  1.0000 -0.1920074253
C   C627      1.0  0.53232  0.21865  0.87432  1.0000 -0.1920074253
C   C628      1.0  0.96768  0.78135  0.37432  1.0000 -0.1920074253
C   C629      1.0  0.12568  0.03232  0.28135  1.0000 -0.1920074253
C   C630      1.0  0.37432  0.96768  0.78135  1.0000 -0.1920074253
C   C631      1.0  0.62568  0.46768  0.71865  1.0000 -0.1920074253
C   C632      1.0  0.87432  0.53232  0.21865  1.0000 -0.1920074253
C   C633      1.0  0.28135  0.12568  0.03232  1.0000 -0.1920074253
C   C634      1.0  0.78135  0.37432  0.96768  1.0000 -0.1920074253
C   C635      1.0  0.71865  0.62568  0.46768  1.0000 -0.1920074253
C   C636      1.0  0.21865  0.87432  0.53232  1.0000 -0.1920074253
C   C637      1.0  0.96768  0.71865  0.87432  1.0000 -0.1920074253
C   C638      1.0  0.53232  0.28135  0.37432  1.0000 -0.1920074253
C   C639      1.0  0.46768  0.78135  0.12568  1.0000 -0.1920074253
C   C640      1.0  0.03232  0.21865  0.62568  1.0000 -0.1920074253
C   C641      1.0  0.87432  0.96768  0.71865  1.0000 -0.1920074253
C   C642      1.0  0.62568  0.03232  0.21865  1.0000 -0.1920074253
C   C643      1.0  0.37432  0.53232  0.28135  1.0000 -0.1920074253
C   C644      1.0  0.12568  0.46768  0.78135  1.0000 -0.1920074253
C   C645      1.0  0.71865  0.87432  0.96768  1.0000 -0.1920074253
C   C646      1.0  0.21865  0.62568  0.03232  1.0000 -0.1920074253
C   C647      1.0  0.28135  0.37432  0.53232  1.0000 -0.1920074253
C   C648      1.0  0.78135  0.12568  0.46768  1.0000 -0.1920074253
C   C649      1.0  0.00226  0.25761  0.13265  1.0000 -0.0898097695
C   C650      1.0  0.49774  0.74239  0.63265  1.0000 -0.0898097695
C   C651      1.0  0.50226  0.24239  0.86735  1.0000 -0.0898097695
C   C652      1.0  0.99774  0.75761  0.36735  1.0000 -0.0898097695
C   C653      1.0  0.13265  0.00226  0.25761  1.0000 -0.0898097695
C   C654      1.0  0.36735  0.99774  0.75761  1.0000 -0.0898097695
C   C655      1.0  0.63265  0.49774  0.74239  1.0000 -0.0898097695
C   C656      1.0  0.86735  0.50226  0.24239  1.0000 -0.0898097695
C   C657      1.0  0.25761  0.13265  0.00226  1.0000 -0.0898097695
C   C658      1.0  0.75761  0.36735  0.99774  1.0000 -0.0898097695
C   C659      1.0  0.74239  0.63265  0.49774  1.0000 -0.0898097695
C   C660      1.0  0.24239  0.86735  0.50226  1.0000 -0.0898097695
C   C661      1.0  0.99774  0.74239  0.86735  1.0000 -0.0898097695
C   C662      1.0  0.50226  0.25761  0.36735  1.0000 -0.0898097695
C   C663      1.0  0.49774  0.75761  0.13265  1.0000 -0.0898097695
C   C664      1.0  0.00226  0.24239  0.63265  1.0000 -0.0898097695
C   C665      1.0  0.86735  0.99774  0.74239  1.0000 -0.0898097695
C   C666      1.0  0.63265  0.00226  0.24239  1.0000 -0.0898097695
C   C667      1.0  0.36735  0.50226  0.25761  1.0000 -0.0898097695
C   C668      1.0  0.13265  0.49774  0.75761  1.0000 -0.0898097695
C   C669      1.0  0.74239  0.86735  0.99774  1.0000 -0.0898097695
C   C670      1.0  0.24239  0.63265  0.00226  1.0000 -0.0898097695
C   C671      1.0  0.25761  0.36735  0.50226  1.0000 -0.0898097695
C   C672      1.0  0.75761  0.13265  0.49774  1.0000 -0.0898097695
C   C673      1.0  0.10544  0.32066  0.10465  1.0000 0.169222348
C   C674      1.0  0.39456  0.67934  0.60465  1.0000 0.169222348
C   C675      1.0  0.60544  0.17934  0.89535  1.0000 0.169222348
C   C676      1.0  0.89456  0.82066  0.39535  1.0000 0.169222348
C   C677      1.0  0.10465  0.10544  0.32066  1.0000 0.169222348
C   C678      1.0  0.39535  0.89456  0.82066  1.0000 0.169222348
C   C679      1.0  0.60465  0.39456  0.67934  1.0000 0.169222348
C   C680      1.0  0.89535  0.60544  0.17934  1.0000 0.169222348
C   C681      1.0  0.32066  0.10465  0.10544  1.0000 0.169222348
C   C682      1.0  0.82066  0.39535  0.89456  1.0000 0.169222348
C   C683      1.0  0.67934  0.60465  0.39456  1.0000 0.169222348
C   C684      1.0  0.17934  0.89535  0.60544  1.0000 0.169222348
C   C685      1.0  0.89456  0.67934  0.89535  1.0000 0.169222348
C   C686      1.0  0.60544  0.32066  0.39535  1.0000 0.169222348
C   C687      1.0  0.39456  0.82066  0.10465  1.0000 0.169222348
C   C688      1.0  0.10544  0.17934  0.60465  1.0000 0.169222348
C   C689      1.0  0.89535  0.89456  0.67934  1.0000 0.169222348
C   C690      1.0  0.60465  0.10544  0.17934  1.0000 0.169222348
C   C691      1.0  0.39535  0.60544  0.32066  1.0000 0.169222348
C   C692      1.0  0.10465  0.39456  0.82066  1.0000 0.169222348
C   C693      1.0  0.67934  0.89535  0.89456  1.0000 0.169222348
C   C694      1.0  0.17934  0.60465  0.10544  1.0000 0.169222348
C   C695      1.0  0.32066  0.39535  0.60544  1.0000 0.169222348
C   C696      1.0  0.82066  0.10465  0.39456  1.0000 0.169222348
C   C697      1.0  0.11602  0.31950  0.14184  1.0000 -0.1682846275
C   C698      1.0  0.38398  0.68050  0.64184  1.0000 -0.1682846275
C   C699      1.0  0.61602  0.18050  0.85816  1.0000 -0.1682846275
C   C700      1.0  0.88398  0.81950  0.35816  1.0000 -0.1682846275
C   C701      1.0  0.14184  0.11602  0.31950  1.0000 -0.1682846275
C   C702      1.0  0.35816  0.88398  0.81950  1.0000 -0.1682846275
C   C703      1.0  0.64184  0.38398  0.68050  1.0000 -0.1682846275
C   C704      1.0  0.85816  0.61602  0.18050  1.0000 -0.1682846275
C   C705      1.0  0.31950  0.14184  0.11602  1.0000 -0.1682846275
C   C706      1.0  0.81950  0.35816  0.88398  1.0000 -0.1682846275
C   C707      1.0  0.68050  0.64184  0.38398  1.0000 -0.1682846275
C   C708      1.0  0.18050  0.85816  0.61602  1.0000 -0.1682846275
C   C709      1.0  0.88398  0.68050  0.85816  1.0000 -0.1682846275
C   C710      1.0  0.61602  0.31950  0.35816  1.0000 -0.1682846275
C   C711      1.0  0.38398  0.81950  0.14184  1.0000 -0.1682846275
C   C712      1.0  0.11602  0.18050  0.64184  1.0000 -0.1682846275
C   C713      1.0  0.85816  0.88398  0.68050  1.0000 -0.1682846275
C   C714      1.0  0.64184  0.11602  0.18050  1.0000 -0.1682846275
C   C715      1.0  0.35816  0.61602  0.31950  1.0000 -0.1682846275
C   C716      1.0  0.14184  0.38398  0.81950  1.0000 -0.1682846275
C   C717      1.0  0.68050  0.85816  0.88398  1.0000 -0.1682846275
C   C718      1.0  0.18050  0.64184  0.11602  1.0000 -0.1682846275
C   C719      1.0  0.31950  0.35816  0.61602  1.0000 -0.1682846275
C   C720      1.0  0.81950  0.14184  0.38398  1.0000 -0.1682846275
C   C721      1.0  0.13170  0.35047  0.15862  1.0000 -0.1263397247
C   C722      1.0  0.36830  0.64953  0.65862  1.0000 -0.1263397247
C   C723      1.0  0.63170  0.14953  0.84138  1.0000 -0.1263397247
C   C724      1.0  0.86830  0.85047  0.34138  1.0000 -0.1263397247
C   C725      1.0  0.15862  0.13170  0.35047  1.0000 -0.1263397247
C   C726      1.0  0.34138  0.86830  0.85047  1.0000 -0.1263397247
C   C727      1.0  0.65862  0.36830  0.64953  1.0000 -0.1263397247
C   C728      1.0  0.84138  0.63170  0.14953  1.0000 -0.1263397247
C   C729      1.0  0.35047  0.15862  0.13170  1.0000 -0.1263397247
C   C730      1.0  0.85047  0.34138  0.86830  1.0000 -0.1263397247
C   C731      1.0  0.64953  0.65862  0.36830  1.0000 -0.1263397247
C   C732      1.0  0.14953  0.84138  0.63170  1.0000 -0.1263397247
C   C733      1.0  0.86830  0.64953  0.84138  1.0000 -0.1263397247
C   C734      1.0  0.63170  0.35047  0.34138  1.0000 -0.1263397247
C   C735      1.0  0.36830  0.85047  0.15862  1.0000 -0.1263397247
C   C736      1.0  0.13170  0.14953  0.65862  1.0000 -0.1263397247
C   C737      1.0  0.84138  0.86830  0.64953  1.0000 -0.1263397247
C   C738      1.0  0.65862  0.13170  0.14953  1.0000 -0.1263397247
C   C739      1.0  0.34138  0.63170  0.35047  1.0000 -0.1263397247
C   C740      1.0  0.15862  0.36830  0.85047  1.0000 -0.1263397247
C   C741      1.0  0.64953  0.84138  0.86830  1.0000 -0.1263397247
C   C742      1.0  0.14953  0.65862  0.13170  1.0000 -0.1263397247
C   C743      1.0  0.35047  0.34138  0.63170  1.0000 -0.1263397247
C   C744      1.0  0.85047  0.15862  0.36830  1.0000 -0.1263397247
C   C745      1.0  0.13743  0.38325  0.13839  1.0000 0.0697136645
C   C746      1.0  0.36257  0.61675  0.63839  1.0000 0.0697136645
C   C747      1.0  0.63743  0.11675  0.86161  1.0000 0.0697136645
C   C748      1.0  0.86257  0.88325  0.36161  1.0000 0.0697136645
C   C749      1.0  0.13839  0.13743  0.38325  1.0000 0.0697136645
C   C750      1.0  0.36161  0.86257  0.88325  1.0000 0.0697136645
C   C751      1.0  0.63839  0.36257  0.61675  1.0000 0.0697136645
C   C752      1.0  0.86161  0.63743  0.11675  1.0000 0.0697136645
C   C753      1.0  0.38325  0.13839  0.13743  1.0000 0.0697136645
C   C754      1.0  0.88325  0.36161  0.86257  1.0000 0.0697136645
C   C755      1.0  0.61675  0.63839  0.36257  1.0000 0.0697136645
C   C756      1.0  0.11675  0.86161  0.63743  1.0000 0.0697136645
C   C757      1.0  0.86257  0.61675  0.86161  1.0000 0.0697136645
C   C758      1.0  0.63743  0.38325  0.36161  1.0000 0.0697136645
C   C759      1.0  0.36257  0.88325  0.13839  1.0000 0.0697136645
C   C760      1.0  0.13743  0.11675  0.63839  1.0000 0.0697136645
C   C761      1.0  0.86161  0.86257  0.61675  1.0000 0.0697136645
C   C762      1.0  0.63839  0.13743  0.11675  1.0000 0.0697136645
C   C763      1.0  0.36161  0.63743  0.38325  1.0000 0.0697136645
C   C764      1.0  0.13839  0.36257  0.88325  1.0000 0.0697136645
C   C765      1.0  0.61675  0.86161  0.86257  1.0000 0.0697136645
C   C766      1.0  0.11675  0.63839  0.13743  1.0000 0.0697136645
C   C767      1.0  0.38325  0.36161  0.63743  1.0000 0.0697136645
C   C768      1.0  0.88325  0.13839  0.36257  1.0000 0.0697136645
C   C769      1.0  0.12825  0.38361  0.10052  1.0000 -0.1423786361
C   C770      1.0  0.37175  0.61639  0.60052  1.0000 -0.1423786361
C   C771      1.0  0.62825  0.11639  0.89948  1.0000 -0.1423786361
C   C772      1.0  0.87175  0.88361  0.39948  1.0000 -0.1423786361
C   C773      1.0  0.10052  0.12825  0.38361  1.0000 -0.1423786361
C   C774      1.0  0.39948  0.87175  0.88361  1.0000 -0.1423786361
C   C775      1.0  0.60052  0.37175  0.61639  1.0000 -0.1423786361
C   C776      1.0  0.89948  0.62825  0.11639  1.0000 -0.1423786361
C   C777      1.0  0.38361  0.10052  0.12825  1.0000 -0.1423786361
C   C778      1.0  0.88361  0.39948  0.87175  1.0000 -0.1423786361
C   C779      1.0  0.61639  0.60052  0.37175  1.0000 -0.1423786361
C   C780      1.0  0.11639  0.89948  0.62825  1.0000 -0.1423786361
C   C781      1.0  0.87175  0.61639  0.89948  1.0000 -0.1423786361
C   C782      1.0  0.62825  0.38361  0.39948  1.0000 -0.1423786361
C   C783      1.0  0.37175  0.88361  0.10052  1.0000 -0.1423786361
C   C784      1.0  0.12825  0.11639  0.60052  1.0000 -0.1423786361
C   C785      1.0  0.89948  0.87175  0.61639  1.0000 -0.1423786361
C   C786      1.0  0.60052  0.12825  0.11639  1.0000 -0.1423786361
C   C787      1.0  0.39948  0.62825  0.38361  1.0000 -0.1423786361
C   C788      1.0  0.10052  0.37175  0.88361  1.0000 -0.1423786361
C   C789      1.0  0.61639  0.89948  0.87175  1.0000 -0.1423786361
C   C790      1.0  0.11639  0.60052  0.12825  1.0000 -0.1423786361
C   C791      1.0  0.38361  0.39948  0.62825  1.0000 -0.1423786361
C   C792      1.0  0.88361  0.10052  0.37175  1.0000 -0.1423786361
C   C793      1.0  0.11208  0.35264  0.08390  1.0000 -0.1574752875
C   C794      1.0  0.38792  0.64736  0.58390  1.0000 -0.1574752875
C   C795      1.0  0.61208  0.14736  0.91610  1.0000 -0.1574752875
C   C796      1.0  0.88792  0.85264  0.41610  1.0000 -0.1574752875
C   C797      1.0  0.08390  0.11208  0.35264  1.0000 -0.1574752875
C   C798      1.0  0.41610  0.88792  0.85264  1.0000 -0.1574752875
C   C799      1.0  0.58390  0.38792  0.64736  1.0000 -0.1574752875
C   C800      1.0  0.91610  0.61208  0.14736  1.0000 -0.1574752875
C   C801      1.0  0.35264  0.08390  0.11208  1.0000 -0.1574752875
C   C802      1.0  0.85264  0.41610  0.88792  1.0000 -0.1574752875
C   C803      1.0  0.64736  0.58390  0.38792  1.0000 -0.1574752875
C   C804      1.0  0.14736  0.91610  0.61208  1.0000 -0.1574752875
C   C805      1.0  0.88792  0.64736  0.91610  1.0000 -0.1574752875
C   C806      1.0  0.61208  0.35264  0.41610  1.0000 -0.1574752875
C   C807      1.0  0.38792  0.85264  0.08390  1.0000 -0.1574752875
C   C808      1.0  0.11208  0.14736  0.58390  1.0000 -0.1574752875
C   C809      1.0  0.91610  0.88792  0.64736  1.0000 -0.1574752875
C   C810      1.0  0.58390  0.11208  0.14736  1.0000 -0.1574752875
C   C811      1.0  0.41610  0.61208  0.35264  1.0000 -0.1574752875
C   C812      1.0  0.08390  0.38792  0.85264  1.0000 -0.1574752875
C   C813      1.0  0.64736  0.91610  0.88792  1.0000 -0.1574752875
C   C814      1.0  0.14736  0.58390  0.11208  1.0000 -0.1574752875
C   C815      1.0  0.35264  0.41610  0.61208  1.0000 -0.1574752875
C   C816      1.0  0.85264  0.08390  0.38792  1.0000 -0.1574752875
C   C817      1.0  0.16921  0.46766  0.21334  1.0000 0.169222348
C   C818      1.0  0.33079  0.53234  0.71334  1.0000 0.169222348
C   C819      1.0  0.66921  0.03234  0.78666  1.0000 0.169222348
C   C820      1.0  0.83079  0.96766  0.28666  1.0000 0.169222348
C   C821      1.0  0.21334  0.16921  0.46766  1.0000 0.169222348
C   C822      1.0  0.28666  0.83079  0.96766  1.0000 0.169222348
C   C823      1.0  0.71334  0.33079  0.53234  1.0000 0.169222348
C   C824      1.0  0.78666  0.66921  0.03234  1.0000 0.169222348
C   C825      1.0  0.46766  0.21334  0.16921  1.0000 0.169222348
C   C826      1.0  0.96766  0.28666  0.83079  1.0000 0.169222348
C   C827      1.0  0.53234  0.71334  0.33079  1.0000 0.169222348
C   C828      1.0  0.03234  0.78666  0.66921  1.0000 0.169222348
C   C829      1.0  0.83079  0.53234  0.78666  1.0000 0.169222348
C   C830      1.0  0.66921  0.46766  0.28666  1.0000 0.169222348
C   C831      1.0  0.33079  0.96766  0.21334  1.0000 0.169222348
C   C832      1.0  0.16921  0.03234  0.71334  1.0000 0.169222348
C   C833      1.0  0.78666  0.83079  0.53234  1.0000 0.169222348
C   C834      1.0  0.71334  0.16921  0.03234  1.0000 0.169222348
C   C835      1.0  0.28666  0.66921  0.46766  1.0000 0.169222348
C   C836      1.0  0.21334  0.33079  0.96766  1.0000 0.169222348
C   C837      1.0  0.53234  0.78666  0.83079  1.0000 0.169222348
C   C838      1.0  0.03234  0.71334  0.16921  1.0000 0.169222348
C   C839      1.0  0.46766  0.28666  0.66921  1.0000 0.169222348
C   C840      1.0  0.96766  0.21334  0.33079  1.0000 0.169222348
C   C841      1.0  0.13246  0.46509  0.20134  1.0000 -0.1682846275
C   C842      1.0  0.36754  0.53491  0.70134  1.0000 -0.1682846275
C   C843      1.0  0.63246  0.03491  0.79866  1.0000 -0.1682846275
C   C844      1.0  0.86754  0.96509  0.29866  1.0000 -0.1682846275
C   C845      1.0  0.20134  0.13246  0.46509  1.0000 -0.1682846275
C   C846      1.0  0.29866  0.86754  0.96509  1.0000 -0.1682846275
C   C847      1.0  0.70134  0.36754  0.53491  1.0000 -0.1682846275
C   C848      1.0  0.79866  0.63246  0.03491  1.0000 -0.1682846275
C   C849      1.0  0.46509  0.20134  0.13246  1.0000 -0.1682846275
C   C850      1.0  0.96509  0.29866  0.86754  1.0000 -0.1682846275
C   C851      1.0  0.53491  0.70134  0.36754  1.0000 -0.1682846275
C   C852      1.0  0.03491  0.79866  0.63246  1.0000 -0.1682846275
C   C853      1.0  0.86754  0.53491  0.79866  1.0000 -0.1682846275
C   C854      1.0  0.63246  0.46509  0.29866  1.0000 -0.1682846275
C   C855      1.0  0.36754  0.96509  0.20134  1.0000 -0.1682846275
C   C856      1.0  0.13246  0.03491  0.70134  1.0000 -0.1682846275
C   C857      1.0  0.79866  0.86754  0.53491  1.0000 -0.1682846275
C   C858      1.0  0.70134  0.13246  0.03491  1.0000 -0.1682846275
C   C859      1.0  0.29866  0.63246  0.46509  1.0000 -0.1682846275
C   C860      1.0  0.20134  0.36754  0.96509  1.0000 -0.1682846275
C   C861      1.0  0.53491  0.79866  0.86754  1.0000 -0.1682846275
C   C862      1.0  0.03491  0.70134  0.13246  1.0000 -0.1682846275
C   C863      1.0  0.46509  0.29866  0.63246  1.0000 -0.1682846275
C   C864      1.0  0.96509  0.20134  0.36754  1.0000 -0.1682846275
C   C865      1.0  0.12258  0.43973  0.17403  1.0000 -0.1263397247
C   C866      1.0  0.37742  0.56027  0.67403  1.0000 -0.1263397247
C   C867      1.0  0.62258  0.06027  0.82597  1.0000 -0.1263397247
C   C868      1.0  0.87742  0.93973  0.32597  1.0000 -0.1263397247
C   C869      1.0  0.17403  0.12258  0.43973  1.0000 -0.1263397247
C   C870      1.0  0.32597  0.87742  0.93973  1.0000 -0.1263397247
C   C871      1.0  0.67403  0.37742  0.56027  1.0000 -0.1263397247
C   C872      1.0  0.82597  0.62258  0.06027  1.0000 -0.1263397247
C   C873      1.0  0.43973  0.17403  0.12258  1.0000 -0.1263397247
C   C874      1.0  0.93973  0.32597  0.87742  1.0000 -0.1263397247
C   C875      1.0  0.56027  0.67403  0.37742  1.0000 -0.1263397247
C   C876      1.0  0.06027  0.82597  0.62258  1.0000 -0.1263397247
C   C877      1.0  0.87742  0.56027  0.82597  1.0000 -0.1263397247
C   C878      1.0  0.62258  0.43973  0.32597  1.0000 -0.1263397247
C   C879      1.0  0.37742  0.93973  0.17403  1.0000 -0.1263397247
C   C880      1.0  0.12258  0.06027  0.67403  1.0000 -0.1263397247
C   C881      1.0  0.82597  0.87742  0.56027  1.0000 -0.1263397247
C   C882      1.0  0.67403  0.12258  0.06027  1.0000 -0.1263397247
C   C883      1.0  0.32597  0.62258  0.43973  1.0000 -0.1263397247
C   C884      1.0  0.17403  0.37742  0.93973  1.0000 -0.1263397247
C   C885      1.0  0.56027  0.82597  0.87742  1.0000 -0.1263397247
C   C886      1.0  0.06027  0.67403  0.12258  1.0000 -0.1263397247
C   C887      1.0  0.43973  0.32597  0.62258  1.0000 -0.1263397247
C   C888      1.0  0.93973  0.17403  0.37742  1.0000 -0.1263397247
C   C889      1.0  0.14942  0.41667  0.15785  1.0000 0.0554273218
C   C890      1.0  0.35058  0.58333  0.65785  1.0000 0.0554273218
C   C891      1.0  0.64942  0.08333  0.84215  1.0000 0.0554273218
C   C892      1.0  0.85058  0.91667  0.34215  1.0000 0.0554273218
C   C893      1.0  0.15785  0.14942  0.41667  1.0000 0.0554273218
C   C894      1.0  0.34215  0.85058  0.91667  1.0000 0.0554273218
C   C895      1.0  0.65785  0.35058  0.58333  1.0000 0.0554273218
C   C896      1.0  0.84215  0.64942  0.08333  1.0000 0.0554273218
C   C897      1.0  0.41667  0.15785  0.14942  1.0000 0.0554273218
C   C898      1.0  0.91667  0.34215  0.85058  1.0000 0.0554273218
C   C899      1.0  0.58333  0.65785  0.35058  1.0000 0.0554273218
C   C900      1.0  0.08333  0.84215  0.64942  1.0000 0.0554273218
C   C901      1.0  0.85058  0.58333  0.84215  1.0000 0.0554273218
C   C902      1.0  0.64942  0.41667  0.34215  1.0000 0.0554273218
C   C903      1.0  0.35058  0.91667  0.15785  1.0000 0.0554273218
C   C904      1.0  0.14942  0.08333  0.65785  1.0000 0.0554273218
C   C905      1.0  0.84215  0.85058  0.58333  1.0000 0.0554273218
C   C906      1.0  0.65785  0.14942  0.08333  1.0000 0.0554273218
C   C907      1.0  0.34215  0.64942  0.41667  1.0000 0.0554273218
C   C908      1.0  0.15785  0.35058  0.91667  1.0000 0.0554273218
C   C909      1.0  0.58333  0.84215  0.85058  1.0000 0.0554273218
C   C910      1.0  0.08333  0.65785  0.14942  1.0000 0.0554273218
C   C911      1.0  0.41667  0.34215  0.64942  1.0000 0.0554273218
C   C912      1.0  0.91667  0.15785  0.35058  1.0000 0.0554273218
C   C913      1.0  0.18685  0.42245  0.16700  1.0000 -0.1205257679
C   C914      1.0  0.31315  0.57755  0.66700  1.0000 -0.1205257679
C   C915      1.0  0.68685  0.07755  0.83300  1.0000 -0.1205257679
C   C916      1.0  0.81315  0.92245  0.33300  1.0000 -0.1205257679
C   C917      1.0  0.16700  0.18685  0.42245  1.0000 -0.1205257679
C   C918      1.0  0.33300  0.81315  0.92245  1.0000 -0.1205257679
C   C919      1.0  0.66700  0.31315  0.57755  1.0000 -0.1205257679
C   C920      1.0  0.83300  0.68685  0.07755  1.0000 -0.1205257679
C   C921      1.0  0.42245  0.16700  0.18685  1.0000 -0.1205257679
C   C922      1.0  0.92245  0.33300  0.81315  1.0000 -0.1205257679
C   C923      1.0  0.57755  0.66700  0.31315  1.0000 -0.1205257679
C   C924      1.0  0.07755  0.83300  0.68685  1.0000 -0.1205257679
C   C925      1.0  0.81315  0.57755  0.83300  1.0000 -0.1205257679
C   C926      1.0  0.68685  0.42245  0.33300  1.0000 -0.1205257679
C   C927      1.0  0.31315  0.92245  0.16700  1.0000 -0.1205257679
C   C928      1.0  0.18685  0.07755  0.66700  1.0000 -0.1205257679
C   C929      1.0  0.83300  0.81315  0.57755  1.0000 -0.1205257679
C   C930      1.0  0.66700  0.18685  0.07755  1.0000 -0.1205257679
C   C931      1.0  0.33300  0.68685  0.42245  1.0000 -0.1205257679
C   C932      1.0  0.16700  0.31315  0.92245  1.0000 -0.1205257679
C   C933      1.0  0.57755  0.83300  0.81315  1.0000 -0.1205257679
C   C934      1.0  0.07755  0.66700  0.18685  1.0000 -0.1205257679
C   C935      1.0  0.42245  0.33300  0.68685  1.0000 -0.1205257679
C   C936      1.0  0.92245  0.16700  0.31315  1.0000 -0.1205257679
C   C937      1.0  0.19655  0.44738  0.19489  1.0000 -0.1682846275
C   C938      1.0  0.30345  0.55262  0.69489  1.0000 -0.1682846275
C   C939      1.0  0.69655  0.05262  0.80511  1.0000 -0.1682846275
C   C940      1.0  0.80345  0.94738  0.30511  1.0000 -0.1682846275
C   C941      1.0  0.19489  0.19655  0.44738  1.0000 -0.1682846275
C   C942      1.0  0.30511  0.80345  0.94738  1.0000 -0.1682846275
C   C943      1.0  0.69489  0.30345  0.55262  1.0000 -0.1682846275
C   C944      1.0  0.80511  0.69655  0.05262  1.0000 -0.1682846275
C   C945      1.0  0.44738  0.19489  0.19655  1.0000 -0.1682846275
C   C946      1.0  0.94738  0.30511  0.80345  1.0000 -0.1682846275
C   C947      1.0  0.55262  0.69489  0.30345  1.0000 -0.1682846275
C   C948      1.0  0.05262  0.80511  0.69655  1.0000 -0.1682846275
C   C949      1.0  0.80345  0.55262  0.80511  1.0000 -0.1682846275
C   C950      1.0  0.69655  0.44738  0.30511  1.0000 -0.1682846275
C   C951      1.0  0.30345  0.94738  0.19489  1.0000 -0.1682846275
C   C952      1.0  0.19655  0.05262  0.69489  1.0000 -0.1682846275
C   C953      1.0  0.80511  0.80345  0.55262  1.0000 -0.1682846275
C   C954      1.0  0.69489  0.19655  0.05262  1.0000 -0.1682846275
C   C955      1.0  0.30511  0.69655  0.44738  1.0000 -0.1682846275
C   C956      1.0  0.19489  0.30345  0.94738  1.0000 -0.1682846275
C   C957      1.0  0.55262  0.80511  0.80345  1.0000 -0.1682846275
C   C958      1.0  0.05262  0.69489  0.19655  1.0000 -0.1682846275
C   C959      1.0  0.44738  0.30511  0.69655  1.0000 -0.1682846275
C   C960      1.0  0.94738  0.19489  0.30345  1.0000 -0.1682846275
N   N1        1.0  0.17605  0.48127  0.25006  1.0000 -0.0898097695
N   N2        1.0  0.32395  0.51873  0.75006  1.0000 -0.0898097695
N   N3        1.0  0.67605  0.01873  0.74994  1.0000 -0.0898097695
N   N4        1.0  0.82395  0.98127  0.24994  1.0000 -0.0898097695
N   N5        1.0  0.25006  0.17605  0.48127  1.0000 -0.0898097695
N   N6        1.0  0.24994  0.82395  0.98127  1.0000 -0.0898097695
N   N7        1.0  0.75006  0.32395  0.51873  1.0000 -0.0898097695
N   N8        1.0  0.74994  0.67605  0.01873  1.0000 -0.0898097695
N   N9        1.0  0.48127  0.25006  0.17605  1.0000 -0.0898097695
N   N10       1.0  0.98127  0.24994  0.82395  1.0000 -0.0898097695
N   N11       1.0  0.51873  0.75006  0.32395  1.0000 -0.0898097695
N   N12       1.0  0.01873  0.74994  0.67605  1.0000 -0.0898097695
N   N13       1.0  0.82395  0.51873  0.74994  1.0000 -0.0898097695
N   N14       1.0  0.67605  0.48127  0.24994  1.0000 -0.0898097695
N   N15       1.0  0.32395  0.98127  0.25006  1.0000 -0.0898097695
N   N16       1.0  0.17605  0.01873  0.75006  1.0000 -0.0898097695
N   N17       1.0  0.74994  0.82395  0.51873  1.0000 -0.0898097695
N   N18       1.0  0.75006  0.17605  0.01873  1.0000 -0.0898097695
N   N19       1.0  0.24994  0.67605  0.48127  1.0000 -0.0898097695
N   N20       1.0  0.25006  0.32395  0.98127  1.0000 -0.0898097695
N   N21       1.0  0.51873  0.74994  0.82395  1.0000 -0.0898097695
N   N22       1.0  0.01873  0.75006  0.17605  1.0000 -0.0898097695
N   N23       1.0  0.48127  0.24994  0.67605  1.0000 -0.0898097695
N   N24       1.0  0.98127  0.25006  0.32395  1.0000 -0.0898097695
N   N25       1.0  0.08879  0.28896  0.08779  1.0000 -0.1006244686
N   N26       1.0  0.41121  0.71104  0.58779  1.0000 -0.1006244686
N   N27       1.0  0.58879  0.21104  0.91221  1.0000 -0.1006244686
N   N28       1.0  0.91121  0.78896  0.41221  1.0000 -0.1006244686
N   N29       1.0  0.08779  0.08879  0.28896  1.0000 -0.1006244686
N   N30       1.0  0.41221  0.91121  0.78896  1.0000 -0.1006244686
N   N31       1.0  0.58779  0.41121  0.71104  1.0000 -0.1006244686
N   N32       1.0  0.91221  0.58879  0.21104  1.0000 -0.1006244686
N   N33       1.0  0.28896  0.08779  0.08879  1.0000 -0.1006244686
N   N34       1.0  0.78896  0.41221  0.91121  1.0000 -0.1006244686
N   N35       1.0  0.71104  0.58779  0.41121  1.0000 -0.1006244686
N   N36       1.0  0.21104  0.91221  0.58879  1.0000 -0.1006244686
N   N37       1.0  0.91121  0.71104  0.91221  1.0000 -0.1006244686
N   N38       1.0  0.58879  0.28896  0.41221  1.0000 -0.1006244686
N   N39       1.0  0.41121  0.78896  0.08779  1.0000 -0.1006244686
N   N40       1.0  0.08879  0.21104  0.58779  1.0000 -0.1006244686
N   N41       1.0  0.91221  0.91121  0.71104  1.0000 -0.1006244686
N   N42       1.0  0.58779  0.08879  0.21104  1.0000 -0.1006244686
N   N43       1.0  0.41221  0.58879  0.28896  1.0000 -0.1006244686
N   N44       1.0  0.08779  0.41121  0.78896  1.0000 -0.1006244686
N   N45       1.0  0.71104  0.91221  0.91121  1.0000 -0.1006244686
N   N46       1.0  0.21104  0.58779  0.08879  1.0000 -0.1006244686
N   N47       1.0  0.28896  0.41221  0.58879  1.0000 -0.1006244686
N   N48       1.0  0.78896  0.08779  0.41121  1.0000 -0.1006244686
O   O1        1.0  0.11019  0.63401  0.30952  1.0000 -0.5120642243
O   O2        1.0  0.38981  0.36599  0.80952  1.0000 -0.5120642243
O   O3        1.0  0.61019  0.86599  0.69048  1.0000 -0.5120642243
O   O4        1.0  0.88981  0.13401  0.19048  1.0000 -0.5120642243
O   O5        1.0  0.30952  0.11019  0.63401  1.0000 -0.5120642243
O   O6        1.0  0.19048  0.88981  0.13401  1.0000 -0.5120642243
O   O7        1.0  0.80952  0.38981  0.36599  1.0000 -0.5120642243
O   O8        1.0  0.69048  0.61019  0.86599  1.0000 -0.5120642243
O   O9        1.0  0.63401  0.30952  0.11019  1.0000 -0.5120642243
O   O10       1.0  0.13401  0.19048  0.88981  1.0000 -0.5120642243
O   O11       1.0  0.36599  0.80952  0.38981  1.0000 -0.5120642243
O   O12       1.0  0.86599  0.69048  0.61019  1.0000 -0.5120642243
O   O13       1.0  0.88981  0.36599  0.69048  1.0000 -0.5120642243
O   O14       1.0  0.61019  0.63401  0.19048  1.0000 -0.5120642243
O   O15       1.0  0.38981  0.13401  0.30952  1.0000 -0.5120642243
O   O16       1.0  0.11019  0.86599  0.80952  1.0000 -0.5120642243
O   O17       1.0  0.69048  0.88981  0.36599  1.0000 -0.5120642243
O   O18       1.0  0.80952  0.11019  0.86599  1.0000 -0.5120642243
O   O19       1.0  0.19048  0.61019  0.63401  1.0000 -0.5120642243
O   O20       1.0  0.30952  0.38981  0.13401  1.0000 -0.5120642243
O   O21       1.0  0.36599  0.69048  0.88981  1.0000 -0.5120642243
O   O22       1.0  0.86599  0.80952  0.11019  1.0000 -0.5120642243
O   O23       1.0  0.63401  0.19048  0.61019  1.0000 -0.5120642243
O   O24       1.0  0.13401  0.30952  0.38981  1.0000 -0.5120642243
O   O25       1.0  0.09280  0.59429  0.35235  1.0000 -0.5014835718
O   O26       1.0  0.40720  0.40571  0.85235  1.0000 -0.5014835718
O   O27       1.0  0.59280  0.90571  0.64765  1.0000 -0.5014835718
O   O28       1.0  0.90720  0.09429  0.14765  1.0000 -0.5014835718
O   O29       1.0  0.35235  0.09280  0.59429  1.0000 -0.5014835718
O   O30       1.0  0.14765  0.90720  0.09429  1.0000 -0.5014835718
O   O31       1.0  0.85235  0.40720  0.40571  1.0000 -0.5014835718
O   O32       1.0  0.64765  0.59280  0.90571  1.0000 -0.5014835718
O   O33       1.0  0.59429  0.35235  0.09280  1.0000 -0.5014835718
O   O34       1.0  0.09429  0.14765  0.90720  1.0000 -0.5014835718
O   O35       1.0  0.40571  0.85235  0.40720  1.0000 -0.5014835718
O   O36       1.0  0.90571  0.64765  0.59280  1.0000 -0.5014835718
O   O37       1.0  0.90720  0.40571  0.64765  1.0000 -0.5014835718
O   O38       1.0  0.59280  0.59429  0.14765  1.0000 -0.5014835718
O   O39       1.0  0.40720  0.09429  0.35235  1.0000 -0.5014835718
O   O40       1.0  0.09280  0.90571  0.85235  1.0000 -0.5014835718
O   O41       1.0  0.64765  0.90720  0.40571  1.0000 -0.5014835718
O   O42       1.0  0.85235  0.09280  0.90571  1.0000 -0.5014835718
O   O43       1.0  0.14765  0.59280  0.59429  1.0000 -0.5014835718
O   O44       1.0  0.35235  0.40720  0.09429  1.0000 -0.5014835718
O   O45       1.0  0.40571  0.64765  0.90720  1.0000 -0.5014835718
O   O46       1.0  0.90571  0.85235  0.09280  1.0000 -0.5014835718
O   O47       1.0  0.59429  0.14765  0.59280  1.0000 -0.5014835718
O   O48       1.0  0.09429  0.35235  0.40720  1.0000 -0.5014835718
O   O49       1.0  0.94488  0.20613  0.14711  1.0000 -0.5120642243
O   O50       1.0  0.55512  0.79387  0.64711  1.0000 -0.5120642243
O   O51       1.0  0.44488  0.29387  0.85289  1.0000 -0.5120642243
O   O52       1.0  0.05512  0.70613  0.35289  1.0000 -0.5120642243
O   O53       1.0  0.14711  0.94488  0.20613  1.0000 -0.5120642243
O   O54       1.0  0.35289  0.05512  0.70613  1.0000 -0.5120642243
O   O55       1.0  0.64711  0.55512  0.79387  1.0000 -0.5120642243
O   O56       1.0  0.85289  0.44488  0.29387  1.0000 -0.5120642243
O   O57       1.0  0.20613  0.14711  0.94488  1.0000 -0.5120642243
O   O58       1.0  0.70613  0.35289  0.05512  1.0000 -0.5120642243
O   O59       1.0  0.79387  0.64711  0.55512  1.0000 -0.5120642243
O   O60       1.0  0.29387  0.85289  0.44488  1.0000 -0.5120642243
O   O61       1.0  0.05512  0.79387  0.85289  1.0000 -0.5120642243
O   O62       1.0  0.44488  0.20613  0.35289  1.0000 -0.5120642243
O   O63       1.0  0.55512  0.70613  0.14711  1.0000 -0.5120642243
O   O64       1.0  0.94488  0.29387  0.64711  1.0000 -0.5154974967
O   O65       1.0  0.85289  0.05512  0.79387  1.0000 -0.5120642243
O   O66       1.0  0.64711  0.94488  0.29387  1.0000 -0.5154974967
O   O67       1.0  0.35289  0.44488  0.20613  1.0000 -0.5120642243
O   O68       1.0  0.14711  0.55512  0.70613  1.0000 -0.5120642243
O   O69       1.0  0.79387  0.85289  0.05512  1.0000 -0.5120642243
O   O70       1.0  0.29387  0.64711  0.94488  1.0000 -0.5154974967
O   O71       1.0  0.20613  0.35289  0.44488  1.0000 -0.5120642243
O   O72       1.0  0.70613  0.14711  0.55512  1.0000 -0.5120642243
O   O73       1.0  0.96954  0.16510  0.10944  1.0000 -0.5014835718
O   O74       1.0  0.53046  0.83490  0.60944  1.0000 -0.5014835718
O   O75       1.0  0.46954  0.33490  0.89056  1.0000 -0.5014835718
O   O76       1.0  0.03046  0.66510  0.39056  1.0000 -0.5014835718
O   O77       1.0  0.10944  0.96954  0.16510  1.0000 -0.5014835718
O   O78       1.0  0.39056  0.03046  0.66510  1.0000 -0.5014835718
O   O79       1.0  0.60944  0.53046  0.83490  1.0000 -0.5014835718
O   O80       1.0  0.89056  0.46954  0.33490  1.0000 -0.5014835718
O   O81       1.0  0.16510  0.10944  0.96954  1.0000 -0.5014835718
O   O82       1.0  0.66510  0.39056  0.03046  1.0000 -0.5014835718
O   O83       1.0  0.83490  0.60944  0.53046  1.0000 -0.5014835718
O   O84       1.0  0.33490  0.89056  0.46954  1.0000 -0.5014835718
O   O85       1.0  0.03046  0.83490  0.89056  1.0000 -0.5014835718
O   O86       1.0  0.46954  0.16510  0.39056  1.0000 -0.5014835718
O   O87       1.0  0.53046  0.66510  0.10944  1.0000 -0.5014835718
O   O88       1.0  0.96954  0.33490  0.60944  1.0000 -0.5014835718
O   O89       1.0  0.89056  0.03046  0.83490  1.0000 -0.5014835718
O   O90       1.0  0.60944  0.96954  0.33490  1.0000 -0.5014835718
O   O91       1.0  0.39056  0.46954  0.16510  1.0000 -0.5014835718
O   O92       1.0  0.10944  0.53046  0.66510  1.0000 -0.5014835718
O   O93       1.0  0.83490  0.89056  0.03046  1.0000 -0.5014835718
O   O94       1.0  0.33490  0.60944  0.96954  1.0000 -0.5014835718
O   O95       1.0  0.16510  0.39056  0.46954  1.0000 -0.5014835718
O   O96       1.0  0.66510  0.10944  0.53046  1.0000 -0.5014835718
O   O97       1.0  0.18058  0.36218  0.37908  1.0000 -0.4898263537
O   O98       1.0  0.31942  0.63782  0.87908  1.0000 -0.4898263537
O   O99       1.0  0.68058  0.13782  0.62092  1.0000 -0.4898263537
O   O100      1.0  0.81942  0.86218  0.12092  1.0000 -0.4898263537
O   O101      1.0  0.37908  0.18058  0.36218  1.0000 -0.4898263537
O   O102      1.0  0.12092  0.81942  0.86218  1.0000 -0.4898263537
O   O103      1.0  0.87908  0.31942  0.63782  1.0000 -0.4898263537
O   O104      1.0  0.62092  0.68058  0.13782  1.0000 -0.4898263537
O   O105      1.0  0.36218  0.37908  0.18058  1.0000 -0.4898263537
O   O106      1.0  0.86218  0.12092  0.81942  1.0000 -0.4898263537
O   O107      1.0  0.63782  0.87908  0.31942  1.0000 -0.4898263537
O   O108      1.0  0.13782  0.62092  0.68058  1.0000 -0.4898263537
O   O109      1.0  0.81942  0.63782  0.62092  1.0000 -0.4898263537
O   O110      1.0  0.68058  0.36218  0.12092  1.0000 -0.4898263537
O   O111      1.0  0.31942  0.86218  0.37908  1.0000 -0.4898263537
O   O112      1.0  0.18058  0.13782  0.87908  1.0000 -0.4898263537
O   O113      1.0  0.62092  0.81942  0.63782  1.0000 -0.4898263537
O   O114      1.0  0.87908  0.18058  0.13782  1.0000 -0.4898263537
O   O115      1.0  0.12092  0.68058  0.36218  1.0000 -0.4898263537
O   O116      1.0  0.37908  0.31942  0.86218  1.0000 -0.4898263537
O   O117      1.0  0.63782  0.62092  0.81942  1.0000 -0.4898263537
O   O118      1.0  0.13782  0.87908  0.18058  1.0000 -0.4898263537
O   O119      1.0  0.36218  0.12092  0.68058  1.0000 -0.4898263537
O   O120      1.0  0.86218  0.37908  0.31942  1.0000 -0.4898263537
O   O121      1.0  0.14399  0.40512  0.40230  1.0000 -0.5014835718
O   O122      1.0  0.35601  0.59488  0.90230  1.0000 -0.5014835718
O   O123      1.0  0.64399  0.09488  0.59770  1.0000 -0.5014835718
O   O124      1.0  0.85601  0.90512  0.09770  1.0000 -0.5014835718
O   O125      1.0  0.40230  0.14399  0.40512  1.0000 -0.5014835718
O   O126      1.0  0.09770  0.85601  0.90512  1.0000 -0.5014835718
O   O127      1.0  0.90230  0.35601  0.59488  1.0000 -0.5014835718
O   O128      1.0  0.59770  0.64399  0.09488  1.0000 -0.5014835718
O   O129      1.0  0.40512  0.40230  0.14399  1.0000 -0.5014835718
O   O130      1.0  0.90512  0.09770  0.85601  1.0000 -0.5014835718
O   O131      1.0  0.59488  0.90230  0.35601  1.0000 -0.5014835718
O   O132      1.0  0.09488  0.59770  0.64399  1.0000 -0.5014835718
O   O133      1.0  0.85601  0.59488  0.59770  1.0000 -0.5014835718
O   O134      1.0  0.64399  0.40512  0.09770  1.0000 -0.5014835718
O   O135      1.0  0.35601  0.90512  0.40230  1.0000 -0.5014835718
O   O136      1.0  0.14399  0.09488  0.90230  1.0000 -0.5014835718
O   O137      1.0  0.59770  0.85601  0.59488  1.0000 -0.5014835718
O   O138      1.0  0.90230  0.14399  0.09488  1.0000 -0.5014835718
O   O139      1.0  0.09770  0.64399  0.40512  1.0000 -0.5014835718
O   O140      1.0  0.40230  0.35601  0.90512  1.0000 -0.5014835718
O   O141      1.0  0.59488  0.59770  0.85601  1.0000 -0.5014835718
O   O142      1.0  0.09488  0.90230  0.14399  1.0000 -0.5014835718
O   O143      1.0  0.40512  0.09770  0.64399  1.0000 -0.5014835718
O   O144      1.0  0.90512  0.40230  0.35601  1.0000 -0.5014835718
O   O145      1.0  0.15956  0.19914  0.95471  1.0000 -0.5120642243
O   O146      1.0  0.34044  0.80086  0.45471  1.0000 -0.5120642243
O   O147      1.0  0.65956  0.30086  0.04529  1.0000 -0.5154974967
O   O148      1.0  0.84044  0.69914  0.54529  1.0000 -0.5120642243
O   O149      1.0  0.95471  0.15956  0.19914  1.0000 -0.5154974967
O   O150      1.0  0.54529  0.84044  0.69914  1.0000 -0.5120642243
O   O151      1.0  0.45471  0.34044  0.80086  1.0000 -0.5120642243
O   O152      1.0  0.04529  0.65956  0.30086  1.0000 -0.5154974967
O   O153      1.0  0.19914  0.95471  0.15956  1.0000 -0.5154974967
O   O154      1.0  0.69914  0.54529  0.84044  1.0000 -0.5120642243
O   O155      1.0  0.80086  0.45471  0.34044  1.0000 -0.5120642243
O   O156      1.0  0.30086  0.04529  0.65956  1.0000 -0.5154974967
O   O157      1.0  0.84044  0.80086  0.04529  1.0000 -0.5120642243
O   O158      1.0  0.65956  0.19914  0.54529  1.0000 -0.5120642243
O   O159      1.0  0.34044  0.69914  0.95471  1.0000 -0.5120642243
O   O160      1.0  0.15956  0.30086  0.45471  1.0000 -0.5154974967
O   O161      1.0  0.04529  0.84044  0.80086  1.0000 -0.5120642243
O   O162      1.0  0.45471  0.15956  0.30086  1.0000 -0.5154974967
O   O163      1.0  0.54529  0.65956  0.19914  1.0000 -0.5120642243
O   O164      1.0  0.95471  0.34044  0.69914  1.0000 -0.5120642243
O   O165      1.0  0.80086  0.04529  0.84044  1.0000 -0.5120642243
O   O166      1.0  0.30086  0.45471  0.15956  1.0000 -0.5154974967
O   O167      1.0  0.19914  0.54529  0.65956  1.0000 -0.5120642243
O   O168      1.0  0.69914  0.95471  0.34044  1.0000 -0.5120642243
O   O169      1.0  0.11543  0.16086  0.97221  1.0000 -0.5014835718
O   O170      1.0  0.38457  0.83914  0.47221  1.0000 -0.5014835718
O   O171      1.0  0.61543  0.33914  0.02779  1.0000 -0.5014835718
O   O172      1.0  0.88457  0.66086  0.52779  1.0000 -0.5014835718
O   O173      1.0  0.97221  0.11543  0.16086  1.0000 -0.5014835718
O   O174      1.0  0.52779  0.88457  0.66086  1.0000 -0.5014835718
O   O175      1.0  0.47221  0.38457  0.83914  1.0000 -0.5014835718
O   O176      1.0  0.02779  0.61543  0.33914  1.0000 -0.5014835718
O   O177      1.0  0.16086  0.97221  0.11543  1.0000 -0.5014835718
O   O178      1.0  0.66086  0.52779  0.88457  1.0000 -0.5014835718
O   O179      1.0  0.83914  0.47221  0.38457  1.0000 -0.5014835718
O   O180      1.0  0.33914  0.02779  0.61543  1.0000 -0.5014835718
O   O181      1.0  0.88457  0.83914  0.02779  1.0000 -0.5014835718
O   O182      1.0  0.61543  0.16086  0.52779  1.0000 -0.5014835718
O   O183      1.0  0.38457  0.66086  0.97221  1.0000 -0.5014835718
O   O184      1.0  0.11543  0.33914  0.47221  1.0000 -0.5014835718
O   O185      1.0  0.02779  0.88457  0.83914  1.0000 -0.5014835718
O   O186      1.0  0.47221  0.11543  0.33914  1.0000 -0.5014835718
O   O187      1.0  0.52779  0.61543  0.16086  1.0000 -0.5014835718
O   O188      1.0  0.97221  0.38457  0.66086  1.0000 -0.5014835718
O   O189      1.0  0.83914  0.02779  0.88457  1.0000 -0.5014835718
O   O190      1.0  0.33914  0.47221  0.11543  1.0000 -0.5014835718
O   O191      1.0  0.16086  0.52779  0.61543  1.0000 -0.5014835718
O   O192      1.0  0.66086  0.97221  0.38457  1.0000 -0.5014835718
