# DDEC6 charges by PACMAN v1.1 (https://github.com/mtap-research/PACMAN-charge/)
data_2016[Pr][nan]3[ASR]1
_chemical_formula_sum              "Pr4 H48 C84 O24"
_cell_length_a       28.896
_cell_length_b       8.6749
_cell_length_c       14.2513
_cell_angle_alpha    90
_cell_angle_beta     116.056
_cell_angle_gamma    90

_symmetry_space_group_name_H-M    "P 1"
_symmetry_Int_Tables_number       1

loop_
  _symmetry_equiv_pos_as_xyz
  'x, y, z'

loop_
  _atom_site_type_symbol
  _atom_site_label
  _atom_site_symmetry_multiplicity
  _atom_site_fract_x
  _atom_site_fract_y
  _atom_site_fract_z
  _atom_site_occupancy
  _atom_site_charge
Pr  Pr1       1.0  0.73067  0.60263  0.48998  1.0000 2.1635132788
Pr  Pr2       1.0  0.26933  0.60263  0.51002  1.0000 2.1635132788
Pr  Pr3       1.0  0.23067  0.10263  0.48998  1.0000 2.1635132788
Pr  Pr4       1.0  0.76933  0.10263  0.51002  1.0000 2.1635132788
H   H1        1.0  0.89031  0.52095  0.76944  1.0000 0.1091746883
H   H2        1.0  0.10969  0.52095  0.23056  1.0000 0.1091746883
H   H3        1.0  0.39031  0.02095  0.76944  1.0000 0.1091746883
H   H4        1.0  0.60969  0.02095  0.23056  1.0000 0.1091746883
H   H5        1.0  0.97007  0.51631  0.93413  1.0000 0.0907680469
H   H6        1.0  0.02993  0.51631  0.06587  1.0000 0.0907680469
H   H7        1.0  0.47007  0.01631  0.93413  1.0000 0.0907680469
H   H8        1.0  0.52993  0.01631  0.06587  1.0000 0.0907680469
H   H9        1.0  0.96946  0.01894  0.93778  1.0000 0.0907680469
H   H10       1.0  0.03054  0.01894  0.06222  1.0000 0.0907680469
H   H11       1.0  0.46946  0.51894  0.93778  1.0000 0.0907680469
H   H12       1.0  0.53054  0.51894  0.06222  1.0000 0.0907680469
H   H13       1.0  0.88835  0.01635  0.77200  1.0000 0.1161289571
H   H14       1.0  0.11165  0.01635  0.22800  1.0000 0.1161289571
H   H15       1.0  0.38835  0.51635  0.77200  1.0000 0.1161289571
H   H16       1.0  0.61165  0.51635  0.22800  1.0000 0.1161289571
H   H17       1.0  0.83331  0.19982  0.30158  1.0000 0.1091746883
H   H18       1.0  0.16669  0.19982  0.69842  1.0000 0.1091746883
H   H19       1.0  0.33333  0.69982  0.30158  1.0000 0.1091746883
H   H20       1.0  0.66667  0.69982  0.69842  1.0000 0.1091746883
H   H21       1.0  0.84375  0.19092  0.13574  1.0000 0.0993793628
H   H22       1.0  0.15625  0.19092  0.86426  1.0000 0.0993793628
H   H23       1.0  0.34375  0.69092  0.13574  1.0000 0.0993793628
H   H24       1.0  0.65625  0.69092  0.86426  1.0000 0.0993793628
H   H25       1.0  0.76395  0.63034  0.04504  1.0000 0.0993793628
H   H26       1.0  0.23605  0.63034  0.95496  1.0000 0.0993793628
H   H27       1.0  0.26395  0.13034  0.04504  1.0000 0.0993793628
H   H28       1.0  0.73605  0.13034  0.95496  1.0000 0.0993793628
H   H29       1.0  0.75565  0.63569  0.21198  1.0000 0.0993793628
H   H30       1.0  0.24435  0.63569  0.78802  1.0000 0.0993793628
H   H31       1.0  0.25565  0.13569  0.21198  1.0000 0.0993793628
H   H32       1.0  0.74435  0.13569  0.78802  1.0000 0.0993793628
H   H33       1.0  0.76399  0.99619  0.27943  1.0000 0.0993793628
H   H34       1.0  0.23601  0.99619  0.72057  1.0000 0.0993793628
H   H35       1.0  0.26399  0.49619  0.27943  1.0000 0.0993793628
H   H36       1.0  0.73601  0.49619  0.72057  1.0000 0.0993793628
H   H37       1.0  0.76400  0.03011  0.10760  1.0000 0.0993793628
H   H38       1.0  0.23600  0.03011  0.89240  1.0000 0.0993793628
H   H39       1.0  0.26400  0.53011  0.10760  1.0000 0.0993793628
H   H40       1.0  0.73600  0.53011  0.89240  1.0000 0.0993793628
H   H41       1.0  0.62176  0.76893  0.96229  1.0000 0.0993793628
H   H42       1.0  0.37824  0.76893  0.03771  1.0000 0.0993793628
H   H43       1.0  0.12176  0.26893  0.96229  1.0000 0.0993793628
H   H44       1.0  0.87824  0.26893  0.03771  1.0000 0.0993793628
H   H45       1.0  0.62394  0.73066  0.13814  1.0000 0.1091746883
H   H46       1.0  0.37606  0.73066  0.86186  1.0000 0.1091746883
H   H47       1.0  0.12394  0.23066  0.13814  1.0000 0.1091746883
H   H48       1.0  0.87606  0.23066  0.86186  1.0000 0.1091746883
C   C1        1.0  0.83752  0.77249  0.66205  1.0000 0.6590385496
C   C2        1.0  0.16248  0.77249  0.33795  1.0000 0.6590385496
C   C3        1.0  0.33752  0.27249  0.66205  1.0000 0.6590385496
C   C4        1.0  0.66248  0.27249  0.33795  1.0000 0.6590385496
C   C5        1.0  0.88463  0.76961  0.76298  1.0000 -0.0447670089
C   C6        1.0  0.11537  0.76961  0.23702  1.0000 -0.0447670089
C   C7        1.0  0.38463  0.26961  0.76298  1.0000 -0.0447670089
C   C8        1.0  0.61537  0.26961  0.23702  1.0000 -0.0447670089
C   C9        1.0  0.90756  0.62931  0.80821  1.0000 -0.0812537547
C   C10       1.0  0.09244  0.62931  0.19179  1.0000 -0.0812537547
C   C11       1.0  0.40756  0.12931  0.80821  1.0000 -0.0812537547
C   C12       1.0  0.59244  0.12931  0.19179  1.0000 -0.0812537547
C   C13       1.0  0.95272  0.62807  0.90106  1.0000 -0.1306060889
C   C14       1.0  0.04728  0.62807  0.09894  1.0000 -0.1306060889
C   C15       1.0  0.45272  0.12807  0.90106  1.0000 -0.1306060889
C   C16       1.0  0.54728  0.12807  0.09894  1.0000 -0.1306060889
C   C17       1.0  0.97607  0.76784  0.95089  1.0000 0.0732003111
C   C18       1.0  0.02393  0.76784  0.04911  1.0000 0.0732003111
C   C19       1.0  0.47607  0.26784  0.95089  1.0000 0.0732003111
C   C20       1.0  0.52393  0.26784  0.04911  1.0000 0.0732003111
C   C21       1.0  0.95216  0.90824  0.90308  1.0000 -0.1306060889
C   C22       1.0  0.04784  0.90824  0.09692  1.0000 -0.1306060889
C   C23       1.0  0.45216  0.40824  0.90308  1.0000 -0.1306060889
C   C24       1.0  0.54784  0.40824  0.09692  1.0000 -0.1306060889
C   C25       1.0  0.90701  0.90893  0.81050  1.0000 -0.0812537547
C   C26       1.0  0.09299  0.90893  0.18950  1.0000 -0.0812537547
C   C27       1.0  0.40701  0.40893  0.81050  1.0000 -0.0812537547
C   C28       1.0  0.59299  0.40893  0.18950  1.0000 -0.0812537547
C   C29       1.0  0.78721  0.41219  0.36268  1.0000 0.6590385496
C   C30       1.0  0.21279  0.41219  0.63732  1.0000 0.6590385496
C   C31       1.0  0.28721  0.91219  0.36268  1.0000 0.6590385496
C   C32       1.0  0.71279  0.91219  0.63732  1.0000 0.6590385496
C   C33       1.0  0.79367  0.41547  0.26509  1.0000 -0.0510675886
C   C34       1.0  0.20633  0.41547  0.73491  1.0000 -0.0510675886
C   C35       1.0  0.29367  0.91547  0.26509  1.0000 -0.0510675886
C   C36       1.0  0.70633  0.91547  0.73491  1.0000 -0.0510675886
C   C37       1.0  0.81901  0.29302  0.24390  1.0000 -0.0812537547
C   C38       1.0  0.18099  0.29302  0.75610  1.0000 -0.0812537547
C   C39       1.0  0.31901  0.79302  0.24390  1.0000 -0.0812537547
C   C40       1.0  0.68099  0.79302  0.75610  1.0000 -0.0812537547
C   C41       1.0  0.82491  0.29022  0.15229  1.0000 -0.1409110667
C   C42       1.0  0.17509  0.29022  0.84771  1.0000 -0.1409110667
C   C43       1.0  0.32491  0.79022  0.15229  1.0000 -0.1409110667
C   C44       1.0  0.67509  0.79022  0.84771  1.0000 -0.1409110667
C   C45       1.0  0.80448  0.41055  0.07858  1.0000 0.0732003111
C   C46       1.0  0.19552  0.41055  0.92142  1.0000 0.0732003111
C   C47       1.0  0.30448  0.91055  0.07858  1.0000 0.0732003111
C   C48       1.0  0.69552  0.91055  0.92142  1.0000 0.0732003111
C   C49       1.0  0.77947  0.53506  0.10119  1.0000 -0.1306060889
C   C50       1.0  0.22053  0.53506  0.89881  1.0000 -0.1306060889
C   C51       1.0  0.27947  0.03506  0.10119  1.0000 -0.1306060889
C   C52       1.0  0.72053  0.03506  0.89881  1.0000 -0.1306060889
C   C53       1.0  0.77469  0.53831  0.19421  1.0000 -0.0686526762
C   C54       1.0  0.22531  0.53831  0.80579  1.0000 -0.0686526762
C   C55       1.0  0.27469  0.03831  0.19421  1.0000 -0.0686526762
C   C56       1.0  0.72531  0.03831  0.80579  1.0000 -0.0686526762
C   C57       1.0  0.69837  0.82123  0.32339  1.0000 0.5960626362
C   C58       1.0  0.30163  0.82123  0.67661  1.0000 0.5960626362
C   C59       1.0  0.19837  0.32123  0.32339  1.0000 0.5960626362
C   C60       1.0  0.80163  0.32123  0.67661  1.0000 0.5960626362
C   C61       1.0  0.69381  0.86205  0.21910  1.0000 -0.033006109
C   C62       1.0  0.30619  0.86205  0.78090  1.0000 -0.033006109
C   C63       1.0  0.19381  0.36205  0.21910  1.0000 -0.033006109
C   C64       1.0  0.80619  0.36205  0.78090  1.0000 -0.033006109
C   C65       1.0  0.73236  0.94857  0.20937  1.0000 -0.0686526762
C   C66       1.0  0.26764  0.94857  0.79063  1.0000 -0.0686526762
C   C67       1.0  0.23236  0.44857  0.20937  1.0000 -0.0686526762
C   C68       1.0  0.76764  0.44857  0.79063  1.0000 -0.0686526762
C   C69       1.0  0.73220  0.96773  0.11262  1.0000 -0.1306060889
C   C70       1.0  0.26780  0.96773  0.88738  1.0000 -0.1306060889
C   C71       1.0  0.23220  0.46773  0.11262  1.0000 -0.1306060889
C   C72       1.0  0.76780  0.46773  0.88738  1.0000 -0.1306060889
C   C73       1.0  0.69297  0.90110  0.02236  1.0000 0.0732003111
C   C74       1.0  0.30703  0.90110  0.97764  1.0000 0.0732003111
C   C75       1.0  0.19297  0.40110  0.02236  1.0000 0.0732003111
C   C76       1.0  0.80703  0.40110  0.97764  1.0000 0.0732003111
C   C77       1.0  0.65307  0.81890  0.03207  1.0000 -0.1306060889
C   C78       1.0  0.34693  0.81890  0.96793  1.0000 -0.1306060889
C   C79       1.0  0.15307  0.31890  0.03207  1.0000 -0.1306060889
C   C80       1.0  0.84693  0.31890  0.96793  1.0000 -0.1306060889
C   C81       1.0  0.65370  0.79929  0.12935  1.0000 -0.0812537547
C   C82       1.0  0.34630  0.79929  0.87065  1.0000 -0.0812537547
C   C83       1.0  0.15370  0.29929  0.12935  1.0000 -0.0812537547
C   C84       1.0  0.84630  0.29929  0.87065  1.0000 -0.0812537547
O   O1        1.0  0.82299  0.90251  0.61565  1.0000 -0.7107715548
O   O2        1.0  0.17701  0.90251  0.38435  1.0000 -0.7107715548
O   O3        1.0  0.32299  0.40251  0.61565  1.0000 -0.7107715548
O   O4        1.0  0.67701  0.40251  0.38435  1.0000 -0.7107715548
O   O5        1.0  0.81454  0.64380  0.62783  1.0000 -0.6632795872
O   O6        1.0  0.18546  0.64380  0.37217  1.0000 -0.6632795872
O   O7        1.0  0.31454  0.14380  0.62783  1.0000 -0.6632795872
O   O8        1.0  0.68546  0.14380  0.37217  1.0000 -0.6632795872
O   O9        1.0  0.77560  0.54015  0.39184  1.0000 -0.6632795872
O   O10       1.0  0.22440  0.54015  0.60816  1.0000 -0.6632795872
O   O11       1.0  0.27560  0.04015  0.39184  1.0000 -0.6632795872
O   O12       1.0  0.72440  0.04015  0.60816  1.0000 -0.6632795872
O   O13       1.0  0.79363  0.28290  0.41140  1.0000 -0.7199238779
O   O14       1.0  0.20637  0.28290  0.58860  1.0000 -0.7199238779
O   O15       1.0  0.29363  0.78290  0.41140  1.0000 -0.7199238779
O   O16       1.0  0.70637  0.78290  0.58860  1.0000 -0.7199238779
O   O17       1.0  0.74020  0.86021  0.40610  1.0000 -0.7692954184
O   O18       1.0  0.25980  0.86021  0.59390  1.0000 -0.7692954184
O   O19       1.0  0.24020  0.36021  0.40610  1.0000 -0.7692954184
O   O20       1.0  0.75980  0.36021  0.59390  1.0000 -0.7692954184
O   O21       1.0  0.66456  0.73541  0.33156  1.0000 -0.6070666254
O   O22       1.0  0.33544  0.73541  0.66844  1.0000 -0.6070666254
O   O23       1.0  0.16456  0.23541  0.33156  1.0000 -0.6070666254
O   O24       1.0  0.83544  0.23541  0.66844  1.0000 -0.6070666254
