# DDEC6 charges by PACMAN v1.1 (https://github.com/mtap-research/PACMAN-charge/)
data_2016[Zn][sra]3[ASR]1
_chemical_formula_sum              "Zn8 H40 C88 O32"
_cell_length_a       12.206
_cell_length_b       17.833
_cell_length_c       15.309
_cell_angle_alpha    90
_cell_angle_beta     111.229
_cell_angle_gamma    90

_symmetry_space_group_name_H-M    "P 1"
_symmetry_Int_Tables_number       1

loop_
  _symmetry_equiv_pos_as_xyz
  'x, y, z'

loop_
  _atom_site_type_symbol
  _atom_site_label
  _atom_site_symmetry_multiplicity
  _atom_site_fract_x
  _atom_site_fract_y
  _atom_site_fract_z
  _atom_site_occupancy
  _atom_site_charge
Zn  Zn1       1.0  0.73603  0.62312  0.77076  1.0000 0.899949632
Zn  Zn2       1.0  0.26397  0.12312  0.72924  1.0000 0.899949632
Zn  Zn3       1.0  0.26397  0.37688  0.22924  1.0000 0.899949632
Zn  Zn4       1.0  0.73603  0.87688  0.27076  1.0000 0.899949632
Zn  Zn5       1.0  0.96612  0.51338  0.79410  1.0000 0.878018848
Zn  Zn6       1.0  0.03388  0.01338  0.70590  1.0000 0.878018848
Zn  Zn7       1.0  0.03388  0.48662  0.20590  1.0000 0.878018848
Zn  Zn8       1.0  0.96612  0.98662  0.29410  1.0000 0.878018848
H   H1        1.0  0.91400  0.75310  0.97950  1.0000 0.1262807244
H   H2        1.0  0.08600  0.25310  0.52050  1.0000 0.1262807244
H   H3        1.0  0.08600  0.24690  0.02050  1.0000 0.1262807244
H   H4        1.0  0.91400  0.74690  0.47950  1.0000 0.1262807244
H   H5        1.0  0.01860  0.82150  0.10910  1.0000 0.1113985957
H   H6        1.0  0.98140  0.32150  0.39090  1.0000 0.1113985957
H   H7        1.0  0.98140  0.17850  0.89090  1.0000 0.1113985957
H   H8        1.0  0.01860  0.67850  0.60910  1.0000 0.1113985957
H   H9        1.0  0.19830  0.78100  0.20460  1.0000 0.1113985957
H   H10       1.0  0.80170  0.28100  0.29540  1.0000 0.1113985957
H   H11       1.0  0.80170  0.21900  0.79540  1.0000 0.1113985957
H   H12       1.0  0.19830  0.71900  0.70460  1.0000 0.1113985957
H   H13       1.0  0.17010  0.60400  0.04280  1.0000 0.1208717168
H   H14       1.0  0.82990  0.10400  0.45720  1.0000 0.1208717168
H   H15       1.0  0.82990  0.39600  0.95720  1.0000 0.1208717168
H   H16       1.0  0.17010  0.89600  0.54280  1.0000 0.1208717168
H   H17       1.0  0.49010  0.53440  0.30350  1.0000 0.1208717168
H   H18       1.0  0.50990  0.03440  0.19650  1.0000 0.1262807244
H   H19       1.0  0.50990  0.46560  0.69650  1.0000 0.1262807244
H   H20       1.0  0.49010  0.96560  0.80350  1.0000 0.1208717168
H   H21       1.0  0.38630  0.76850  0.19050  1.0000 0.1208717168
H   H22       1.0  0.61370  0.26850  0.30950  1.0000 0.1208717168
H   H23       1.0  0.61370  0.23150  0.80950  1.0000 0.1208717168
H   H24       1.0  0.38630  0.73150  0.69050  1.0000 0.1208717168
H   H25       1.0  0.63280  0.62340  0.48790  1.0000 0.1262807244
H   H26       1.0  0.36720  0.12340  0.01210  1.0000 0.1262807244
H   H27       1.0  0.36720  0.37660  0.51210  1.0000 0.1262807244
H   H28       1.0  0.63280  0.87660  0.98790  1.0000 0.1262807244
H   H29       1.0  0.95840  0.54960  0.52760  1.0000 0.099243197
H   H30       1.0  0.04160  0.04960  0.97240  1.0000 0.099243197
H   H31       1.0  0.04160  0.45040  0.47240  1.0000 0.099243197
H   H32       1.0  0.95840  0.95040  0.02760  1.0000 0.099243197
H   H33       1.0  0.91970  0.56060  0.36820  1.0000 0.1113985957
H   H34       1.0  0.08030  0.06060  0.13180  1.0000 0.1113985957
H   H35       1.0  0.08030  0.43940  0.63180  1.0000 0.1113985957
H   H36       1.0  0.91970  0.93940  0.86820  1.0000 0.1113985957
H   H37       1.0  0.73760  0.60290  0.26860  1.0000 0.1208717168
H   H38       1.0  0.26240  0.10290  0.23140  1.0000 0.1208717168
H   H39       1.0  0.26240  0.39710  0.73140  1.0000 0.1208717168
H   H40       1.0  0.73760  0.89710  0.76860  1.0000 0.1208717168
C   C1        1.0  0.96840  0.62970  0.91620  1.0000 0.5706668415
C   C2        1.0  0.03160  0.12970  0.58380  1.0000 0.5706668415
C   C3        1.0  0.03160  0.37030  0.08380  1.0000 0.5706668415
C   C4        1.0  0.96840  0.87030  0.41620  1.0000 0.5706668415
C   C5        1.0  0.03190  0.67240  0.99930  1.0000 -0.0586823492
C   C6        1.0  0.96810  0.17240  0.50070  1.0000 -0.0586823492
C   C7        1.0  0.96810  0.32760  0.00070  1.0000 -0.0586823492
C   C8        1.0  0.03190  0.82760  0.49930  1.0000 -0.0586823492
C   C9        1.0  0.98760  0.73660  0.01890  1.0000 -0.0980182417
C   C10       1.0  0.01240  0.23660  0.48110  1.0000 -0.0980182417
C   C11       1.0  0.01240  0.26340  0.98110  1.0000 -0.0980182417
C   C12       1.0  0.98760  0.76340  0.51890  1.0000 -0.0980182417
C   C13       1.0  0.04950  0.77730  0.09550  1.0000 -0.0980182417
C   C14       1.0  0.95050  0.27730  0.40450  1.0000 -0.0980182417
C   C15       1.0  0.95050  0.22270  0.90450  1.0000 -0.0980182417
C   C16       1.0  0.04950  0.72270  0.59550  1.0000 -0.0980182417
C   C17       1.0  0.15620  0.75320  0.15180  1.0000 -0.1324988405
C   C18       1.0  0.84380  0.25320  0.34820  1.0000 -0.1324988405
C   C19       1.0  0.84380  0.24680  0.84820  1.0000 -0.1324988405
C   C20       1.0  0.15620  0.74680  0.65180  1.0000 -0.1324988405
C   C21       1.0  0.20390  0.68870  0.13300  1.0000 0.0691157853
C   C22       1.0  0.79610  0.18870  0.36700  1.0000 0.0691157853
C   C23       1.0  0.79610  0.31130  0.86700  1.0000 0.0691157853
C   C24       1.0  0.20390  0.81130  0.63300  1.0000 0.0691157853
C   C25       1.0  0.13980  0.64840  0.05650  1.0000 -0.1378917638
C   C26       1.0  0.86020  0.14840  0.44350  1.0000 -0.1378917638
C   C27       1.0  0.86020  0.35160  0.94350  1.0000 -0.1378917638
C   C28       1.0  0.13980  0.85160  0.55650  1.0000 -0.1378917638
C   C29       1.0  0.32320  0.66780  0.19350  1.0000 0.0477422703
C   C30       1.0  0.67680  0.16780  0.30650  1.0000 0.0477422703
C   C31       1.0  0.67680  0.33220  0.80650  1.0000 0.0477422703
C   C32       1.0  0.32320  0.83220  0.69350  1.0000 0.0477422703
C   C33       1.0  0.35480  0.59660  0.22620  1.0000 -0.0762363305
C   C34       1.0  0.64520  0.09660  0.27380  1.0000 -0.0762363305
C   C35       1.0  0.64520  0.40340  0.77380  1.0000 -0.0762363305
C   C36       1.0  0.35480  0.90340  0.72620  1.0000 -0.0762363305
C   C37       1.0  0.46880  0.58300  0.28210  1.0000 -0.1378917638
C   C38       1.0  0.53120  0.08300  0.21790  1.0000 -0.1378917638
C   C39       1.0  0.53120  0.41700  0.71790  1.0000 -0.1378917638
C   C40       1.0  0.46880  0.91700  0.78210  1.0000 -0.1378917638
C   C41       1.0  0.55110  0.63650  0.30730  1.0000 0.0397072419
C   C42       1.0  0.44890  0.13650  0.19270  1.0000 0.0397072419
C   C43       1.0  0.44890  0.36350  0.69270  1.0000 0.0397072419
C   C44       1.0  0.55110  0.86350  0.80730  1.0000 0.0397072419
C   C45       1.0  0.51830  0.70780  0.27170  1.0000 -0.049529866
C   C46       1.0  0.48170  0.20780  0.22830  1.0000 -0.049529866
C   C47       1.0  0.48170  0.29220  0.72830  1.0000 -0.049529866
C   C48       1.0  0.51830  0.79220  0.77170  1.0000 -0.049529866
C   C49       1.0  0.40660  0.72070  0.21540  1.0000 -0.1378917638
C   C50       1.0  0.59340  0.22070  0.28460  1.0000 -0.1378917638
C   C51       1.0  0.59340  0.27930  0.78460  1.0000 -0.1378917638
C   C52       1.0  0.40660  0.77930  0.71540  1.0000 -0.1378917638
C   C53       1.0  0.27230  0.53330  0.21120  1.0000 0.5885369399
C   C54       1.0  0.72770  0.03330  0.28880  1.0000 0.5885369399
C   C55       1.0  0.72770  0.46670  0.78880  1.0000 0.5885369399
C   C56       1.0  0.27230  0.96670  0.71120  1.0000 0.5885369399
C   C57       1.0  0.60480  0.77030  0.29630  1.0000 0.5349824944
C   C58       1.0  0.39520  0.27030  0.20370  1.0000 0.5355305591
C   C59       1.0  0.39520  0.22970  0.70370  1.0000 0.5349824944
C   C60       1.0  0.60480  0.72970  0.79630  1.0000 0.5349824944
C   C61       1.0  0.66710  0.61735  0.36841  1.0000 0.0691157853
C   C62       1.0  0.33290  0.11735  0.13159  1.0000 0.0691157853
C   C63       1.0  0.33290  0.38265  0.63159  1.0000 0.0691157853
C   C64       1.0  0.66710  0.88265  0.86841  1.0000 0.0691157853
C   C65       1.0  0.69030  0.61078  0.46391  1.0000 -0.1157281237
C   C66       1.0  0.30970  0.11078  0.03609  1.0000 -0.1157281237
C   C67       1.0  0.30970  0.38922  0.53609  1.0000 -0.1157281237
C   C68       1.0  0.69030  0.88922  0.96391  1.0000 -0.1157281237
C   C69       1.0  0.79940  0.58540  0.52356  1.0000 -0.0980182417
C   C70       1.0  0.20060  0.08540  0.97644  1.0000 -0.0980182417
C   C71       1.0  0.20060  0.41460  0.47644  1.0000 -0.0980182417
C   C72       1.0  0.79940  0.91460  0.02356  1.0000 -0.0980182417
C   C73       1.0  0.88537  0.56660  0.48769  1.0000 -0.112608858
C   C74       1.0  0.11463  0.06660  0.01231  1.0000 -0.112608858
C   C75       1.0  0.11463  0.43340  0.51231  1.0000 -0.112608858
C   C76       1.0  0.88537  0.93340  0.98769  1.0000 -0.112608858
C   C77       1.0  0.86220  0.57320  0.39219  1.0000 -0.0980182417
C   C78       1.0  0.13780  0.07320  0.10781  1.0000 -0.0980182417
C   C79       1.0  0.13780  0.42680  0.60781  1.0000 -0.0980182417
C   C80       1.0  0.86220  0.92680  0.89219  1.0000 -0.0980182417
C   C81       1.0  0.75310  0.59850  0.33254  1.0000 -0.1324988405
C   C82       1.0  0.24690  0.09850  0.16746  1.0000 -0.1324988405
C   C83       1.0  0.24690  0.40150  0.66746  1.0000 -0.1324988405
C   C84       1.0  0.75310  0.90150  0.83254  1.0000 -0.1324988405
C   C85       1.0  0.82390  0.57950  0.62180  1.0000 0.5706668415
C   C86       1.0  0.17610  0.07950  0.87820  1.0000 0.5706668415
C   C87       1.0  0.17610  0.42050  0.37820  1.0000 0.5706668415
C   C88       1.0  0.82390  0.92050  0.12180  1.0000 0.5706668415
O   O1        1.0  0.17830  0.54406  0.21800  1.0000 -0.5006481291
O   O2        1.0  0.82170  0.04406  0.28200  1.0000 -0.5006481291
O   O3        1.0  0.82170  0.45594  0.78200  1.0000 -0.5006481291
O   O4        1.0  0.17830  0.95594  0.71800  1.0000 -0.5006481291
O   O5        1.0  0.88070  0.65778  0.86070  1.0000 -0.5006481291
O   O6        1.0  0.11930  0.15778  0.63930  1.0000 -0.5006481291
O   O7        1.0  0.11930  0.34222  0.13930  1.0000 -0.5006481291
O   O8        1.0  0.88070  0.84222  0.36070  1.0000 -0.5006481291
O   O9        1.0  0.00440  0.56710  0.90690  1.0000 -0.5006481291
O   O10       1.0  0.99560  0.06710  0.59310  1.0000 -0.5006481291
O   O11       1.0  0.99560  0.43290  0.09310  1.0000 -0.5006481291
O   O12       1.0  0.00440  0.93290  0.40690  1.0000 -0.5006481291
O   O13       1.0  0.31200  0.47163  0.19880  1.0000 -0.5109100794
O   O14       1.0  0.68800  0.97163  0.30120  1.0000 -0.5109100794
O   O15       1.0  0.68800  0.52837  0.80120  1.0000 -0.5109100794
O   O16       1.0  0.31200  0.02837  0.69880  1.0000 -0.5109100794
O   O17       1.0  0.62280  0.80090  0.23280  1.0000 -0.4587520777
O   O18       1.0  0.37720  0.30090  0.26720  1.0000 -0.4587520777
O   O19       1.0  0.37720  0.19910  0.76720  1.0000 -0.4587520777
O   O20       1.0  0.62280  0.69910  0.73280  1.0000 -0.4587520777
O   O21       1.0  0.65000  0.78890  0.37600  1.0000 -0.4587520777
O   O22       1.0  0.35000  0.28890  0.12400  1.0000 -0.4587520777
O   O23       1.0  0.35000  0.21110  0.62400  1.0000 -0.4587520777
O   O24       1.0  0.65000  0.71110  0.87600  1.0000 -0.4587520777
O   O25       1.0  0.75110  0.60520  0.65090  1.0000 -0.5109100794
O   O26       1.0  0.24890  0.10520  0.84910  1.0000 -0.5109100794
O   O27       1.0  0.24890  0.39480  0.34910  1.0000 -0.5109100794
O   O28       1.0  0.75110  0.89480  0.15090  1.0000 -0.5109100794
O   O29       1.0  0.91590  0.54890  0.66930  1.0000 -0.5160313329
O   O30       1.0  0.08410  0.04890  0.83070  1.0000 -0.5160313329
O   O31       1.0  0.08410  0.45110  0.33070  1.0000 -0.5160313329
O   O32       1.0  0.91590  0.95110  0.16930  1.0000 -0.5160313329
