# DDEC6 charges by PACMAN v1.1 (https://github.com/mtap-research/PACMAN-charge/)
data_2016[Sm][pcu]3[ASR]2
_chemical_formula_sum              "Sm2 H24 C48 O12"
_cell_length_a       10.4024
_cell_length_b       11.4246
_cell_length_c       12.9388
_cell_angle_alpha    106.928
_cell_angle_beta     90.122
_cell_angle_gamma    92.989

_symmetry_space_group_name_H-M    "P 1"
_symmetry_Int_Tables_number       1

loop_
  _symmetry_equiv_pos_as_xyz
  'x, y, z'

loop_
  _atom_site_type_symbol
  _atom_site_label
  _atom_site_symmetry_multiplicity
  _atom_site_fract_x
  _atom_site_fract_y
  _atom_site_fract_z
  _atom_site_occupancy
  _atom_site_charge
Sm  Sm1       1.0  0.51563  0.55338  0.65486  1.0000 2.0646696601
Sm  Sm2       1.0  0.48437  0.44662  0.34514  1.0000 2.0646696601
H   H1        1.0  0.60255  0.90711  0.72984  1.0000 0.1079321641
H   H2        1.0  0.39745  0.09289  0.27016  1.0000 0.1079321641
H   H3        1.0  0.69305  0.09824  0.69784  1.0000 0.0990032554
H   H4        1.0  0.30695  0.90176  0.30216  1.0000 0.0990032554
H   H5        1.0  0.70045  0.29759  0.84830  1.0000 0.0990032554
H   H6        1.0  0.29955  0.70241  0.15170  1.0000 0.0990032554
H   H7        1.0  0.61281  0.30468  0.02747  1.0000 0.1079321641
H   H8        1.0  0.38719  0.69532  0.97253  1.0000 0.1079321641
H   H9        1.0  0.75218  0.70327  0.59292  1.0000 0.0931418713
H   H10       1.0  0.24782  0.29673  0.40708  1.0000 0.0931418713
H   H11       1.0  0.84696  0.86012  0.75140  1.0000 0.1079321641
H   H12       1.0  0.15304  0.13988  0.24860  1.0000 0.1079321641
H   H13       1.0  0.07785  0.84955  0.80879  1.0000 0.1079321641
H   H14       1.0  0.92215  0.15045  0.19121  1.0000 0.1079321641
H   H15       1.0  0.20826  0.68194  0.70948  1.0000 0.1221483115
H   H16       1.0  0.79174  0.31806  0.29052  1.0000 0.1221483115
H   H17       1.0  0.26272  0.21833  0.54931  1.0000 0.1079321641
H   H18       1.0  0.73728  0.78167  0.45069  1.0000 0.1079321641
H   H19       1.0  0.06789  0.10839  0.59157  1.0000 0.0990032554
H   H20       1.0  0.93211  0.89161  0.40843  1.0000 0.0990032554
H   H21       1.0  0.07746  0.89043  0.59701  1.0000 0.0931418713
H   H22       1.0  0.92254  0.10957  0.40299  1.0000 0.0931418713
H   H23       1.0  0.28156  0.78483  0.56268  1.0000 0.1079321641
H   H24       1.0  0.71844  0.21517  0.43732  1.0000 0.1079321641
C   C1        1.0  0.50652  0.76352  0.83133  1.0000 0.588753036
C   C2        1.0  0.49348  0.23648  0.16867  1.0000 0.588753036
C   C3        1.0  0.50139  0.88639  0.91664  1.0000 -0.089071234
C   C4        1.0  0.49861  0.11361  0.08336  1.0000 -0.089071234
C   C5        1.0  0.55490  0.99492  0.89798  1.0000 0.0523569859
C   C6        1.0  0.44510  0.00508  0.10202  1.0000 0.0523569859
C   C7        1.0  0.60631  0.99388  0.79494  1.0000 -0.1281668362
C   C8        1.0  0.39369  0.00612  0.20506  1.0000 -0.1281668362
C   C9        1.0  0.65604  0.10066  0.77779  1.0000 -0.0780902527
C   C10       1.0  0.34396  0.89934  0.22221  1.0000 -0.0780902527
C   C11       1.0  0.65872  0.21328  0.86222  1.0000 -0.0780902527
C   C12       1.0  0.34128  0.78672  0.13778  1.0000 -0.0780902527
C   C13       1.0  0.60967  0.21826  0.96201  1.0000 -0.1239012834
C   C14       1.0  0.39033  0.78174  0.03799  1.0000 -0.1239012834
C   C15       1.0  0.55486  0.10957  0.98273  1.0000 0.0523569859
C   C16       1.0  0.44514  0.89043  0.01727  1.0000 0.0523569859
C   C17       1.0  0.73563  0.51016  0.43251  1.0000 0.6184372816
C   C18       1.0  0.26437  0.48984  0.56749  1.0000 0.6184372816
C   C19       1.0  0.87188  0.50639  0.46758  1.0000 -0.1033500817
C   C20       1.0  0.12812  0.49361  0.53242  1.0000 -0.1033500817
C   C21       1.0  0.92408  0.59715  0.55932  1.0000 0.0523569859
C   C22       1.0  0.07592  0.40285  0.44068  1.0000 0.0523569859
C   C23       1.0  0.85109  0.69682  0.61895  1.0000 -0.1281668362
C   C24       1.0  0.14891  0.30318  0.38105  1.0000 -0.1281668362
C   C25       1.0  0.90502  0.78483  0.70701  1.0000 -0.0720312175
C   C26       1.0  0.09498  0.21517  0.29299  1.0000 -0.0720312175
C   C27       1.0  0.03449  0.77847  0.73940  1.0000 -0.0720312175
C   C28       1.0  0.96551  0.22153  0.26060  1.0000 -0.0720312175
C   C29       1.0  0.10852  0.68493  0.68371  1.0000 -0.136720517
C   C30       1.0  0.89148  0.31507  0.31629  1.0000 -0.136720517
C   C31       1.0  0.05499  0.59113  0.59242  1.0000 0.0586561363
C   C32       1.0  0.94501  0.40887  0.40758  1.0000 0.0586561363
C   C33       1.0  0.49114  0.25490  0.49929  1.0000 0.6655848536
C   C34       1.0  0.50886  0.74510  0.50071  1.0000 0.6655848536
C   C35       1.0  0.49468  0.12213  0.49633  1.0000 -0.1089695332
C   C36       1.0  0.50532  0.87787  0.50367  1.0000 -0.1089695332
C   C37       1.0  0.38406  0.06269  0.52534  1.0000 0.0523569859
C   C38       1.0  0.61594  0.93731  0.47466  1.0000 0.0523569859
C   C39       1.0  0.26595  0.12285  0.54999  1.0000 -0.1239012834
C   C40       1.0  0.73405  0.87715  0.45001  1.0000 -0.1281668362
C   C41       1.0  0.15830  0.06158  0.57427  1.0000 -0.0780902527
C   C42       1.0  0.84170  0.93842  0.42573  1.0000 -0.0720312175
C   C43       1.0  0.16371  0.93842  0.57759  1.0000 -0.0780902527
C   C44       1.0  0.83629  0.06158  0.42241  1.0000 -0.0780902527
C   C45       1.0  0.27666  0.87877  0.55774  1.0000 -0.1239012834
C   C46       1.0  0.72334  0.12123  0.44226  1.0000 -0.1239012834
C   C47       1.0  0.38971  0.93853  0.52957  1.0000 0.0523569859
C   C48       1.0  0.61029  0.06147  0.47043  1.0000 0.0523569859
O   O1        1.0  0.61428  0.71122  0.80878  1.0000 -0.6426574674
O   O2        1.0  0.38572  0.28878  0.19122  1.0000 -0.6426574674
O   O3        1.0  0.40207  0.70979  0.78231  1.0000 -0.6314813581
O   O4        1.0  0.59793  0.29021  0.21769  1.0000 -0.6314813581
O   O5        1.0  0.64359  0.49148  0.49602  1.0000 -0.7860199299
O   O6        1.0  0.35641  0.50852  0.50398  1.0000 -0.7848081079
O   O7        1.0  0.70659  0.52222  0.34119  1.0000 -0.5864292469
O   O8        1.0  0.29341  0.47778  0.65881  1.0000 -0.5864292469
O   O9        1.0  0.51374  0.33618  0.58959  1.0000 -0.656975427
O   O10       1.0  0.48626  0.66382  0.41041  1.0000 -0.656975427
O   O11       1.0  0.46469  0.27820  0.41056  1.0000 -0.6862875905
O   O12       1.0  0.53531  0.72180  0.58944  1.0000 -0.6862875905
