# DDEC6 charges by PACMAN v1.1 (https://github.com/mtap-research/PACMAN-charge/)
data_2016[Pr][nan]3[ASR]3
_chemical_formula_sum              "Pr4 H18 C42 N6 O24"
_cell_length_a       8.8723
_cell_length_b       10.7152
_cell_length_c       18.92
_cell_angle_alpha    75.496
_cell_angle_beta     83.797
_cell_angle_gamma    69.336

_symmetry_space_group_name_H-M    "P 1"
_symmetry_Int_Tables_number       1

loop_
  _symmetry_equiv_pos_as_xyz
  'x, y, z'

loop_
  _atom_site_type_symbol
  _atom_site_label
  _atom_site_symmetry_multiplicity
  _atom_site_fract_x
  _atom_site_fract_y
  _atom_site_fract_z
  _atom_site_occupancy
  _atom_site_charge
Pr  Pr1       1.0  0.49816  0.58858  0.21300  1.0000 2.1569774882
Pr  Pr2       1.0  0.50184  0.41142  0.78700  1.0000 2.1569774882
Pr  Pr3       1.0  0.10400  0.46808  0.27628  1.0000 2.1057402627
Pr  Pr4       1.0  0.89600  0.53192  0.72372  1.0000 2.1057402627
H   H1        1.0  0.72740  0.23930  0.25460  1.0000 0.1098397994
H   H2        1.0  0.27260  0.76070  0.74540  1.0000 0.1098397994
H   H3        1.0  0.48550  0.99140  0.24770  1.0000 0.1339272098
H   H4        1.0  0.51450  0.00860  0.75230  1.0000 0.1339272098
H   H5        1.0  0.52430  0.31680  0.42570  1.0000 0.1013374948
H   H6        1.0  0.47570  0.68320  0.57430  1.0000 0.1013374948
H   H7        1.0  0.87660  0.41190  0.48820  1.0000 0.1391385854
H   H8        1.0  0.12340  0.58810  0.51180  1.0000 0.1391385854
H   H9        1.0  0.70450  0.43750  0.03380  1.0000 0.1391385854
H   H10       1.0  0.29550  0.56250  0.96620  1.0000 0.1391385854
H   H11       1.0  0.17010  0.30190  0.08620  1.0000 0.1098397994
H   H12       1.0  0.82990  0.69810  0.91380  1.0000 0.1098397994
H   H13       1.0  0.96620  0.85680  0.25620  1.0000 0.1098397994
H   H14       1.0  0.03380  0.14320  0.74380  1.0000 0.1098397994
H   H15       1.0  0.56620  0.28440  0.63120  1.0000 0.1013374948
H   H16       1.0  0.43380  0.71560  0.36880  1.0000 0.1013374948
H   H17       1.0  0.05540  0.29590  0.89400  1.0000 0.1098397994
H   H18       1.0  0.94460  0.70410  0.10600  1.0000 0.1098397994
C   C1        1.0  0.42670  0.25620  0.24590  1.0000 0.6086728708
C   C2        1.0  0.57330  0.74380  0.75410  1.0000 0.6086728708
C   C3        1.0  0.75860  0.40630  0.36460  1.0000 0.6610926525
C   C4        1.0  0.24140  0.59370  0.63540  1.0000 0.6610926525
C   C5        1.0  0.88500  0.41690  0.14380  1.0000 0.6528987275
C   C6        1.0  0.11500  0.58310  0.85620  1.0000 0.6528987275
C   C7        1.0  0.58130  0.13560  0.24980  1.0000 -0.070060071
C   C8        1.0  0.41870  0.86440  0.75020  1.0000 -0.070060071
C   C9        1.0  0.71000  0.36880  0.44360  1.0000 -0.0879916105
C   C10       1.0  0.29000  0.63120  0.55640  1.0000 -0.0879916105
C   C11       1.0  0.93110  0.37560  0.07200  1.0000 -0.0879916105
C   C12       1.0  0.06890  0.62440  0.92800  1.0000 -0.0879916105
C   C13       1.0  0.72790  0.15270  0.25390  1.0000 0.0676918927
C   C14       1.0  0.27210  0.84730  0.74610  1.0000 0.0676918927
C   C15       1.0  0.58190  0.00640  0.24960  1.0000 -0.070060071
C   C16       1.0  0.41810  0.99360  0.75040  1.0000 -0.070060071
C   C17       1.0  0.57880  0.32400  0.46300  1.0000 0.0676918927
C   C18       1.0  0.42120  0.67600  0.53700  1.0000 0.0676918927
C   C19       1.0  0.78710  0.38380  0.49870  1.0000 -0.0581088741
C   C20       1.0  0.21290  0.61620  0.50130  1.0000 -0.0581088741
C   C21       1.0  0.81320  0.40090  0.02200  1.0000 -0.0581088741
C   C22       1.0  0.18680  0.59910  0.97800  1.0000 -0.0581088741
C   C23       1.0  0.09200  0.31940  0.05260  1.0000 0.0625973852
C   C24       1.0  0.90800  0.68060  0.94740  1.0000 0.0676918927
C   C25       1.0  0.72700  0.89960  0.25230  1.0000 -0.0879916105
C   C26       1.0  0.27300  0.10040  0.74770  1.0000 -0.0879916105
C   C27       1.0  0.73010  0.35650  0.57040  1.0000 -0.0879916105
C   C28       1.0  0.26990  0.64350  0.42960  1.0000 -0.0813789381
C   C29       1.0  0.86150  0.37030  0.95430  1.0000 -0.0813789381
C   C30       1.0  0.13850  0.62970  0.04570  1.0000 -0.0813789381
C   C31       1.0  0.86830  0.92790  0.25530  1.0000 0.0676918927
C   C32       1.0  0.13170  0.07210  0.74470  1.0000 0.0676918927
C   C33       1.0  0.73840  0.75620  0.25200  1.0000 0.6528987275
C   C34       1.0  0.26160  0.24380  0.74800  1.0000 0.6528987275
C   C35       1.0  0.60150  0.30730  0.58320  1.0000 0.0676918927
C   C36       1.0  0.39850  0.69270  0.41680  1.0000 0.0676918927
C   C37       1.0  0.79910  0.38670  0.62970  1.0000 0.6019169824
C   C38       1.0  0.20090  0.61330  0.37030  1.0000 0.6019169824
C   C39       1.0  0.02390  0.31570  0.93960  1.0000 0.0625973852
C   C40       1.0  0.97610  0.68430  0.06040  1.0000 0.0625973852
C   C41       1.0  0.74350  0.40070  0.89640  1.0000 0.6086728708
C   C42       1.0  0.25650  0.59930  0.10360  1.0000 0.6086728708
N   N1        1.0  0.87050  0.05070  0.25700  1.0000 -0.2540908767
N   N2        1.0  0.12950  0.94930  0.74300  1.0000 -0.2540908767
N   N3        1.0  0.52600  0.29110  0.53070  1.0000 -0.2604916457
N   N4        1.0  0.47400  0.70890  0.46930  1.0000 -0.2540908767
N   N5        1.0  0.13970  0.28910  0.98690  1.0000 -0.2604916457
N   N6        1.0  0.86030  0.71090  0.01310  1.0000 -0.2604916457
O   O1        1.0  0.28020  0.60350  0.31043  1.0000 -0.756261365
O   O2        1.0  0.71980  0.39650  0.68957  1.0000 -0.756261365
O   O3        1.0  0.20240  0.60790  0.16790  1.0000 -0.7355988486
O   O4        1.0  0.79760  0.39210  0.83210  1.0000 -0.7290583713
O   O5        1.0  0.40340  0.57190  0.08810  1.0000 -0.5980307622
O   O6        1.0  0.59660  0.42810  0.91190  1.0000 -0.5980307622
O   O7        1.0  0.43480  0.37180  0.24430  1.0000 -0.7290583713
O   O8        1.0  0.56520  0.62820  0.75570  1.0000 -0.7290583713
O   O9        1.0  0.65060  0.44250  0.31892  1.0000 -0.6676104529
O   O10       1.0  0.34940  0.55750  0.68108  1.0000 -0.6676104529
O   O11       1.0  0.73660  0.45840  0.15957  1.0000 -0.6952591403
O   O12       1.0  0.26340  0.54160  0.84043  1.0000 -0.6952591403
O   O13       1.0  0.60950  0.73110  0.25880  1.0000 -0.6844724579
O   O14       1.0  0.39050  0.26890  0.74120  1.0000 -0.6844724579
O   O15       1.0  0.07020  0.59100  0.38070  1.0000 -0.5980307622
O   O16       1.0  0.92980  0.40900  0.61930  1.0000 -0.5980307622
O   O17       1.0  0.29520  0.23870  0.24610  1.0000 -0.5980307622
O   O18       1.0  0.70480  0.76130  0.75390  1.0000 -0.5980307622
O   O19       1.0  0.90240  0.39760  0.35110  1.0000 -0.6645051106
O   O20       1.0  0.09760  0.60240  0.64890  1.0000 -0.6645051106
O   O21       1.0  0.99480  0.40970  0.18211  1.0000 -0.6521697803
O   O22       1.0  0.00520  0.59030  0.81789  1.0000 -0.6521697803
O   O23       1.0  0.87600  0.67370  0.24350  1.0000 -0.6676104529
O   O24       1.0  0.12400  0.32630  0.75650  1.0000 -0.6676104529
