# DDEC6 charges by PACMAN v1.1 (https://github.com/mtap-research/PACMAN-charge/)
data_2016[Cu][tbo]3[ASR]1
_chemical_formula_sum              "Cu48 H288 C480 O192"
_cell_length_a       45.8487
_cell_length_b       45.8487
_cell_length_c       45.8487
_cell_angle_alpha    33.465
_cell_angle_beta     33.465
_cell_angle_gamma    33.465

_symmetry_space_group_name_H-M    "P 1"
_symmetry_Int_Tables_number       1

loop_
  _symmetry_equiv_pos_as_xyz
  'x, y, z'

loop_
  _atom_site_type_symbol
  _atom_site_label
  _atom_site_symmetry_multiplicity
  _atom_site_fract_x
  _atom_site_fract_y
  _atom_site_fract_z
  _atom_site_occupancy
  _atom_site_charge
Cu  Cu1       1.0  0.31347  0.75114  0.84356  1.0000 0.8262016451
Cu  Cu2       1.0  0.84356  0.31347  0.75114  1.0000 0.8262016451
Cu  Cu3       1.0  0.75114  0.84356  0.31347  1.0000 0.8245223433
Cu  Cu4       1.0  0.25114  0.81347  0.34356  1.0000 0.8262016451
Cu  Cu5       1.0  0.81347  0.34356  0.25114  1.0000 0.8262016451
Cu  Cu6       1.0  0.34356  0.25114  0.81347  1.0000 0.8262016451
Cu  Cu7       1.0  0.29135  0.85735  0.75495  1.0000 0.8262016451
Cu  Cu8       1.0  0.75495  0.29135  0.85735  1.0000 0.8262016451
Cu  Cu9       1.0  0.85735  0.75495  0.29135  1.0000 0.8262016451
Cu  Cu10      1.0  0.35735  0.79135  0.25495  1.0000 0.8262016451
Cu  Cu11      1.0  0.79135  0.25495  0.35735  1.0000 0.8262016451
Cu  Cu12      1.0  0.25495  0.35735  0.79135  1.0000 0.8262016451
Cu  Cu13      1.0  0.54410  0.04443  0.57465  1.0000 0.8262016451
Cu  Cu14      1.0  0.57465  0.54410  0.04443  1.0000 0.8245223433
Cu  Cu15      1.0  0.04443  0.57465  0.54410  1.0000 0.8245223433
Cu  Cu16      1.0  0.54443  0.04410  0.07465  1.0000 0.8262016451
Cu  Cu17      1.0  0.04410  0.07465  0.54443  1.0000 0.8262016451
Cu  Cu18      1.0  0.07465  0.54443  0.04410  1.0000 0.8245223433
Cu  Cu19      1.0  0.49305  0.09525  0.52548  1.0000 0.8262016451
Cu  Cu20      1.0  0.52548  0.49305  0.09525  1.0000 0.8245223433
Cu  Cu21      1.0  0.09525  0.52548  0.49305  1.0000 0.8262016451
Cu  Cu22      1.0  0.59525  0.99305  0.02548  1.0000 0.8262016451
Cu  Cu23      1.0  0.99305  0.02548  0.59525  1.0000 0.8262016451
Cu  Cu24      1.0  0.02548  0.59525  0.99305  1.0000 0.8262016451
Cu  Cu25      1.0  0.74886  0.18653  0.65644  1.0000 0.8262016451
Cu  Cu26      1.0  0.18653  0.65644  0.74886  1.0000 0.8262016451
Cu  Cu27      1.0  0.65644  0.74886  0.18653  1.0000 0.8262016451
Cu  Cu28      1.0  0.68653  0.24886  0.15644  1.0000 0.8262016451
Cu  Cu29      1.0  0.15644  0.68653  0.24886  1.0000 0.8262016451
Cu  Cu30      1.0  0.24886  0.15644  0.68653  1.0000 0.8262016451
Cu  Cu31      1.0  0.64265  0.20865  0.74505  1.0000 0.8262016451
Cu  Cu32      1.0  0.20865  0.74505  0.64265  1.0000 0.8262016451
Cu  Cu33      1.0  0.74505  0.64265  0.20865  1.0000 0.8262016451
Cu  Cu34      1.0  0.70865  0.14265  0.24505  1.0000 0.8262016451
Cu  Cu35      1.0  0.24505  0.70865  0.14265  1.0000 0.8262016451
Cu  Cu36      1.0  0.14265  0.24505  0.70865  1.0000 0.8262016451
Cu  Cu37      1.0  0.45557  0.95590  0.92535  1.0000 0.8262016451
Cu  Cu38      1.0  0.95590  0.92535  0.45557  1.0000 0.8262016451
Cu  Cu39      1.0  0.92535  0.45557  0.95590  1.0000 0.8245223433
Cu  Cu40      1.0  0.45590  0.95557  0.42535  1.0000 0.8245223433
Cu  Cu41      1.0  0.42535  0.45590  0.95557  1.0000 0.8262016451
Cu  Cu42      1.0  0.95557  0.42535  0.45590  1.0000 0.8262016451
Cu  Cu43      1.0  0.40475  0.00695  0.97452  1.0000 0.8262016451
Cu  Cu44      1.0  0.00695  0.97452  0.40475  1.0000 0.8245223433
Cu  Cu45      1.0  0.97452  0.40475  0.00695  1.0000 0.8262016451
Cu  Cu46      1.0  0.50695  0.90475  0.47452  1.0000 0.8262016451
Cu  Cu47      1.0  0.47452  0.50695  0.90475  1.0000 0.8245223433
Cu  Cu48      1.0  0.90475  0.47452  0.50695  1.0000 0.8262016451
H   H1        1.0  0.48030  0.76780  0.64230  1.0000 0.1401569853
H   H2        1.0  0.64230  0.48030  0.76780  1.0000 0.1401569853
H   H3        1.0  0.76780  0.64230  0.48030  1.0000 0.1401569853
H   H4        1.0  0.26780  0.98030  0.14230  1.0000 0.1401569853
H   H5        1.0  0.98030  0.14230  0.26780  1.0000 0.1401569853
H   H6        1.0  0.14230  0.26780  0.98030  1.0000 0.1401569853
H   H7        1.0  0.37000  0.87160  0.76300  1.0000 0.1401569853
H   H8        1.0  0.76300  0.37000  0.87160  1.0000 0.1401569853
H   H9        1.0  0.87160  0.76300  0.37000  1.0000 0.1401569853
H   H10       1.0  0.37160  0.87000  0.26300  1.0000 0.1401569853
H   H11       1.0  0.87000  0.26300  0.37160  1.0000 0.1401569853
H   H12       1.0  0.26300  0.37160  0.87000  1.0000 0.1401569853
H   H13       1.0  0.23000  0.73730  0.84160  1.0000 0.1304462312
H   H14       1.0  0.84160  0.23000  0.73730  1.0000 0.1304462312
H   H15       1.0  0.73730  0.84160  0.23000  1.0000 0.1304462312
H   H16       1.0  0.23730  0.73000  0.34160  1.0000 0.1304462312
H   H17       1.0  0.73000  0.34160  0.23730  1.0000 0.1304462312
H   H18       1.0  0.34160  0.23730  0.73000  1.0000 0.1304462312
H   H19       1.0  0.12750  0.84030  0.95500  1.0000 0.1401569853
H   H20       1.0  0.95500  0.12750  0.84030  1.0000 0.1401569853
H   H21       1.0  0.84030  0.95500  0.12750  1.0000 0.1401569853
H   H22       1.0  0.34030  0.62750  0.45500  1.0000 0.1401569853
H   H23       1.0  0.62750  0.45500  0.34030  1.0000 0.1401569853
H   H24       1.0  0.45500  0.34030  0.62750  1.0000 0.1401569853
H   H25       1.0  0.48620  0.65940  0.73790  1.0000 0.1207317088
H   H26       1.0  0.73790  0.48620  0.65940  1.0000 0.1207317088
H   H27       1.0  0.65940  0.73790  0.48620  1.0000 0.1207317088
H   H28       1.0  0.15940  0.98620  0.23790  1.0000 0.1207317088
H   H29       1.0  0.98620  0.23790  0.15940  1.0000 0.1207317088
H   H30       1.0  0.23790  0.15940  0.98620  1.0000 0.1207317088
H   H31       1.0  0.38210  0.76460  0.85870  1.0000 0.1207317088
H   H32       1.0  0.85870  0.38210  0.76460  1.0000 0.1207317088
H   H33       1.0  0.76460  0.85870  0.38210  1.0000 0.1207317088
H   H34       1.0  0.26460  0.88210  0.35870  1.0000 0.1207317088
H   H35       1.0  0.88210  0.35870  0.26460  1.0000 0.1207317088
H   H36       1.0  0.35870  0.26460  0.88210  1.0000 0.1207317088
H   H37       1.0  0.21990  0.84250  0.74360  1.0000 0.1304462312
H   H38       1.0  0.74360  0.21990  0.84250  1.0000 0.1304462312
H   H39       1.0  0.84250  0.74360  0.21990  1.0000 0.1304462312
H   H40       1.0  0.34250  0.71990  0.24360  1.0000 0.1304462312
H   H41       1.0  0.71990  0.24360  0.34250  1.0000 0.1304462312
H   H42       1.0  0.24360  0.34250  0.71990  1.0000 0.1304462312
H   H43       1.0  0.11050  0.94740  0.85880  1.0000 0.1207317088
H   H44       1.0  0.85880  0.11050  0.94740  1.0000 0.1207317088
H   H45       1.0  0.94740  0.85880  0.11050  1.0000 0.1207317088
H   H46       1.0  0.44740  0.61050  0.35880  1.0000 0.1207317088
H   H47       1.0  0.61050  0.35880  0.44740  1.0000 0.1207317088
H   H48       1.0  0.35880  0.44740  0.61050  1.0000 0.1207317088
H   H49       1.0  0.58040  0.57380  0.72930  1.0000 0.1207317088
H   H50       1.0  0.72930  0.58040  0.57380  1.0000 0.1207317088
H   H51       1.0  0.57380  0.72930  0.58040  1.0000 0.1207317088
H   H52       1.0  0.07380  0.08040  0.22930  1.0000 0.1207317088
H   H53       1.0  0.08040  0.22930  0.07380  1.0000 0.1207317088
H   H54       1.0  0.22930  0.07380  0.08040  1.0000 0.1207317088
H   H55       1.0  0.41870  0.87960  0.75410  1.0000 0.1118911894
H   H56       1.0  0.75410  0.41870  0.87960  1.0000 0.1118911894
H   H57       1.0  0.87960  0.75410  0.41870  1.0000 0.1118911894
H   H58       1.0  0.37960  0.91870  0.25410  1.0000 0.1118911894
H   H59       1.0  0.91870  0.25410  0.37960  1.0000 0.1118911894
H   H60       1.0  0.25410  0.37960  0.91870  1.0000 0.1118911894
H   H61       1.0  0.42660  0.72550  0.89930  1.0000 0.1118911894
H   H62       1.0  0.89930  0.42660  0.72550  1.0000 0.1118911894
H   H63       1.0  0.72550  0.89930  0.42660  1.0000 0.1118911894
H   H64       1.0  0.22550  0.92660  0.39930  1.0000 0.1207317088
H   H65       1.0  0.92660  0.39930  0.22550  1.0000 0.1118911894
H   H66       1.0  0.39930  0.22550  0.92660  1.0000 0.1118911894
H   H67       1.0  0.18170  0.72660  0.85250  1.0000 0.1207317088
H   H68       1.0  0.85250  0.18170  0.72660  1.0000 0.1207317088
H   H69       1.0  0.72660  0.85250  0.18170  1.0000 0.1207317088
H   H70       1.0  0.22660  0.68170  0.35250  1.0000 0.1207317088
H   H71       1.0  0.68170  0.35250  0.22660  1.0000 0.1207317088
H   H72       1.0  0.35250  0.22660  0.68170  1.0000 0.1207317088
H   H73       1.0  0.17360  0.88140  0.70380  1.0000 0.1207317088
H   H74       1.0  0.70380  0.17360  0.88140  1.0000 0.1207317088
H   H75       1.0  0.88140  0.70380  0.17360  1.0000 0.1207317088
H   H76       1.0  0.38140  0.67360  0.20380  1.0000 0.1207317088
H   H77       1.0  0.67360  0.20380  0.38140  1.0000 0.1207317088
H   H78       1.0  0.20380  0.38140  0.67360  1.0000 0.1207317088
H   H79       1.0  0.03090  0.87260  0.01730  1.0000 0.1118911894
H   H80       1.0  0.01730  0.03090  0.87260  1.0000 0.1118911894
H   H81       1.0  0.87260  0.01730  0.03090  1.0000 0.1118911894
H   H82       1.0  0.37260  0.53090  0.51730  1.0000 0.1118911894
H   H83       1.0  0.53090  0.51730  0.37260  1.0000 0.1118911894
H   H84       1.0  0.51730  0.37260  0.53090  1.0000 0.1118911894
H   H85       1.0  0.49310  0.89920  0.73560  1.0000 0.1207317088
H   H86       1.0  0.73560  0.49310  0.89920  1.0000 0.1207317088
H   H87       1.0  0.89920  0.73560  0.49310  1.0000 0.1207317088
H   H88       1.0  0.39920  0.99310  0.23560  1.0000 0.1207317088
H   H89       1.0  0.99310  0.23560  0.39920  1.0000 0.1207317088
H   H90       1.0  0.23560  0.39920  0.99310  1.0000 0.1207317088
H   H91       1.0  0.49750  0.80750  0.82270  1.0000 0.1207317088
H   H92       1.0  0.82270  0.49750  0.80750  1.0000 0.1118911894
H   H93       1.0  0.80750  0.82270  0.49750  1.0000 0.1118911894
H   H94       1.0  0.30750  0.99750  0.32270  1.0000 0.1118911894
H   H95       1.0  0.99750  0.32270  0.30750  1.0000 0.1118911894
H   H96       1.0  0.32270  0.30750  0.99750  1.0000 0.1118911894
H   H97       1.0  0.51260  0.70760  0.90710  1.0000 0.1207317088
H   H98       1.0  0.90710  0.51260  0.70760  1.0000 0.1207317088
H   H99       1.0  0.70760  0.90710  0.51260  1.0000 0.1207317088
H   H100      1.0  0.20760  0.01260  0.40710  1.0000 0.1207317088
H   H101      1.0  0.01260  0.40710  0.20760  1.0000 0.1207317088
H   H102      1.0  0.40710  0.20760  0.01260  1.0000 0.1207317088
H   H103      1.0  0.13780  0.67610  0.90270  1.0000 0.1207317088
H   H104      1.0  0.90270  0.13780  0.67610  1.0000 0.1207317088
H   H105      1.0  0.67610  0.90270  0.13780  1.0000 0.1207317088
H   H106      1.0  0.17610  0.63780  0.40270  1.0000 0.1207317088
H   H107      1.0  0.63780  0.40270  0.17610  1.0000 0.1207317088
H   H108      1.0  0.40270  0.17610  0.63780  1.0000 0.1207317088
H   H109      1.0  0.10460  0.79860  0.78040  1.0000 0.1118911894
H   H110      1.0  0.78040  0.10460  0.79860  1.0000 0.1118911894
H   H111      1.0  0.79860  0.78040  0.10460  1.0000 0.1118911894
H   H112      1.0  0.29860  0.60460  0.28040  1.0000 0.1118911894
H   H113      1.0  0.60460  0.28040  0.29860  1.0000 0.1118911894
H   H114      1.0  0.28040  0.29860  0.60460  1.0000 0.1118911894
H   H115      1.0  0.12720  0.92830  0.65850  1.0000 0.1304462312
H   H116      1.0  0.65850  0.12720  0.92830  1.0000 0.1304462312
H   H117      1.0  0.92830  0.65850  0.12720  1.0000 0.1304462312
H   H118      1.0  0.42830  0.62720  0.15850  1.0000 0.1304462312
H   H119      1.0  0.62720  0.15850  0.42830  1.0000 0.1304462312
H   H120      1.0  0.15850  0.42830  0.62720  1.0000 0.1304462312
H   H121      1.0  0.43840  0.95250  0.68800  1.0000 0.1401569853
H   H122      1.0  0.68800  0.43840  0.95250  1.0000 0.1401569853
H   H123      1.0  0.95250  0.68800  0.43840  1.0000 0.1401569853
H   H124      1.0  0.45250  0.93840  0.18800  1.0000 0.1401569853
H   H125      1.0  0.93840  0.18800  0.45250  1.0000 0.1401569853
H   H126      1.0  0.18800  0.45250  0.93840  1.0000 0.1401569853
H   H127      1.0  0.45550  0.65820  0.96490  1.0000 0.1304462312
H   H128      1.0  0.96490  0.45550  0.65820  1.0000 0.1304462312
H   H129      1.0  0.65820  0.96490  0.45550  1.0000 0.1304462312
H   H130      1.0  0.15820  0.95550  0.46490  1.0000 0.1304462312
H   H131      1.0  0.95550  0.46490  0.15820  1.0000 0.1304462312
H   H132      1.0  0.46490  0.15820  0.95550  1.0000 0.1304462312
H   H133      1.0  0.11040  0.71120  0.84100  1.0000 0.1401569853
H   H134      1.0  0.84100  0.11040  0.71120  1.0000 0.1401569853
H   H135      1.0  0.71120  0.84100  0.11040  1.0000 0.1401569853
H   H136      1.0  0.21120  0.61040  0.34100  1.0000 0.1401569853
H   H137      1.0  0.61040  0.34100  0.21120  1.0000 0.1401569853
H   H138      1.0  0.34100  0.21120  0.61040  1.0000 0.1401569853
H   H139      1.0  0.06850  0.88020  0.71810  1.0000 0.1401569853
H   H140      1.0  0.71810  0.06850  0.88020  1.0000 0.1401569853
H   H141      1.0  0.88020  0.71810  0.06850  1.0000 0.1401569853
H   H142      1.0  0.38020  0.56850  0.21810  1.0000 0.1401569853
H   H143      1.0  0.56850  0.21810  0.38020  1.0000 0.1401569853
H   H144      1.0  0.21810  0.38020  0.56850  1.0000 0.1401569853
H   H145      1.0  0.73220  0.01970  0.85770  1.0000 0.1401569853
H   H146      1.0  0.01970  0.85770  0.73220  1.0000 0.1401569853
H   H147      1.0  0.85770  0.73220  0.01970  1.0000 0.1401569853
H   H148      1.0  0.51970  0.23220  0.35770  1.0000 0.1401569853
H   H149      1.0  0.35770  0.51970  0.23220  1.0000 0.1401569853
H   H150      1.0  0.23220  0.35770  0.51970  1.0000 0.1401569853
H   H151      1.0  0.62840  0.13000  0.73700  1.0000 0.1401569853
H   H152      1.0  0.13000  0.73700  0.62840  1.0000 0.1401569853
H   H153      1.0  0.73700  0.62840  0.13000  1.0000 0.1401569853
H   H154      1.0  0.63000  0.12840  0.23700  1.0000 0.1401569853
H   H155      1.0  0.23700  0.63000  0.12840  1.0000 0.1401569853
H   H156      1.0  0.12840  0.23700  0.63000  1.0000 0.1401569853
H   H157      1.0  0.76270  0.27000  0.65840  1.0000 0.1304462312
H   H158      1.0  0.27000  0.65840  0.76270  1.0000 0.1304462312
H   H159      1.0  0.65840  0.76270  0.27000  1.0000 0.1304462312
H   H160      1.0  0.77000  0.26270  0.15840  1.0000 0.1304462312
H   H161      1.0  0.15840  0.77000  0.26270  1.0000 0.1304462312
H   H162      1.0  0.26270  0.15840  0.77000  1.0000 0.1304462312
H   H163      1.0  0.65970  0.37250  0.54500  1.0000 0.1401569853
H   H164      1.0  0.37250  0.54500  0.65970  1.0000 0.1401569853
H   H165      1.0  0.54500  0.65970  0.37250  1.0000 0.1401569853
H   H166      1.0  0.87250  0.15970  0.04500  1.0000 0.1401569853
H   H167      1.0  0.04500  0.87250  0.15970  1.0000 0.1401569853
H   H168      1.0  0.15970  0.04500  0.87250  1.0000 0.1401569853
H   H169      1.0  0.84060  0.01380  0.76210  1.0000 0.1207317088
H   H170      1.0  0.01380  0.76210  0.84060  1.0000 0.1207317088
H   H171      1.0  0.76210  0.84060  0.01380  1.0000 0.1207317088
H   H172      1.0  0.51380  0.34060  0.26210  1.0000 0.1207317088
H   H173      1.0  0.26210  0.51380  0.34060  1.0000 0.1207317088
H   H174      1.0  0.34060  0.26210  0.51380  1.0000 0.1207317088
H   H175      1.0  0.73540  0.11790  0.64130  1.0000 0.1207317088
H   H176      1.0  0.11790  0.64130  0.73540  1.0000 0.1207317088
H   H177      1.0  0.64130  0.73540  0.11790  1.0000 0.1207317088
H   H178      1.0  0.61790  0.23540  0.14130  1.0000 0.1207317088
H   H179      1.0  0.14130  0.61790  0.23540  1.0000 0.1207317088
H   H180      1.0  0.23540  0.14130  0.61790  1.0000 0.1207317088
H   H181      1.0  0.65750  0.28010  0.75640  1.0000 0.1304462312
H   H182      1.0  0.28010  0.75640  0.65750  1.0000 0.1304462312
H   H183      1.0  0.75640  0.65750  0.28010  1.0000 0.1304462312
H   H184      1.0  0.78010  0.15750  0.25640  1.0000 0.1304462312
H   H185      1.0  0.25640  0.78010  0.15750  1.0000 0.1304462312
H   H186      1.0  0.15750  0.25640  0.78010  1.0000 0.1304462312
H   H187      1.0  0.55260  0.38950  0.64120  1.0000 0.1207317088
H   H188      1.0  0.38950  0.64120  0.55260  1.0000 0.1207317088
H   H189      1.0  0.64120  0.55260  0.38950  1.0000 0.1207317088
H   H190      1.0  0.88950  0.05260  0.14120  1.0000 0.1207317088
H   H191      1.0  0.14120  0.88950  0.05260  1.0000 0.1207317088
H   H192      1.0  0.05260  0.14120  0.88950  1.0000 0.1207317088
H   H193      1.0  0.92620  0.91960  0.77070  1.0000 0.1207317088
H   H194      1.0  0.91960  0.77070  0.92620  1.0000 0.1207317088
H   H195      1.0  0.77070  0.92620  0.91960  1.0000 0.1207317088
H   H196      1.0  0.41960  0.42620  0.27070  1.0000 0.1207317088
H   H197      1.0  0.27070  0.41960  0.42620  1.0000 0.1207317088
H   H198      1.0  0.42620  0.27070  0.41960  1.0000 0.1207317088
H   H199      1.0  0.62040  0.08130  0.74590  1.0000 0.1118911894
H   H200      1.0  0.08130  0.74590  0.62040  1.0000 0.1118911894
H   H201      1.0  0.74590  0.62040  0.08130  1.0000 0.1118911894
H   H202      1.0  0.58130  0.12040  0.24590  1.0000 0.1118911894
H   H203      1.0  0.24590  0.58130  0.12040  1.0000 0.1118911894
H   H204      1.0  0.12040  0.24590  0.58130  1.0000 0.1118911894
H   H205      1.0  0.77450  0.07340  0.60070  1.0000 0.1207317088
H   H206      1.0  0.07340  0.60070  0.77450  1.0000 0.1118911894
H   H207      1.0  0.60070  0.77450  0.07340  1.0000 0.1118911894
H   H208      1.0  0.57340  0.27450  0.10070  1.0000 0.1118911894
H   H209      1.0  0.10070  0.57340  0.27450  1.0000 0.1118911894
H   H210      1.0  0.27450  0.10070  0.57340  1.0000 0.1118911894
H   H211      1.0  0.77340  0.31830  0.64750  1.0000 0.1207317088
H   H212      1.0  0.31830  0.64750  0.77340  1.0000 0.1207317088
H   H213      1.0  0.64750  0.77340  0.31830  1.0000 0.1207317088
H   H214      1.0  0.81830  0.27340  0.14750  1.0000 0.1207317088
H   H215      1.0  0.14750  0.81830  0.27340  1.0000 0.1207317088
H   H216      1.0  0.27340  0.14750  0.81830  1.0000 0.1207317088
H   H217      1.0  0.61860  0.32640  0.79620  1.0000 0.1207317088
H   H218      1.0  0.32640  0.79620  0.61860  1.0000 0.1207317088
H   H219      1.0  0.79620  0.61860  0.32640  1.0000 0.1207317088
H   H220      1.0  0.82640  0.11860  0.29620  1.0000 0.1207317088
H   H221      1.0  0.29620  0.82640  0.11860  1.0000 0.1207317088
H   H222      1.0  0.11860  0.29620  0.82640  1.0000 0.1207317088
H   H223      1.0  0.62740  0.46910  0.48270  1.0000 0.1118911894
H   H224      1.0  0.46910  0.48270  0.62740  1.0000 0.1118911894
H   H225      1.0  0.48270  0.62740  0.46910  1.0000 0.1118911894
H   H226      1.0  0.96910  0.12740  0.98270  1.0000 0.1118911894
H   H227      1.0  0.98270  0.96910  0.12740  1.0000 0.1118911894
H   H228      1.0  0.12740  0.98270  0.96910  1.0000 0.1118911894
H   H229      1.0  0.60080  0.00690  0.76440  1.0000 0.1207317088
H   H230      1.0  0.00690  0.76440  0.60080  1.0000 0.1207317088
H   H231      1.0  0.76440  0.60080  0.00690  1.0000 0.1207317088
H   H232      1.0  0.50690  0.10080  0.26440  1.0000 0.1207317088
H   H233      1.0  0.26440  0.50690  0.10080  1.0000 0.1207317088
H   H234      1.0  0.10080  0.26440  0.50690  1.0000 0.1207317088
H   H235      1.0  0.69250  0.00250  0.67730  1.0000 0.1118911894
H   H236      1.0  0.00250  0.67730  0.69250  1.0000 0.1118911894
H   H237      1.0  0.67730  0.69250  0.00250  1.0000 0.1118911894
H   H238      1.0  0.50250  0.19250  0.17730  1.0000 0.1207317088
H   H239      1.0  0.17730  0.50250  0.19250  1.0000 0.1118911894
H   H240      1.0  0.19250  0.17730  0.50250  1.0000 0.1118911894
H   H241      1.0  0.79240  0.98740  0.59290  1.0000 0.1207317088
H   H242      1.0  0.98740  0.59290  0.79240  1.0000 0.1207317088
H   H243      1.0  0.59290  0.79240  0.98740  1.0000 0.1207317088
H   H244      1.0  0.48740  0.29240  0.09290  1.0000 0.1207317088
H   H245      1.0  0.09290  0.48740  0.29240  1.0000 0.1207317088
H   H246      1.0  0.29240  0.09290  0.48740  1.0000 0.1207317088
H   H247      1.0  0.82390  0.36220  0.59730  1.0000 0.1207317088
H   H248      1.0  0.36220  0.59730  0.82390  1.0000 0.1207317088
H   H249      1.0  0.59730  0.82390  0.36220  1.0000 0.1207317088
H   H250      1.0  0.86220  0.32390  0.09730  1.0000 0.1207317088
H   H251      1.0  0.09730  0.86220  0.32390  1.0000 0.1207317088
H   H252      1.0  0.32390  0.09730  0.86220  1.0000 0.1207317088
H   H253      1.0  0.70140  0.39540  0.71960  1.0000 0.1118911894
H   H254      1.0  0.39540  0.71960  0.70140  1.0000 0.1118911894
H   H255      1.0  0.71960  0.70140  0.39540  1.0000 0.1118911894
H   H256      1.0  0.89540  0.20140  0.21960  1.0000 0.1118911894
H   H257      1.0  0.21960  0.89540  0.20140  1.0000 0.1118911894
H   H258      1.0  0.20140  0.21960  0.89540  1.0000 0.1118911894
H   H259      1.0  0.57170  0.37280  0.84150  1.0000 0.1304462312
H   H260      1.0  0.37280  0.84150  0.57170  1.0000 0.1304462312
H   H261      1.0  0.84150  0.57170  0.37280  1.0000 0.1304462312
H   H262      1.0  0.87280  0.07170  0.34150  1.0000 0.1304462312
H   H263      1.0  0.34150  0.87280  0.07170  1.0000 0.1304462312
H   H264      1.0  0.07170  0.34150  0.87280  1.0000 0.1304462312
H   H265      1.0  0.54750  0.06160  0.81200  1.0000 0.1401569853
H   H266      1.0  0.06160  0.81200  0.54750  1.0000 0.1401569853
H   H267      1.0  0.81200  0.54750  0.06160  1.0000 0.1401569853
H   H268      1.0  0.56160  0.04750  0.31200  1.0000 0.1401569853
H   H269      1.0  0.31200  0.56160  0.04750  1.0000 0.1401569853
H   H270      1.0  0.04750  0.31200  0.56160  1.0000 0.1401569853
H   H271      1.0  0.84180  0.04450  0.53510  1.0000 0.1304462312
H   H272      1.0  0.04450  0.53510  0.84180  1.0000 0.1304462312
H   H273      1.0  0.53510  0.84180  0.04450  1.0000 0.1304462312
H   H274      1.0  0.54450  0.34180  0.03510  1.0000 0.1304462312
H   H275      1.0  0.03510  0.54450  0.34180  1.0000 0.1304462312
H   H276      1.0  0.34180  0.03510  0.54450  1.0000 0.1304462312
H   H277      1.0  0.78880  0.38960  0.65900  1.0000 0.1401569853
H   H278      1.0  0.38960  0.65900  0.78880  1.0000 0.1401569853
H   H279      1.0  0.65900  0.78880  0.38960  1.0000 0.1401569853
H   H280      1.0  0.88960  0.28880  0.15900  1.0000 0.1401569853
H   H281      1.0  0.15900  0.88960  0.28880  1.0000 0.1401569853
H   H282      1.0  0.28880  0.15900  0.88960  1.0000 0.1401569853
H   H283      1.0  0.61980  0.43150  0.78190  1.0000 0.1401569853
H   H284      1.0  0.43150  0.78190  0.61980  1.0000 0.1401569853
H   H285      1.0  0.78190  0.61980  0.43150  1.0000 0.1401569853
H   H286      1.0  0.93150  0.11980  0.28190  1.0000 0.1401569853
H   H287      1.0  0.28190  0.93150  0.11980  1.0000 0.1401569853
H   H288      1.0  0.11980  0.28190  0.93150  1.0000 0.1401569853
C   C1        1.0  0.40520  0.76460  0.72430  1.0000 0.6086108134
C   C2        1.0  0.72430  0.40520  0.76460  1.0000 0.6086108134
C   C3        1.0  0.76460  0.72430  0.40520  1.0000 0.6086108134
C   C4        1.0  0.26460  0.90520  0.22430  1.0000 0.6086108134
C   C5        1.0  0.90520  0.22430  0.26460  1.0000 0.6086108134
C   C6        1.0  0.22430  0.26460  0.90520  1.0000 0.6086108134
C   C7        1.0  0.34240  0.82640  0.79370  1.0000 0.6285474221
C   C8        1.0  0.79370  0.34240  0.82640  1.0000 0.6285474221
C   C9        1.0  0.82640  0.79370  0.34240  1.0000 0.6285474221
C   C10       1.0  0.32640  0.84240  0.29370  1.0000 0.6285474221
C   C11       1.0  0.84240  0.29370  0.32640  1.0000 0.6285474221
C   C12       1.0  0.29370  0.32640  0.84240  1.0000 0.6285474221
C   C13       1.0  0.26280  0.78350  0.80370  1.0000 0.6086108134
C   C14       1.0  0.80370  0.26280  0.78350  1.0000 0.6086108134
C   C15       1.0  0.78350  0.80370  0.26280  1.0000 0.6086108134
C   C16       1.0  0.28350  0.76280  0.30370  1.0000 0.6086108134
C   C17       1.0  0.76280  0.30370  0.28350  1.0000 0.6049523887
C   C18       1.0  0.30370  0.28350  0.76280  1.0000 0.6086108134
C   C19       1.0  0.19900  0.84440  0.87360  1.0000 0.6207574261
C   C20       1.0  0.87360  0.19900  0.84440  1.0000 0.6207574261
C   C21       1.0  0.84440  0.87360  0.19900  1.0000 0.6207574261
C   C22       1.0  0.34440  0.69900  0.37360  1.0000 0.6207574261
C   C23       1.0  0.69900  0.37360  0.34440  1.0000 0.6207574261
C   C24       1.0  0.37360  0.34440  0.69900  1.0000 0.6207574261
C   C25       1.0  0.46660  0.74120  0.68210  1.0000 -0.233170266
C   C26       1.0  0.68210  0.46660  0.74120  1.0000 -0.233170266
C   C27       1.0  0.74120  0.68210  0.46660  1.0000 -0.233170266
C   C28       1.0  0.24120  0.96660  0.18210  1.0000 -0.233170266
C   C29       1.0  0.96660  0.18210  0.24120  1.0000 -0.233170266
C   C30       1.0  0.18210  0.24120  0.96660  1.0000 -0.233170266
C   C31       1.0  0.36810  0.83590  0.79200  1.0000 -0.1990189226
C   C32       1.0  0.79200  0.36810  0.83590  1.0000 -0.1990189226
C   C33       1.0  0.83590  0.79200  0.36810  1.0000 -0.1990189226
C   C34       1.0  0.33590  0.86810  0.29200  1.0000 -0.1990189226
C   C35       1.0  0.86810  0.29200  0.33590  1.0000 -0.1990189226
C   C36       1.0  0.29200  0.33590  0.86810  1.0000 -0.1990189226
C   C37       1.0  0.23370  0.77220  0.81040  1.0000 -0.1885984403
C   C38       1.0  0.81040  0.23370  0.77220  1.0000 -0.1885984403
C   C39       1.0  0.77220  0.81040  0.23370  1.0000 -0.1885984403
C   C40       1.0  0.27220  0.73370  0.31040  1.0000 -0.1885984403
C   C41       1.0  0.73370  0.31040  0.27220  1.0000 -0.1885984403
C   C42       1.0  0.31040  0.27220  0.73370  1.0000 -0.1885984403
C   C43       1.0  0.13860  0.86660  0.91470  1.0000 -0.2566394322
C   C44       1.0  0.91470  0.13860  0.86660  1.0000 -0.2566394322
C   C45       1.0  0.86660  0.91470  0.13860  1.0000 -0.2566394322
C   C46       1.0  0.36660  0.63860  0.41470  1.0000 -0.2566394322
C   C47       1.0  0.63860  0.41470  0.36660  1.0000 -0.2566394322
C   C48       1.0  0.41470  0.36660  0.63860  1.0000 -0.2566394322
C   C49       1.0  0.50250  0.68450  0.69820  1.0000 -0.0903617933
C   C50       1.0  0.69820  0.50250  0.68450  1.0000 -0.0903617933
C   C51       1.0  0.68450  0.69820  0.50250  1.0000 -0.0903617933
C   C52       1.0  0.18450  0.00250  0.19820  1.0000 -0.0903617933
C   C53       1.0  0.00250  0.19820  0.18450  1.0000 -0.0903617933
C   C54       1.0  0.19820  0.18450  0.00250  1.0000 -0.0903617933
C   C55       1.0  0.38780  0.79820  0.82780  1.0000 -0.0903617933
C   C56       1.0  0.82780  0.38780  0.79820  1.0000 -0.0903617933
C   C57       1.0  0.79820  0.82780  0.38780  1.0000 -0.0903617933
C   C58       1.0  0.29820  0.88780  0.32780  1.0000 -0.0903617933
C   C59       1.0  0.88780  0.32780  0.29820  1.0000 -0.0903617933
C   C60       1.0  0.32780  0.29820  0.88780  1.0000 -0.0903617933
C   C61       1.0  0.21430  0.80870  0.77490  1.0000 -0.0977704544
C   C62       1.0  0.77490  0.21430  0.80870  1.0000 -0.0977704544
C   C63       1.0  0.80870  0.77490  0.21430  1.0000 -0.0977704544
C   C64       1.0  0.30870  0.71430  0.27490  1.0000 -0.0977704544
C   C65       1.0  0.71430  0.27490  0.30870  1.0000 -0.0977704544
C   C66       1.0  0.27490  0.30870  0.71430  1.0000 -0.0977704544
C   C67       1.0  0.09790  0.92170  0.89920  1.0000 -0.0760748253
C   C68       1.0  0.89920  0.09790  0.92170  1.0000 -0.0760748253
C   C69       1.0  0.92170  0.89920  0.09790  1.0000 -0.0760748253
C   C70       1.0  0.42170  0.59790  0.39920  1.0000 -0.0760748253
C   C71       1.0  0.59790  0.39920  0.42170  1.0000 -0.0760748253
C   C72       1.0  0.39920  0.42170  0.59790  1.0000 -0.0760748253
C   C73       1.0  0.56610  0.65480  0.66150  1.0000 0.1207317088
C   C74       1.0  0.66150  0.56610  0.65480  1.0000 0.1207317088
C   C75       1.0  0.65480  0.66150  0.56610  1.0000 0.1207317088
C   C76       1.0  0.15480  0.06610  0.16150  1.0000 0.1207317088
C   C77       1.0  0.06610  0.16150  0.15480  1.0000 0.1207317088
C   C78       1.0  0.16150  0.15480  0.06610  1.0000 0.1207317088
C   C79       1.0  0.41860  0.80170  0.82600  1.0000 0.1118911894
C   C80       1.0  0.82600  0.41860  0.80170  1.0000 0.1118911894
C   C81       1.0  0.80170  0.82600  0.41860  1.0000 0.1118911894
C   C82       1.0  0.30170  0.91860  0.32600  1.0000 0.1118911894
C   C83       1.0  0.91860  0.32600  0.30170  1.0000 0.1118911894
C   C84       1.0  0.32600  0.30170  0.91860  1.0000 0.1118911894
C   C85       1.0  0.18420  0.80380  0.77770  1.0000 0.1207317088
C   C86       1.0  0.77770  0.18420  0.80380  1.0000 0.1207317088
C   C87       1.0  0.80380  0.77770  0.18420  1.0000 0.1207317088
C   C88       1.0  0.30380  0.68420  0.27770  1.0000 0.1207317088
C   C89       1.0  0.68420  0.27770  0.30380  1.0000 0.1207317088
C   C90       1.0  0.27770  0.30380  0.68420  1.0000 0.1207317088
C   C91       1.0  0.03360  0.94790  0.93910  1.0000 0.1118911894
C   C92       1.0  0.93910  0.03360  0.94790  1.0000 0.1118911894
C   C93       1.0  0.94790  0.93910  0.03360  1.0000 0.1118911894
C   C94       1.0  0.44790  0.53360  0.43910  1.0000 0.1118911894
C   C95       1.0  0.53360  0.43910  0.44790  1.0000 0.1118911894
C   C96       1.0  0.43910  0.44790  0.53360  1.0000 0.1118911894
C   C97       1.0  0.59890  0.59550  0.68850  1.0000 -0.2094056098
C   C98       1.0  0.68850  0.59890  0.59550  1.0000 -0.2094056098
C   C99       1.0  0.59550  0.68850  0.59890  1.0000 -0.2094056098
C   C100      1.0  0.09550  0.09890  0.18850  1.0000 -0.2094056098
C   C101      1.0  0.09890  0.18850  0.09550  1.0000 -0.2094056098
C   C102      1.0  0.18850  0.09550  0.09890  1.0000 -0.2094056098
C   C103      1.0  0.43070  0.84850  0.78340  1.0000 -0.1990189226
C   C104      1.0  0.78340  0.43070  0.84850  1.0000 -0.1990189226
C   C105      1.0  0.84850  0.78340  0.43070  1.0000 -0.1990189226
C   C106      1.0  0.34850  0.93070  0.28340  1.0000 -0.1990189226
C   C107      1.0  0.93070  0.28340  0.34850  1.0000 -0.1990189226
C   C108      1.0  0.28340  0.34850  0.93070  1.0000 -0.1990189226
C   C109      1.0  0.43600  0.75650  0.86920  1.0000 -0.2094056098
C   C110      1.0  0.86920  0.43600  0.75650  1.0000 -0.2094056098
C   C111      1.0  0.75650  0.86920  0.43600  1.0000 -0.2094056098
C   C112      1.0  0.25650  0.93600  0.36920  1.0000 -0.2094056098
C   C113      1.0  0.93600  0.36920  0.25650  1.0000 -0.2094056098
C   C114      1.0  0.36920  0.25650  0.93600  1.0000 -0.2094056098
C   C115      1.0  0.17110  0.75680  0.82250  1.0000 -0.2183710254
C   C116      1.0  0.82250  0.17110  0.75680  1.0000 -0.2183710254
C   C117      1.0  0.75680  0.82250  0.17110  1.0000 -0.2183710254
C   C118      1.0  0.25680  0.67110  0.32250  1.0000 -0.2183710254
C   C119      1.0  0.67110  0.32250  0.25680  1.0000 -0.2183710254
C   C120      1.0  0.32250  0.25680  0.67110  1.0000 -0.2183710254
C   C121      1.0  0.16540  0.84950  0.73410  1.0000 -0.2183710254
C   C122      1.0  0.73410  0.16540  0.84950  1.0000 -0.2183710254
C   C123      1.0  0.84950  0.73410  0.16540  1.0000 -0.2183710254
C   C124      1.0  0.34950  0.66540  0.23410  1.0000 -0.2183710254
C   C125      1.0  0.66540  0.23410  0.34950  1.0000 -0.2183710254
C   C126      1.0  0.23410  0.34950  0.66540  1.0000 -0.2183710254
C   C127      1.0  0.00770  0.91310  0.99980  1.0000 -0.2094056098
C   C128      1.0  0.99980  0.00770  0.91310  1.0000 -0.2094056098
C   C129      1.0  0.91310  0.99980  0.00770  1.0000 -0.2094056098
C   C130      1.0  0.41310  0.50770  0.49980  1.0000 -0.2094056098
C   C131      1.0  0.50770  0.49980  0.41310  1.0000 -0.2094056098
C   C132      1.0  0.49980  0.41310  0.50770  1.0000 -0.2094056098
C   C133      1.0  0.45910  0.85180  0.78150  1.0000 0.1014185839
C   C134      1.0  0.78150  0.45910  0.85180  1.0000 0.1014185839
C   C135      1.0  0.85180  0.78150  0.45910  1.0000 0.1014185839
C   C136      1.0  0.35180  0.95910  0.28150  1.0000 0.1014185839
C   C137      1.0  0.95910  0.28150  0.35180  1.0000 0.1014185839
C   C138      1.0  0.28150  0.35180  0.95910  1.0000 0.1014185839
C   C139      1.0  0.46700  0.75520  0.86970  1.0000 0.1207317088
C   C140      1.0  0.86970  0.46700  0.75520  1.0000 0.1207317088
C   C141      1.0  0.75520  0.86970  0.46700  1.0000 0.1207317088
C   C142      1.0  0.25520  0.96700  0.36970  1.0000 0.1207317088
C   C143      1.0  0.96700  0.36970  0.25520  1.0000 0.1207317088
C   C144      1.0  0.36970  0.25520  0.96700  1.0000 0.1207317088
C   C145      1.0  0.14250  0.75420  0.82320  1.0000 0.1207317088
C   C146      1.0  0.82320  0.14250  0.75420  1.0000 0.1207317088
C   C147      1.0  0.75420  0.82320  0.14250  1.0000 0.1207317088
C   C148      1.0  0.25420  0.64250  0.32320  1.0000 0.1207317088
C   C149      1.0  0.64250  0.32320  0.25420  1.0000 0.1207317088
C   C150      1.0  0.32320  0.25420  0.64250  1.0000 0.1207317088
C   C151      1.0  0.13580  0.84920  0.73440  1.0000 0.1207317088
C   C152      1.0  0.73440  0.13580  0.84920  1.0000 0.1207317088
C   C153      1.0  0.84920  0.73440  0.13580  1.0000 0.1207317088
C   C154      1.0  0.34920  0.63580  0.23440  1.0000 0.1207317088
C   C155      1.0  0.63580  0.23440  0.34920  1.0000 0.1207317088
C   C156      1.0  0.23440  0.34920  0.63580  1.0000 0.1207317088
C   C157      1.0  0.47250  0.90170  0.73340  1.0000 -0.0903617933
C   C158      1.0  0.73340  0.47250  0.90170  1.0000 -0.0903617933
C   C159      1.0  0.90170  0.73340  0.47250  1.0000 -0.0903617933
C   C160      1.0  0.40170  0.97250  0.23340  1.0000 -0.0903617933
C   C161      1.0  0.97250  0.23340  0.40170  1.0000 -0.0903617933
C   C162      1.0  0.23340  0.40170  0.97250  1.0000 -0.0903617933
C   C163      1.0  0.47770  0.80600  0.82360  1.0000 -0.2183710254
C   C164      1.0  0.82360  0.47770  0.80600  1.0000 -0.2183710254
C   C165      1.0  0.80600  0.82360  0.47770  1.0000 -0.2183710254
C   C166      1.0  0.30600  0.97770  0.32360  1.0000 -0.2183710254
C   C167      1.0  0.97770  0.32360  0.30600  1.0000 -0.2183710254
C   C168      1.0  0.32360  0.30600  0.97770  1.0000 -0.2183710254
C   C169      1.0  0.48930  0.70580  0.91280  1.0000 -0.1056577105
C   C170      1.0  0.91280  0.48930  0.70580  1.0000 -0.1056577105
C   C171      1.0  0.70580  0.91280  0.48930  1.0000 -0.1056577105
C   C172      1.0  0.20580  0.98930  0.41280  1.0000 -0.1056577105
C   C173      1.0  0.98930  0.41280  0.20580  1.0000 -0.1056577105
C   C174      1.0  0.41280  0.20580  0.98930  1.0000 -0.1056577105
C   C175      1.0  0.13060  0.70200  0.87150  1.0000 -0.0977704544
C   C176      1.0  0.87150  0.13060  0.70200  1.0000 -0.0977704544
C   C177      1.0  0.70200  0.87150  0.13060  1.0000 -0.0977704544
C   C178      1.0  0.20200  0.63060  0.37150  1.0000 -0.0977704544
C   C179      1.0  0.63060  0.37150  0.20200  1.0000 -0.0977704544
C   C180      1.0  0.37150  0.20200  0.63060  1.0000 -0.0977704544
C   C181      1.0  0.12420  0.80020  0.77970  1.0000 -0.2183710254
C   C182      1.0  0.77970  0.12420  0.80020  1.0000 -0.2183710254
C   C183      1.0  0.80020  0.77970  0.12420  1.0000 -0.2183710254
C   C184      1.0  0.30020  0.62420  0.27970  1.0000 -0.2183710254
C   C185      1.0  0.62420  0.27970  0.30020  1.0000 -0.2183710254
C   C186      1.0  0.27970  0.30020  0.62420  1.0000 -0.2183710254
C   C187      1.0  0.11450  0.89970  0.68940  1.0000 -0.0903617933
C   C188      1.0  0.68940  0.11450  0.89970  1.0000 -0.0903617933
C   C189      1.0  0.89970  0.68940  0.11450  1.0000 -0.0903617933
C   C190      1.0  0.39970  0.61450  0.18940  1.0000 -0.0903617933
C   C191      1.0  0.61450  0.18940  0.39970  1.0000 -0.0903617933
C   C192      1.0  0.18940  0.39970  0.61450  1.0000 -0.0903617933
C   C193      1.0  0.46120  0.94750  0.68970  1.0000 -0.1885984403
C   C194      1.0  0.68970  0.46120  0.94750  1.0000 -0.1885984403
C   C195      1.0  0.94750  0.68970  0.46120  1.0000 -0.1885984403
C   C196      1.0  0.44750  0.96120  0.18970  1.0000 -0.1885984403
C   C197      1.0  0.96120  0.18970  0.44750  1.0000 -0.1885984403
C   C198      1.0  0.18970  0.44750  0.96120  1.0000 -0.1885984403
C   C199      1.0  0.47990  0.65980  0.95790  1.0000 -0.1838749631
C   C200      1.0  0.95790  0.47990  0.65980  1.0000 -0.1838749631
C   C201      1.0  0.65980  0.95790  0.47990  1.0000 -0.1838749631
C   C202      1.0  0.15980  0.97990  0.45790  1.0000 -0.1838749631
C   C203      1.0  0.97990  0.45790  0.15980  1.0000 -0.1838749631
C   C204      1.0  0.45790  0.15980  0.97990  1.0000 -0.1838749631
C   C205      1.0  0.11190  0.68930  0.87450  1.0000 -0.1885984403
C   C206      1.0  0.87450  0.11190  0.68930  1.0000 -0.1838749631
C   C207      1.0  0.68930  0.87450  0.11190  1.0000 -0.1885984403
C   C208      1.0  0.18930  0.61190  0.37450  1.0000 -0.1838749631
C   C209      1.0  0.61190  0.37450  0.18930  1.0000 -0.1838749631
C   C210      1.0  0.37450  0.18930  0.61190  1.0000 -0.1885984403
C   C211      1.0  0.08150  0.90850  0.68780  1.0000 -0.1885984403
C   C212      1.0  0.68780  0.08150  0.90850  1.0000 -0.1885984403
C   C213      1.0  0.90850  0.68780  0.08150  1.0000 -0.1885984403
C   C214      1.0  0.40850  0.58150  0.18780  1.0000 -0.1885984403
C   C215      1.0  0.58150  0.18780  0.40850  1.0000 -0.1885984403
C   C216      1.0  0.18780  0.40850  0.58150  1.0000 -0.1885984403
C   C217      1.0  0.47990  0.99480  0.64050  1.0000 0.6285474221
C   C218      1.0  0.64050  0.47990  0.99480  1.0000 0.6285474221
C   C219      1.0  0.99480  0.64050  0.47990  1.0000 0.6285474221
C   C220      1.0  0.49480  0.97990  0.14050  1.0000 0.6285474221
C   C221      1.0  0.97990  0.14050  0.49480  1.0000 0.6285474221
C   C222      1.0  0.14050  0.49480  0.97990  1.0000 0.6285474221
C   C223      1.0  0.50600  0.60790  0.00080  1.0000 0.6207574261
C   C224      1.0  0.00080  0.50600  0.60790  1.0000 0.6207574261
C   C225      1.0  0.60790  0.00080  0.50600  1.0000 0.6207574261
C   C226      1.0  0.10790  0.00600  0.50080  1.0000 0.6207574261
C   C227      1.0  0.00600  0.50080  0.10790  1.0000 0.6207574261
C   C228      1.0  0.50080  0.10790  0.00600  1.0000 0.6207574261
C   C229      1.0  0.09190  0.64210  0.92740  1.0000 0.6207574261
C   C230      1.0  0.92740  0.09190  0.64210  1.0000 0.6207574261
C   C231      1.0  0.64210  0.92740  0.09190  1.0000 0.6207574261
C   C232      1.0  0.14210  0.59190  0.42740  1.0000 0.6207574261
C   C233      1.0  0.59190  0.42740  0.14210  1.0000 0.6207574261
C   C234      1.0  0.42740  0.14210  0.59190  1.0000 0.6207574261
C   C235      1.0  0.06140  0.96070  0.64100  1.0000 0.6285474221
C   C236      1.0  0.64100  0.06140  0.96070  1.0000 0.6285474221
C   C237      1.0  0.96070  0.64100  0.06140  1.0000 0.6285474221
C   C238      1.0  0.46070  0.56140  0.14100  1.0000 0.6285474221
C   C239      1.0  0.56140  0.14100  0.46070  1.0000 0.6285474221
C   C240      1.0  0.14100  0.46070  0.56140  1.0000 0.6285474221
C   C241      1.0  0.73540  0.09480  0.77570  1.0000 0.6086108134
C   C242      1.0  0.09480  0.77570  0.73540  1.0000 0.6086108134
C   C243      1.0  0.77570  0.73540  0.09480  1.0000 0.6086108134
C   C244      1.0  0.59480  0.23540  0.27570  1.0000 0.6086108134
C   C245      1.0  0.27570  0.59480  0.23540  1.0000 0.6086108134
C   C246      1.0  0.23540  0.27570  0.59480  1.0000 0.6086108134
C   C247      1.0  0.67360  0.15760  0.70630  1.0000 0.6285474221
C   C248      1.0  0.15760  0.70630  0.67360  1.0000 0.6285474221
C   C249      1.0  0.70630  0.67360  0.15760  1.0000 0.6285474221
C   C250      1.0  0.65760  0.17360  0.20630  1.0000 0.6285474221
C   C251      1.0  0.20630  0.65760  0.17360  1.0000 0.6285474221
C   C252      1.0  0.17360  0.20630  0.65760  1.0000 0.6285474221
C   C253      1.0  0.71650  0.23720  0.69630  1.0000 0.6086108134
C   C254      1.0  0.23720  0.69630  0.71650  1.0000 0.6086108134
C   C255      1.0  0.69630  0.71650  0.23720  1.0000 0.6086108134
C   C256      1.0  0.73720  0.21650  0.19630  1.0000 0.6086108134
C   C257      1.0  0.19630  0.73720  0.21650  1.0000 0.6049523887
C   C258      1.0  0.21650  0.19630  0.73720  1.0000 0.6086108134
C   C259      1.0  0.65560  0.30100  0.62640  1.0000 0.6207574261
C   C260      1.0  0.30100  0.62640  0.65560  1.0000 0.6207574261
C   C261      1.0  0.62640  0.65560  0.30100  1.0000 0.6207574261
C   C262      1.0  0.80100  0.15560  0.12640  1.0000 0.6207574261
C   C263      1.0  0.12640  0.80100  0.15560  1.0000 0.6207574261
C   C264      1.0  0.15560  0.12640  0.80100  1.0000 0.6207574261
C   C265      1.0  0.75880  0.03340  0.81790  1.0000 -0.233170266
C   C266      1.0  0.03340  0.81790  0.75880  1.0000 -0.233170266
C   C267      1.0  0.81790  0.75880  0.03340  1.0000 -0.233170266
C   C268      1.0  0.53340  0.25880  0.31790  1.0000 -0.233170266
C   C269      1.0  0.31790  0.53340  0.25880  1.0000 -0.233170266
C   C270      1.0  0.25880  0.31790  0.53340  1.0000 -0.233170266
C   C271      1.0  0.66410  0.13190  0.70800  1.0000 -0.1990189226
C   C272      1.0  0.13190  0.70800  0.66410  1.0000 -0.1990189226
C   C273      1.0  0.70800  0.66410  0.13190  1.0000 -0.1990189226
C   C274      1.0  0.63190  0.16410  0.20800  1.0000 -0.1990189226
C   C275      1.0  0.20800  0.63190  0.16410  1.0000 -0.1990189226
C   C276      1.0  0.16410  0.20800  0.63190  1.0000 -0.1885984403
C   C277      1.0  0.72780  0.26630  0.68960  1.0000 -0.1885984403
C   C278      1.0  0.26630  0.68960  0.72780  1.0000 -0.1885984403
C   C279      1.0  0.68960  0.72780  0.26630  1.0000 -0.1885984403
C   C280      1.0  0.76630  0.22780  0.18960  1.0000 -0.1885984403
C   C281      1.0  0.18960  0.76630  0.22780  1.0000 -0.1885984403
C   C282      1.0  0.22780  0.18960  0.76630  1.0000 -0.1885984403
C   C283      1.0  0.63340  0.36140  0.58530  1.0000 -0.2566394322
C   C284      1.0  0.36140  0.58530  0.63340  1.0000 -0.2566394322
C   C285      1.0  0.58530  0.63340  0.36140  1.0000 -0.2566394322
C   C286      1.0  0.86140  0.13340  0.08530  1.0000 -0.2566394322
C   C287      1.0  0.08530  0.86140  0.13340  1.0000 -0.2566394322
C   C288      1.0  0.13340  0.08530  0.86140  1.0000 -0.2566394322
C   C289      1.0  0.81550  0.99750  0.80180  1.0000 -0.0903617933
C   C290      1.0  0.99750  0.80180  0.81550  1.0000 -0.0903617933
C   C291      1.0  0.80180  0.81550  0.99750  1.0000 -0.0903617933
C   C292      1.0  0.49750  0.31550  0.30180  1.0000 -0.0903617933
C   C293      1.0  0.30180  0.49750  0.31550  1.0000 -0.0903617933
C   C294      1.0  0.31550  0.30180  0.49750  1.0000 -0.0903617933
C   C295      1.0  0.70180  0.11220  0.67220  1.0000 -0.0903617933
C   C296      1.0  0.11220  0.67220  0.70180  1.0000 -0.0903617933
C   C297      1.0  0.67220  0.70180  0.11220  1.0000 -0.0903617933
C   C298      1.0  0.61220  0.20180  0.17220  1.0000 -0.0903617933
C   C299      1.0  0.17220  0.61220  0.20180  1.0000 -0.0903617933
C   C300      1.0  0.20180  0.17220  0.61220  1.0000 -0.0903617933
C   C301      1.0  0.69130  0.28570  0.72510  1.0000 -0.0977704544
C   C302      1.0  0.28570  0.72510  0.69130  1.0000 -0.0977704544
C   C303      1.0  0.72510  0.69130  0.28570  1.0000 -0.0977704544
C   C304      1.0  0.78570  0.19130  0.22510  1.0000 -0.0977704544
C   C305      1.0  0.22510  0.78570  0.19130  1.0000 -0.0977704544
C   C306      1.0  0.19130  0.22510  0.78570  1.0000 -0.0977704544
C   C307      1.0  0.57830  0.40210  0.60080  1.0000 -0.0760748253
C   C308      1.0  0.40210  0.60080  0.57830  1.0000 -0.0760748253
C   C309      1.0  0.60080  0.57830  0.40210  1.0000 -0.0760748253
C   C310      1.0  0.90210  0.07830  0.10080  1.0000 -0.0760748253
C   C311      1.0  0.10080  0.90210  0.07830  1.0000 -0.0760748253
C   C312      1.0  0.07830  0.10080  0.90210  1.0000 -0.0748872298
C   C313      1.0  0.84520  0.93390  0.83850  1.0000 0.1207317088
C   C314      1.0  0.93390  0.83850  0.84520  1.0000 0.1207317088
C   C315      1.0  0.83850  0.84520  0.93390  1.0000 0.1207317088
C   C316      1.0  0.43390  0.34520  0.33850  1.0000 0.1207317088
C   C317      1.0  0.33850  0.43390  0.34520  1.0000 0.1207317088
C   C318      1.0  0.34520  0.33850  0.43390  1.0000 0.1207317088
C   C319      1.0  0.69830  0.08140  0.67400  1.0000 0.1118911894
C   C320      1.0  0.08140  0.67400  0.69830  1.0000 0.1118911894
C   C321      1.0  0.67400  0.69830  0.08140  1.0000 0.1118911894
C   C322      1.0  0.58140  0.19830  0.17400  1.0000 0.1118911894
C   C323      1.0  0.17400  0.58140  0.19830  1.0000 0.1118911894
C   C324      1.0  0.19830  0.17400  0.58140  1.0000 0.1118911894
C   C325      1.0  0.69620  0.31580  0.72230  1.0000 0.1207317088
C   C326      1.0  0.31580  0.72230  0.69620  1.0000 0.1207317088
C   C327      1.0  0.72230  0.69620  0.31580  1.0000 0.1207317088
C   C328      1.0  0.81580  0.19620  0.22230  1.0000 0.1207317088
C   C329      1.0  0.22230  0.81580  0.19620  1.0000 0.1207317088
C   C330      1.0  0.19620  0.22230  0.81580  1.0000 0.1207317088
C   C331      1.0  0.55210  0.46640  0.56090  1.0000 0.1118911894
C   C332      1.0  0.46640  0.56090  0.55210  1.0000 0.1118911894
C   C333      1.0  0.56090  0.55210  0.46640  1.0000 0.1118911894
C   C334      1.0  0.96640  0.05210  0.06090  1.0000 0.1118911894
C   C335      1.0  0.06090  0.96640  0.05210  1.0000 0.1118911894
C   C336      1.0  0.05210  0.06090  0.96640  1.0000 0.1118911894
C   C337      1.0  0.90450  0.90110  0.81150  1.0000 -0.2094056098
C   C338      1.0  0.90110  0.81150  0.90450  1.0000 -0.2094056098
C   C339      1.0  0.81150  0.90450  0.90110  1.0000 -0.2094056098
C   C340      1.0  0.40110  0.40450  0.31150  1.0000 -0.2094056098
C   C341      1.0  0.31150  0.40110  0.40450  1.0000 -0.2094056098
C   C342      1.0  0.40450  0.31150  0.40110  1.0000 -0.2094056098
C   C343      1.0  0.65150  0.06930  0.71660  1.0000 -0.1990189226
C   C344      1.0  0.06930  0.71660  0.65150  1.0000 -0.1990189226
C   C345      1.0  0.71660  0.65150  0.06930  1.0000 -0.1990189226
C   C346      1.0  0.56930  0.15150  0.21660  1.0000 -0.1990189226
C   C347      1.0  0.21660  0.56930  0.15150  1.0000 -0.1990189226
C   C348      1.0  0.15150  0.21660  0.56930  1.0000 -0.1990189226
C   C349      1.0  0.74350  0.06400  0.63080  1.0000 -0.2094056098
C   C350      1.0  0.06400  0.63080  0.74350  1.0000 -0.2094056098
C   C351      1.0  0.63080  0.74350  0.06400  1.0000 -0.2094056098
C   C352      1.0  0.56400  0.24350  0.13080  1.0000 -0.2094056098
C   C353      1.0  0.13080  0.56400  0.24350  1.0000 -0.2094056098
C   C354      1.0  0.24350  0.13080  0.56400  1.0000 -0.2094056098
C   C355      1.0  0.74320  0.32890  0.67750  1.0000 -0.2183710254
C   C356      1.0  0.32890  0.67750  0.74320  1.0000 -0.2183710254
C   C357      1.0  0.67750  0.74320  0.32890  1.0000 -0.2183710254
C   C358      1.0  0.82890  0.24320  0.17750  1.0000 -0.2183710254
C   C359      1.0  0.17750  0.82890  0.24320  1.0000 -0.2183710254
C   C360      1.0  0.24320  0.17750  0.82890  1.0000 -0.2183710254
C   C361      1.0  0.65050  0.33460  0.76590  1.0000 -0.2183710254
C   C362      1.0  0.33460  0.76590  0.65050  1.0000 -0.2183710254
C   C363      1.0  0.76590  0.65050  0.33460  1.0000 -0.2183710254
C   C364      1.0  0.83460  0.15050  0.26590  1.0000 -0.2183710254
C   C365      1.0  0.26590  0.83460  0.15050  1.0000 -0.2183710254
C   C366      1.0  0.15050  0.26590  0.83460  1.0000 -0.2183710254
C   C367      1.0  0.58690  0.49230  0.50020  1.0000 -0.2094056098
C   C368      1.0  0.49230  0.50020  0.58690  1.0000 -0.2094056098
C   C369      1.0  0.50020  0.58690  0.49230  1.0000 -0.2094056098
C   C370      1.0  0.99230  0.08690  0.00020  1.0000 -0.2094056098
C   C371      1.0  0.00020  0.99230  0.08690  1.0000 -0.2094056098
C   C372      1.0  0.08690  0.00020  0.99230  1.0000 -0.2094056098
C   C373      1.0  0.64820  0.04090  0.71850  1.0000 0.1014185839
C   C374      1.0  0.04090  0.71850  0.64820  1.0000 0.1014185839
C   C375      1.0  0.71850  0.64820  0.04090  1.0000 0.1014185839
C   C376      1.0  0.54090  0.14820  0.21850  1.0000 0.1014185839
C   C377      1.0  0.21850  0.54090  0.14820  1.0000 0.1014185839
C   C378      1.0  0.14820  0.21850  0.54090  1.0000 0.1014185839
C   C379      1.0  0.74480  0.03300  0.63030  1.0000 0.1207317088
C   C380      1.0  0.03300  0.63030  0.74480  1.0000 0.1207317088
C   C381      1.0  0.63030  0.74480  0.03300  1.0000 0.1207317088
C   C382      1.0  0.53300  0.24480  0.13030  1.0000 0.1207317088
C   C383      1.0  0.13030  0.53300  0.24480  1.0000 0.1207317088
C   C384      1.0  0.24480  0.13030  0.53300  1.0000 0.1207317088
C   C385      1.0  0.74580  0.35750  0.67680  1.0000 0.1207317088
C   C386      1.0  0.35750  0.67680  0.74580  1.0000 0.1207317088
C   C387      1.0  0.67680  0.74580  0.35750  1.0000 0.1207317088
C   C388      1.0  0.85750  0.24580  0.17680  1.0000 0.1207317088
C   C389      1.0  0.17680  0.85750  0.24580  1.0000 0.1207317088
C   C390      1.0  0.24580  0.17680  0.85750  1.0000 0.1207317088
C   C391      1.0  0.65080  0.36420  0.76560  1.0000 0.1207317088
C   C392      1.0  0.36420  0.76560  0.65080  1.0000 0.1207317088
C   C393      1.0  0.76560  0.65080  0.36420  1.0000 0.1207317088
C   C394      1.0  0.86420  0.15080  0.26560  1.0000 0.1207317088
C   C395      1.0  0.26560  0.86420  0.15080  1.0000 0.1207317088
C   C396      1.0  0.15080  0.26560  0.86420  1.0000 0.1207317088
C   C397      1.0  0.59830  0.02750  0.76660  1.0000 -0.0903617933
C   C398      1.0  0.02750  0.76660  0.59830  1.0000 -0.0903617933
C   C399      1.0  0.76660  0.59830  0.02750  1.0000 -0.0903617933
C   C400      1.0  0.52750  0.09830  0.26660  1.0000 -0.0903617933
C   C401      1.0  0.26660  0.52750  0.09830  1.0000 -0.0903617933
C   C402      1.0  0.09830  0.26660  0.52750  1.0000 -0.0903617933
C   C403      1.0  0.69400  0.02230  0.67640  1.0000 -0.2183710254
C   C404      1.0  0.02230  0.67640  0.69400  1.0000 -0.2183710254
C   C405      1.0  0.67640  0.69400  0.02230  1.0000 -0.2183710254
C   C406      1.0  0.52230  0.19400  0.17640  1.0000 -0.2183710254
C   C407      1.0  0.17640  0.52230  0.19400  1.0000 -0.2183710254
C   C408      1.0  0.19400  0.17640  0.52230  1.0000 -0.2183710254
C   C409      1.0  0.79420  0.01070  0.58720  1.0000 -0.1056577105
C   C410      1.0  0.01070  0.58720  0.79420  1.0000 -0.1056577105
C   C411      1.0  0.58720  0.79420  0.01070  1.0000 -0.1056577105
C   C412      1.0  0.51070  0.29420  0.08720  1.0000 -0.1056577105
C   C413      1.0  0.08720  0.51070  0.29420  1.0000 -0.1056577105
C   C414      1.0  0.29420  0.08720  0.51070  1.0000 -0.1056577105
C   C415      1.0  0.79800  0.36940  0.62850  1.0000 -0.0977704544
C   C416      1.0  0.36940  0.62850  0.79800  1.0000 -0.0977704544
C   C417      1.0  0.62850  0.79800  0.36940  1.0000 -0.0977704544
C   C418      1.0  0.86940  0.29800  0.12850  1.0000 -0.0977704544
C   C419      1.0  0.12850  0.86940  0.29800  1.0000 -0.0977704544
C   C420      1.0  0.29800  0.12850  0.86940  1.0000 -0.0977704544
C   C421      1.0  0.69980  0.37580  0.72030  1.0000 -0.2183710254
C   C422      1.0  0.37580  0.72030  0.69980  1.0000 -0.2183710254
C   C423      1.0  0.72030  0.69980  0.37580  1.0000 -0.2183710254
C   C424      1.0  0.87580  0.19980  0.22030  1.0000 -0.2183710254
C   C425      1.0  0.22030  0.87580  0.19980  1.0000 -0.2183710254
C   C426      1.0  0.19980  0.22030  0.87580  1.0000 -0.2183710254
C   C427      1.0  0.60030  0.38550  0.81060  1.0000 -0.0903617933
C   C428      1.0  0.38550  0.81060  0.60030  1.0000 -0.0903617933
C   C429      1.0  0.81060  0.60030  0.38550  1.0000 -0.0903617933
C   C430      1.0  0.88550  0.10030  0.31060  1.0000 -0.0903617933
C   C431      1.0  0.31060  0.88550  0.10030  1.0000 -0.0903617933
C   C432      1.0  0.10030  0.31060  0.88550  1.0000 -0.0903617933
C   C433      1.0  0.55250  0.03880  0.81030  1.0000 -0.1885984403
C   C434      1.0  0.03880  0.81030  0.55250  1.0000 -0.1885984403
C   C435      1.0  0.81030  0.55250  0.03880  1.0000 -0.1885984403
C   C436      1.0  0.53880  0.05250  0.31030  1.0000 -0.1885984403
C   C437      1.0  0.31030  0.53880  0.05250  1.0000 -0.1885984403
C   C438      1.0  0.05250  0.31030  0.53880  1.0000 -0.1885984403
C   C439      1.0  0.84020  0.02010  0.54210  1.0000 -0.1838749631
C   C440      1.0  0.02010  0.54210  0.84020  1.0000 -0.1838749631
C   C441      1.0  0.54210  0.84020  0.02010  1.0000 -0.1838749631
C   C442      1.0  0.52010  0.34020  0.04210  1.0000 -0.1838749631
C   C443      1.0  0.04210  0.52010  0.34020  1.0000 -0.1838749631
C   C444      1.0  0.34020  0.04210  0.52010  1.0000 -0.1838749631
C   C445      1.0  0.81070  0.38810  0.62550  1.0000 -0.1838749631
C   C446      1.0  0.38810  0.62550  0.81070  1.0000 -0.1885984403
C   C447      1.0  0.62550  0.81070  0.38810  1.0000 -0.1885984403
C   C448      1.0  0.88810  0.31070  0.12550  1.0000 -0.1838749631
C   C449      1.0  0.12550  0.88810  0.31070  1.0000 -0.1885984403
C   C450      1.0  0.31070  0.12550  0.88810  1.0000 -0.1885984403
C   C451      1.0  0.59150  0.41850  0.81220  1.0000 -0.1885984403
C   C452      1.0  0.41850  0.81220  0.59150  1.0000 -0.1885984403
C   C453      1.0  0.81220  0.59150  0.41850  1.0000 -0.1885984403
C   C454      1.0  0.91850  0.09150  0.31220  1.0000 -0.1885984403
C   C455      1.0  0.31220  0.91850  0.09150  1.0000 -0.1885984403
C   C456      1.0  0.09150  0.31220  0.91850  1.0000 -0.1885984403
C   C457      1.0  0.50520  0.02010  0.85950  1.0000 0.6285474221
C   C458      1.0  0.02010  0.85950  0.50520  1.0000 0.6285474221
C   C459      1.0  0.85950  0.50520  0.02010  1.0000 0.6285474221
C   C460      1.0  0.52010  0.00520  0.35950  1.0000 0.6285474221
C   C461      1.0  0.35950  0.52010  0.00520  1.0000 0.6285474221
C   C462      1.0  0.00520  0.35950  0.52010  1.0000 0.6285474221
C   C463      1.0  0.89210  0.99400  0.49920  1.0000 0.6207574261
C   C464      1.0  0.99400  0.49920  0.89210  1.0000 0.6207574261
C   C465      1.0  0.49920  0.89210  0.99400  1.0000 0.6207574261
C   C466      1.0  0.49400  0.39210  0.99920  1.0000 0.6207574261
C   C467      1.0  0.99920  0.49400  0.39210  1.0000 0.6207574261
C   C468      1.0  0.39210  0.99920  0.49400  1.0000 0.6207574261
C   C469      1.0  0.85790  0.40810  0.57260  1.0000 0.6207574261
C   C470      1.0  0.40810  0.57260  0.85790  1.0000 0.6207574261
C   C471      1.0  0.57260  0.85790  0.40810  1.0000 0.6207574261
C   C472      1.0  0.90810  0.35790  0.07260  1.0000 0.6207574261
C   C473      1.0  0.07260  0.90810  0.35790  1.0000 0.6207574261
C   C474      1.0  0.35790  0.07260  0.90810  1.0000 0.6207574261
C   C475      1.0  0.53930  0.43860  0.85900  1.0000 0.6285474221
C   C476      1.0  0.43860  0.85900  0.53930  1.0000 0.6285474221
C   C477      1.0  0.85900  0.53930  0.43860  1.0000 0.6285474221
C   C478      1.0  0.93860  0.03930  0.35900  1.0000 0.6285474221
C   C479      1.0  0.35900  0.93860  0.03930  1.0000 0.6285474221
C   C480      1.0  0.03930  0.35900  0.93860  1.0000 0.6285474221
O   O1        1.0  0.39090  0.72750  0.77870  1.0000 -0.527092353
O   O2        1.0  0.77870  0.39090  0.72750  1.0000 -0.527092353
O   O3        1.0  0.72750  0.77870  0.39090  1.0000 -0.527092353
O   O4        1.0  0.22750  0.89090  0.27870  1.0000 -0.527092353
O   O5        1.0  0.89090  0.27870  0.22750  1.0000 -0.527092353
O   O6        1.0  0.27870  0.22750  0.89090  1.0000 -0.527092353
O   O7        1.0  0.34310  0.77630  0.83240  1.0000 -0.5204139295
O   O8        1.0  0.83240  0.34310  0.77630  1.0000 -0.5204139295
O   O9        1.0  0.77630  0.83240  0.34310  1.0000 -0.5204139295
O   O10       1.0  0.27630  0.84310  0.33240  1.0000 -0.5204139295
O   O11       1.0  0.84310  0.33240  0.27630  1.0000 -0.5204139295
O   O12       1.0  0.33240  0.27630  0.84310  1.0000 -0.5204139295
O   O13       1.0  0.27960  0.74310  0.84190  1.0000 -0.4994670172
O   O14       1.0  0.84190  0.27960  0.74310  1.0000 -0.4994670172
O   O15       1.0  0.74310  0.84190  0.27960  1.0000 -0.4994670172
O   O16       1.0  0.24310  0.77960  0.34190  1.0000 -0.4994670172
O   O17       1.0  0.77960  0.34190  0.24310  1.0000 -0.4994670172
O   O18       1.0  0.34190  0.24310  0.77960  1.0000 -0.4994670172
O   O19       1.0  0.23310  0.79020  0.89410  1.0000 -0.5122667566
O   O20       1.0  0.89410  0.23310  0.79020  1.0000 -0.5122667566
O   O21       1.0  0.79020  0.89410  0.23310  1.0000 -0.5122667566
O   O22       1.0  0.29020  0.73310  0.39410  1.0000 -0.5122667566
O   O23       1.0  0.73310  0.39410  0.29020  1.0000 -0.5122667566
O   O24       1.0  0.39410  0.29020  0.73310  1.0000 -0.5122667566
O   O25       1.0  0.37320  0.81960  0.70320  1.0000 -0.5204139295
O   O26       1.0  0.70320  0.37320  0.81960  1.0000 -0.5204139295
O   O27       1.0  0.81960  0.70320  0.37320  1.0000 -0.5204139295
O   O28       1.0  0.31960  0.87320  0.20320  1.0000 -0.5204139295
O   O29       1.0  0.87320  0.20320  0.31960  1.0000 -0.5122667566
O   O30       1.0  0.20320  0.31960  0.87320  1.0000 -0.5204139295
O   O31       1.0  0.21380  0.87940  0.81860  1.0000 -0.527092353
O   O32       1.0  0.81860  0.21380  0.87940  1.0000 -0.527092353
O   O33       1.0  0.87940  0.81860  0.21380  1.0000 -0.527092353
O   O34       1.0  0.37940  0.71380  0.31860  1.0000 -0.527092353
O   O35       1.0  0.71380  0.31860  0.37940  1.0000 -0.527092353
O   O36       1.0  0.31860  0.37940  0.71380  1.0000 -0.527092353
O   O37       1.0  0.32090  0.86710  0.76010  1.0000 -0.4885561231
O   O38       1.0  0.76010  0.32090  0.86710  1.0000 -0.4885561231
O   O39       1.0  0.86710  0.76010  0.32090  1.0000 -0.4885561231
O   O40       1.0  0.36710  0.82090  0.26010  1.0000 -0.4885561231
O   O41       1.0  0.82090  0.26010  0.36710  1.0000 -0.4885561231
O   O42       1.0  0.26010  0.36710  0.82090  1.0000 -0.4885561231
O   O43       1.0  0.26600  0.83030  0.76290  1.0000 -0.4885561231
O   O44       1.0  0.76290  0.26600  0.83030  1.0000 -0.4885561231
O   O45       1.0  0.83030  0.76290  0.26600  1.0000 -0.4885561231
O   O46       1.0  0.33030  0.76600  0.26290  1.0000 -0.4885561231
O   O47       1.0  0.76600  0.26290  0.33030  1.0000 -0.4885561231
O   O48       1.0  0.26290  0.33030  0.76600  1.0000 -0.4885561231
O   O49       1.0  0.50780  0.99060  0.64320  1.0000 -0.4799418314
O   O50       1.0  0.64320  0.50780  0.99060  1.0000 -0.4799418314
O   O51       1.0  0.99060  0.64320  0.50780  1.0000 -0.4799418314
O   O52       1.0  0.49060  0.00780  0.14320  1.0000 -0.4799418314
O   O53       1.0  0.00780  0.14320  0.49060  1.0000 -0.4799418314
O   O54       1.0  0.14320  0.49060  0.00780  1.0000 -0.4799418314
O   O55       1.0  0.46870  0.03300  0.59720  1.0000 -0.5420448396
O   O56       1.0  0.59720  0.46870  0.03300  1.0000 -0.5420448396
O   O57       1.0  0.03300  0.59720  0.46870  1.0000 -0.5420448396
O   O58       1.0  0.53300  0.96870  0.09720  1.0000 -0.5420448396
O   O59       1.0  0.96870  0.09720  0.53300  1.0000 -0.5420448396
O   O60       1.0  0.09720  0.53300  0.96870  1.0000 -0.5420448396
O   O61       1.0  0.53510  0.61330  0.99210  1.0000 -0.4885561231
O   O62       1.0  0.99210  0.53510  0.61330  1.0000 -0.4885561231
O   O63       1.0  0.61330  0.99210  0.53510  1.0000 -0.4885561231
O   O64       1.0  0.11330  0.03510  0.49210  1.0000 -0.4885561231
O   O65       1.0  0.03510  0.49210  0.11330  1.0000 -0.4885561231
O   O66       1.0  0.49210  0.11330  0.03510  1.0000 -0.4885561231
O   O67       1.0  0.49160  0.56760  0.04000  1.0000 -0.5204139295
O   O68       1.0  0.04000  0.49160  0.56760  1.0000 -0.527092353
O   O69       1.0  0.56760  0.04000  0.49160  1.0000 -0.5204139295
O   O70       1.0  0.06760  0.99160  0.54000  1.0000 -0.5204139295
O   O71       1.0  0.99160  0.54000  0.06760  1.0000 -0.5204139295
O   O72       1.0  0.54000  0.06760  0.99160  1.0000 -0.5204139295
O   O73       1.0  0.06480  0.64330  0.92640  1.0000 -0.4994670172
O   O74       1.0  0.92640  0.06480  0.64330  1.0000 -0.4994670172
O   O75       1.0  0.64330  0.92640  0.06480  1.0000 -0.4994670172
O   O76       1.0  0.14330  0.56480  0.42640  1.0000 -0.4994670172
O   O77       1.0  0.56480  0.42640  0.14330  1.0000 -0.4994670172
O   O78       1.0  0.42640  0.14330  0.56480  1.0000 -0.4994670172
O   O79       1.0  0.10570  0.60480  0.96740  1.0000 -0.5122667566
O   O80       1.0  0.96740  0.10570  0.60480  1.0000 -0.5122667566
O   O81       1.0  0.60480  0.96740  0.10570  1.0000 -0.5122667566
O   O82       1.0  0.10480  0.60570  0.46740  1.0000 -0.5122667566
O   O83       1.0  0.60570  0.46740  0.10480  1.0000 -0.5122667566
O   O84       1.0  0.46740  0.10480  0.60570  1.0000 -0.5122667566
O   O85       1.0  0.07580  0.00100  0.60180  1.0000 -0.4994670172
O   O86       1.0  0.60180  0.07580  0.00100  1.0000 -0.4994670172
O   O87       1.0  0.00100  0.60180  0.07580  1.0000 -0.4994670172
O   O88       1.0  0.50100  0.57580  0.10180  1.0000 -0.4994670172
O   O89       1.0  0.57580  0.10180  0.50100  1.0000 -0.4994670172
O   O90       1.0  0.10180  0.50100  0.57580  1.0000 -0.4994670172
O   O91       1.0  0.02740  0.96230  0.64760  1.0000 -0.5204139295
O   O92       1.0  0.64760  0.02740  0.96230  1.0000 -0.5204139295
O   O93       1.0  0.96230  0.64760  0.02740  1.0000 -0.5204139295
O   O94       1.0  0.46230  0.52740  0.14760  1.0000 -0.5204139295
O   O95       1.0  0.52740  0.14760  0.46230  1.0000 -0.5204139295
O   O96       1.0  0.14760  0.46230  0.52740  1.0000 -0.5204139295
O   O97       1.0  0.77250  0.10910  0.72130  1.0000 -0.527092353
O   O98       1.0  0.10910  0.72130  0.77250  1.0000 -0.527092353
O   O99       1.0  0.72130  0.77250  0.10910  1.0000 -0.527092353
O   O100      1.0  0.60910  0.27250  0.22130  1.0000 -0.527092353
O   O101      1.0  0.22130  0.60910  0.27250  1.0000 -0.527092353
O   O102      1.0  0.27250  0.22130  0.60910  1.0000 -0.527092353
O   O103      1.0  0.72370  0.15690  0.66760  1.0000 -0.5204139295
O   O104      1.0  0.15690  0.66760  0.72370  1.0000 -0.5204139295
O   O105      1.0  0.66760  0.72370  0.15690  1.0000 -0.5204139295
O   O106      1.0  0.65690  0.22370  0.16760  1.0000 -0.5204139295
O   O107      1.0  0.16760  0.65690  0.22370  1.0000 -0.5204139295
O   O108      1.0  0.22370  0.16760  0.65690  1.0000 -0.5204139295
O   O109      1.0  0.75690  0.22040  0.65810  1.0000 -0.4994670172
O   O110      1.0  0.22040  0.65810  0.75690  1.0000 -0.4994670172
O   O111      1.0  0.65810  0.75690  0.22040  1.0000 -0.4994670172
O   O112      1.0  0.72040  0.25690  0.15810  1.0000 -0.4994670172
O   O113      1.0  0.15810  0.72040  0.25690  1.0000 -0.4994670172
O   O114      1.0  0.25690  0.15810  0.72040  1.0000 -0.4994670172
O   O115      1.0  0.70980  0.26690  0.60590  1.0000 -0.5122667566
O   O116      1.0  0.26690  0.60590  0.70980  1.0000 -0.5122667566
O   O117      1.0  0.60590  0.70980  0.26690  1.0000 -0.5122667566
O   O118      1.0  0.76690  0.20980  0.10590  1.0000 -0.5122667566
O   O119      1.0  0.10590  0.76690  0.20980  1.0000 -0.5122667566
O   O120      1.0  0.20980  0.10590  0.76690  1.0000 -0.5122667566
O   O121      1.0  0.68040  0.12680  0.79680  1.0000 -0.5204139295
O   O122      1.0  0.12680  0.79680  0.68040  1.0000 -0.5204139295
O   O123      1.0  0.79680  0.68040  0.12680  1.0000 -0.5204139295
O   O124      1.0  0.62680  0.18040  0.29680  1.0000 -0.5204139295
O   O125      1.0  0.29680  0.62680  0.18040  1.0000 -0.5204139295
O   O126      1.0  0.18040  0.29680  0.62680  1.0000 -0.5204139295
O   O127      1.0  0.62060  0.28620  0.68140  1.0000 -0.527092353
O   O128      1.0  0.28620  0.68140  0.62060  1.0000 -0.527092353
O   O129      1.0  0.68140  0.62060  0.28620  1.0000 -0.527092353
O   O130      1.0  0.78620  0.12060  0.18140  1.0000 -0.527092353
O   O131      1.0  0.18140  0.78620  0.12060  1.0000 -0.527092353
O   O132      1.0  0.12060  0.18140  0.78620  1.0000 -0.527092353
O   O133      1.0  0.63290  0.17910  0.73990  1.0000 -0.4885561231
O   O134      1.0  0.17910  0.73990  0.63290  1.0000 -0.4885561231
O   O135      1.0  0.73990  0.63290  0.17910  1.0000 -0.4885561231
O   O136      1.0  0.67910  0.13290  0.23990  1.0000 -0.4885561231
O   O137      1.0  0.23990  0.67910  0.13290  1.0000 -0.4885561231
O   O138      1.0  0.13290  0.23990  0.67910  1.0000 -0.4885561231
O   O139      1.0  0.66970  0.23400  0.73710  1.0000 -0.4885561231
O   O140      1.0  0.23400  0.73710  0.66970  1.0000 -0.4885561231
O   O141      1.0  0.73710  0.66970  0.23400  1.0000 -0.4885561231
O   O142      1.0  0.73400  0.16970  0.23710  1.0000 -0.4885561231
O   O143      1.0  0.23710  0.73400  0.16970  1.0000 -0.4885561231
O   O144      1.0  0.16970  0.23710  0.73400  1.0000 -0.4885561231
O   O145      1.0  0.50940  0.99220  0.85680  1.0000 -0.4799418314
O   O146      1.0  0.99220  0.85680  0.50940  1.0000 -0.4799418314
O   O147      1.0  0.85680  0.50940  0.99220  1.0000 -0.4799418314
O   O148      1.0  0.49220  0.00940  0.35680  1.0000 -0.4799418314
O   O149      1.0  0.35680  0.49220  0.00940  1.0000 -0.4799418314
O   O150      1.0  0.00940  0.35680  0.49220  1.0000 -0.4799418314
O   O151      1.0  0.46700  0.03130  0.90280  1.0000 -0.5420448396
O   O152      1.0  0.03130  0.90280  0.46700  1.0000 -0.5420448396
O   O153      1.0  0.90280  0.46700  0.03130  1.0000 -0.5420448396
O   O154      1.0  0.53130  0.96700  0.40280  1.0000 -0.5420448396
O   O155      1.0  0.40280  0.53130  0.96700  1.0000 -0.5420448396
O   O156      1.0  0.96700  0.40280  0.53130  1.0000 -0.5420448396
O   O157      1.0  0.88670  0.96490  0.50790  1.0000 -0.4885561231
O   O158      1.0  0.96490  0.50790  0.88670  1.0000 -0.4885561231
O   O159      1.0  0.50790  0.88670  0.96490  1.0000 -0.4885561231
O   O160      1.0  0.46490  0.38670  0.00790  1.0000 -0.4885561231
O   O161      1.0  0.00790  0.46490  0.38670  1.0000 -0.4885561231
O   O162      1.0  0.38670  0.00790  0.46490  1.0000 -0.4885561231
O   O163      1.0  0.93240  0.00840  0.46000  1.0000 -0.5204139295
O   O164      1.0  0.00840  0.46000  0.93240  1.0000 -0.5204139295
O   O165      1.0  0.46000  0.93240  0.00840  1.0000 -0.5204139295
O   O166      1.0  0.50840  0.43240  0.96000  1.0000 -0.5204139295
O   O167      1.0  0.96000  0.50840  0.43240  1.0000 -0.5204139295
O   O168      1.0  0.43240  0.96000  0.50840  1.0000 -0.527092353
O   O169      1.0  0.85670  0.43520  0.57360  1.0000 -0.4994670172
O   O170      1.0  0.43520  0.57360  0.85670  1.0000 -0.4994670172
O   O171      1.0  0.57360  0.85670  0.43520  1.0000 -0.4885561231
O   O172      1.0  0.93520  0.35670  0.07360  1.0000 -0.4885561231
O   O173      1.0  0.07360  0.93520  0.35670  1.0000 -0.4994670172
O   O174      1.0  0.35670  0.07360  0.93520  1.0000 -0.4994670172
O   O175      1.0  0.89520  0.39430  0.53260  1.0000 -0.5122667566
O   O176      1.0  0.39430  0.53260  0.89520  1.0000 -0.5122667566
O   O177      1.0  0.53260  0.89520  0.39430  1.0000 -0.5122667566
O   O178      1.0  0.89430  0.39520  0.03260  1.0000 -0.5122667566
O   O179      1.0  0.03260  0.89430  0.39520  1.0000 -0.5122667566
O   O180      1.0  0.39520  0.03260  0.89430  1.0000 -0.5122667566
O   O181      1.0  0.49900  0.42420  0.89820  1.0000 -0.4994670172
O   O182      1.0  0.42420  0.89820  0.49900  1.0000 -0.4994670172
O   O183      1.0  0.89820  0.49900  0.42420  1.0000 -0.4994670172
O   O184      1.0  0.92420  0.99900  0.39820  1.0000 -0.4994670172
O   O185      1.0  0.39820  0.92420  0.99900  1.0000 -0.4994670172
O   O186      1.0  0.99900  0.39820  0.92420  1.0000 -0.4994670172
O   O187      1.0  0.53770  0.47260  0.85240  1.0000 -0.5204139295
O   O188      1.0  0.47260  0.85240  0.53770  1.0000 -0.5204139295
O   O189      1.0  0.85240  0.53770  0.47260  1.0000 -0.5204139295
O   O190      1.0  0.97260  0.03770  0.35240  1.0000 -0.5204139295
O   O191      1.0  0.35240  0.97260  0.03770  1.0000 -0.5204139295
O   O192      1.0  0.03770  0.35240  0.97260  1.0000 -0.5204139295
