# DDEC6 charges by PACMAN v1.1 (https://github.com/mtap-research/PACMAN-charge/)
data_2016[Cu][ant]3[ASR]1
_chemical_formula_sum              "Cu16 H120 C128 N8 O88"
_cell_length_a       18.744
_cell_length_b       15.6943
_cell_length_c       21.529
_cell_angle_alpha    90
_cell_angle_beta     112.251
_cell_angle_gamma    90

_symmetry_space_group_name_H-M    "P 1"
_symmetry_Int_Tables_number       1

loop_
  _symmetry_equiv_pos_as_xyz
  'x, y, z'

loop_
  _atom_site_type_symbol
  _atom_site_label
  _atom_site_symmetry_multiplicity
  _atom_site_fract_x
  _atom_site_fract_y
  _atom_site_fract_z
  _atom_site_occupancy
  _atom_site_charge
Cu  Cu1       1.0  0.75797  0.73320  0.66844  1.0000 0.9275304698
Cu  Cu2       1.0  0.24203  0.23320  0.83156  1.0000 0.9275304698
Cu  Cu3       1.0  0.24203  0.26680  0.33156  1.0000 0.9275304698
Cu  Cu4       1.0  0.75797  0.76680  0.16844  1.0000 0.9275304698
Cu  Cu5       1.0  0.75667  0.72193  0.80542  1.0000 0.8697706782
Cu  Cu6       1.0  0.24333  0.22193  0.69458  1.0000 0.8697706782
Cu  Cu7       1.0  0.24333  0.27807  0.19458  1.0000 0.8697706782
Cu  Cu8       1.0  0.75667  0.77807  0.30542  1.0000 0.8697706782
Cu  Cu9       1.0  0.58480  0.76214  0.68224  1.0000 0.8697706782
Cu  Cu10      1.0  0.41520  0.26214  0.81776  1.0000 0.8697706782
Cu  Cu11      1.0  0.41520  0.23786  0.31776  1.0000 0.8697706782
Cu  Cu12      1.0  0.58480  0.73786  0.18224  1.0000 0.8697706782
Cu  Cu13      1.0  0.93266  0.75576  0.79363  1.0000 0.8032825016
Cu  Cu14      1.0  0.06734  0.25576  0.70637  1.0000 0.8032825016
Cu  Cu15      1.0  0.06734  0.24424  0.20637  1.0000 0.8032825016
Cu  Cu16      1.0  0.93266  0.74424  0.29363  1.0000 0.8032825016
H   H1        1.0  0.04520  0.65370  0.77180  1.0000 0.2386509091
H   H2        1.0  0.95480  0.15370  0.72820  1.0000 0.2386509091
H   H3        1.0  0.95480  0.34630  0.22820  1.0000 0.2386509091
H   H4        1.0  0.04520  0.84630  0.27180  1.0000 0.2386509091
H   H5        1.0  0.01870  0.64790  0.82310  1.0000 0.1940516911
H   H6        1.0  0.98130  0.14790  0.67690  1.0000 0.1940516911
H   H7        1.0  0.98130  0.35210  0.17690  1.0000 0.1940516911
H   H8        1.0  0.01870  0.85210  0.32310  1.0000 0.1940516911
H   H9        1.0  0.02460  0.91930  0.82400  1.0000 0.2713880264
H   H10       1.0  0.97540  0.41930  0.67600  1.0000 0.2713880264
H   H11       1.0  0.97540  0.08070  0.17600  1.0000 0.2713880264
H   H12       1.0  0.02460  0.58070  0.32400  1.0000 0.2713880264
H   H13       1.0  0.99070  0.84980  0.78530  1.0000 0.2806364246
H   H14       1.0  0.00930  0.34980  0.71470  1.0000 0.2806364246
H   H15       1.0  0.00930  0.15020  0.21470  1.0000 0.2806364246
H   H16       1.0  0.99070  0.65020  0.28530  1.0000 0.2806364246
H   H17       1.0  0.66550  0.74510  0.96000  1.0000 0.1378698639
H   H18       1.0  0.33450  0.24510  0.54000  1.0000 0.1378698639
H   H19       1.0  0.33450  0.25490  0.04000  1.0000 0.1378698639
H   H20       1.0  0.66550  0.75490  0.46000  1.0000 0.1378698639
H   H21       1.0  0.47390  0.81260  0.98880  1.0000 0.1378698639
H   H22       1.0  0.52610  0.31260  0.51120  1.0000 0.1378698639
H   H23       1.0  0.52610  0.18740  0.01120  1.0000 0.1378698639
H   H24       1.0  0.47390  0.68740  0.48880  1.0000 0.1378698639
H   H25       1.0  0.47870  0.82630  0.80560  1.0000 0.1302068604
H   H26       1.0  0.52130  0.32630  0.69440  1.0000 0.1302068604
H   H27       1.0  0.52130  0.17370  0.19440  1.0000 0.1302068604
H   H28       1.0  0.47870  0.67370  0.30560  1.0000 0.1302068604
H   H29       1.0  0.48280  0.98280  0.90700  1.0000 0.1378698639
H   H30       1.0  0.51720  0.48280  0.59300  1.0000 0.1378698639
H   H31       1.0  0.51720  0.01720  0.09300  1.0000 0.1378698639
H   H32       1.0  0.48280  0.51720  0.40700  1.0000 0.1378698639
H   H33       1.0  0.43150  0.04650  0.85220  1.0000 0.1696248468
H   H34       1.0  0.56850  0.54650  0.64780  1.0000 0.1696248468
H   H35       1.0  0.56850  0.95350  0.14780  1.0000 0.1696248468
H   H36       1.0  0.43150  0.45350  0.35220  1.0000 0.1696248468
H   H37       1.0  0.42730  0.04540  0.92360  1.0000 0.1499922448
H   H38       1.0  0.57270  0.54540  0.57640  1.0000 0.1499922448
H   H39       1.0  0.57270  0.95460  0.07640  1.0000 0.1499922448
H   H40       1.0  0.42730  0.45460  0.42360  1.0000 0.1499922448
H   H41       1.0  0.27320  0.69460  0.81830  1.0000 0.1499922448
H   H42       1.0  0.72680  0.19460  0.68170  1.0000 0.1499922448
H   H43       1.0  0.72680  0.30540  0.18170  1.0000 0.1499922448
H   H44       1.0  0.27320  0.80540  0.31830  1.0000 0.1499922448
H   H45       1.0  0.35330  0.70120  0.81130  1.0000 0.1302068604
H   H46       1.0  0.64670  0.20120  0.68870  1.0000 0.1302068604
H   H47       1.0  0.64670  0.29880  0.18870  1.0000 0.1302068604
H   H48       1.0  0.35330  0.79880  0.31130  1.0000 0.1302068604
H   H49       1.0  0.34930  0.69450  0.88260  1.0000 0.1499922448
H   H50       1.0  0.65070  0.19450  0.61740  1.0000 0.1499922448
H   H51       1.0  0.65070  0.30550  0.11740  1.0000 0.1499922448
H   H52       1.0  0.34930  0.80550  0.38260  1.0000 0.1499922448
H   H53       1.0  0.04010  0.81400  0.67200  1.0000 0.1240430721
H   H54       1.0  0.95990  0.31400  0.82800  1.0000 0.1240430721
H   H55       1.0  0.95990  0.18600  0.32800  1.0000 0.1240430721
H   H56       1.0  0.04010  0.68600  0.17200  1.0000 0.1240430721
H   H57       1.0  0.04620  0.81070  0.48870  1.0000 0.1240430721
H   H58       1.0  0.95380  0.31070  0.01130  1.0000 0.1240430721
H   H59       1.0  0.95380  0.18930  0.51130  1.0000 0.1240430721
H   H60       1.0  0.04620  0.68930  0.98870  1.0000 0.1240430721
H   H61       1.0  0.85680  0.72910  0.51560  1.0000 0.1499922448
H   H62       1.0  0.14320  0.22910  0.98440  1.0000 0.1499922448
H   H63       1.0  0.14320  0.27090  0.48440  1.0000 0.1499922448
H   H64       1.0  0.85680  0.77090  0.01560  1.0000 0.1499922448
H   H65       1.0  0.25440  0.70290  0.64520  1.0000 0.1302068604
H   H66       1.0  0.74560  0.20290  0.85480  1.0000 0.1302068604
H   H67       1.0  0.74560  0.29710  0.35480  1.0000 0.1302068604
H   H68       1.0  0.25440  0.79710  0.14520  1.0000 0.1302068604
H   H69       1.0  0.17560  0.69710  0.65460  1.0000 0.1378698639
H   H70       1.0  0.82440  0.19710  0.84540  1.0000 0.1378698639
H   H71       1.0  0.82440  0.30290  0.34540  1.0000 0.1378698639
H   H72       1.0  0.17560  0.80290  0.15460  1.0000 0.1378698639
H   H73       1.0  0.17680  0.70520  0.58240  1.0000 0.1378698639
H   H74       1.0  0.82320  0.20520  0.91760  1.0000 0.1378698639
H   H75       1.0  0.82320  0.29480  0.41760  1.0000 0.1378698639
H   H76       1.0  0.17680  0.79480  0.08240  1.0000 0.1378698639
H   H77       1.0  0.02660  0.97420  0.58310  1.0000 0.1378698639
H   H78       1.0  0.97340  0.47420  0.91690  1.0000 0.1378698639
H   H79       1.0  0.97340  0.02580  0.41690  1.0000 0.1378698639
H   H80       1.0  0.02660  0.52580  0.08310  1.0000 0.1378698639
H   H81       1.0  0.07560  0.03360  0.64250  1.0000 0.1627450683
H   H82       1.0  0.92440  0.53360  0.85750  1.0000 0.1627450683
H   H83       1.0  0.92440  0.96640  0.35750  1.0000 0.1627450683
H   H84       1.0  0.07560  0.46640  0.14250  1.0000 0.1627450683
H   H85       1.0  0.07820  0.04590  0.57120  1.0000 0.1499922448
H   H86       1.0  0.92180  0.54590  0.92880  1.0000 0.1499922448
H   H87       1.0  0.92180  0.95410  0.42880  1.0000 0.1499922448
H   H88       1.0  0.07820  0.45410  0.07120  1.0000 0.1499922448
H   H89       1.0  0.39170  0.76760  0.72460  1.0000 0.3421227359
H   H90       1.0  0.60830  0.26760  0.77540  1.0000 0.3421227359
H   H91       1.0  0.60830  0.23240  0.27540  1.0000 0.3421227359
H   H92       1.0  0.39170  0.73240  0.22460  1.0000 0.3421227359
H   H93       1.0  0.14900  0.94500  0.79000  1.0000 0.3243191861
H   H94       1.0  0.85100  0.44500  0.71000  1.0000 0.3243191861
H   H95       1.0  0.85100  0.05500  0.21000  1.0000 0.3243191861
H   H96       1.0  0.14900  0.55500  0.29000  1.0000 0.3243191861
H   H97       1.0  0.68400  0.72400  0.71800  1.0000 0.1824068561
H   H98       1.0  0.31600  0.22400  0.78200  1.0000 0.1824068561
H   H99       1.0  0.31600  0.27600  0.28200  1.0000 0.1824068561
H   H100      1.0  0.68400  0.77600  0.21800  1.0000 0.1824068561
H   H101      1.0  0.81100  0.74900  0.76900  1.0000 0.220299723
H   H102      1.0  0.18900  0.24900  0.73100  1.0000 0.220299723
H   H103      1.0  0.18900  0.25100  0.23100  1.0000 0.220299723
H   H104      1.0  0.81100  0.75100  0.26900  1.0000 0.220299723
H   H105      1.0  0.09380  0.76540  0.84740  1.0000 0.2630603336
H   H106      1.0  0.90620  0.26540  0.65260  1.0000 0.2630603336
H   H107      1.0  0.90620  0.23460  0.15260  1.0000 0.2630603336
H   H108      1.0  0.09380  0.73460  0.34740  1.0000 0.2630603336
H   H109      1.0  0.03210  0.74310  0.86360  1.0000 0.1958597623
H   H110      1.0  0.96790  0.24310  0.63640  1.0000 0.1940516911
H   H111      1.0  0.96790  0.25690  0.13640  1.0000 0.1940516911
H   H112      1.0  0.03210  0.75690  0.36360  1.0000 0.1958597623
H   H113      1.0  0.87790  0.92730  0.78300  1.0000 0.2713880264
H   H114      1.0  0.12210  0.42730  0.71700  1.0000 0.2713880264
H   H115      1.0  0.12210  0.07270  0.21700  1.0000 0.2713880264
H   H116      1.0  0.87790  0.57270  0.28300  1.0000 0.2713880264
H   H117      1.0  0.89680  0.85050  0.81580  1.0000 0.2259743832
H   H118      1.0  0.10320  0.35050  0.68420  1.0000 0.2259743832
H   H119      1.0  0.10320  0.14950  0.18420  1.0000 0.2259743832
H   H120      1.0  0.89680  0.64950  0.31580  1.0000 0.2259743832
C   C1        1.0  0.90970  0.74940  0.41710  1.0000 0.5605020248
C   C2        1.0  0.09030  0.24940  0.08290  1.0000 0.5605020248
C   C3        1.0  0.09030  0.25060  0.58290  1.0000 0.5605020248
C   C4        1.0  0.90970  0.75060  0.91710  1.0000 0.5605020248
C   C5        1.0  0.94600  0.76710  0.49220  1.0000 -0.0033479343
C   C6        1.0  0.05400  0.26710  0.00780  1.0000 -0.0033479343
C   C7        1.0  0.05400  0.23290  0.50780  1.0000 -0.0033479343
C   C8        1.0  0.94600  0.73290  0.99220  1.0000 -0.0033479343
C   C9        1.0  0.61860  0.76690  0.82740  1.0000 0.5739648365
C   C10       1.0  0.38140  0.26690  0.67260  1.0000 0.5739648365
C   C11       1.0  0.38140  0.23310  0.17260  1.0000 0.5739648365
C   C12       1.0  0.61860  0.73310  0.32740  1.0000 0.5739648365
C   C13       1.0  0.57850  0.78310  0.87510  1.0000 -0.0104721477
C   C14       1.0  0.42150  0.28310  0.62490  1.0000 -0.0104721477
C   C15       1.0  0.42150  0.21690  0.12490  1.0000 -0.0104721477
C   C16       1.0  0.57850  0.71690  0.37510  1.0000 -0.0104721477
C   C17       1.0  0.61500  0.76480  0.94314  1.0000 -0.1180552631
C   C18       1.0  0.38500  0.26480  0.55686  1.0000 -0.1180552631
C   C19       1.0  0.38500  0.23520  0.05686  1.0000 -0.1180552631
C   C20       1.0  0.61500  0.73520  0.44314  1.0000 -0.1180552631
C   C21       1.0  0.57560  0.77620  0.98600  1.0000 -0.0191090634
C   C22       1.0  0.42440  0.27620  0.51400  1.0000 -0.0191090634
C   C23       1.0  0.42440  0.22380  0.01400  1.0000 -0.0191090634
C   C24       1.0  0.57560  0.72380  0.48600  1.0000 -0.0191090634
C   C25       1.0  0.50070  0.80620  0.96050  1.0000 -0.1643103189
C   C26       1.0  0.49930  0.30620  0.53950  1.0000 -0.1643103189
C   C27       1.0  0.49930  0.19380  0.03950  1.0000 -0.1643103189
C   C28       1.0  0.50070  0.69380  0.46050  1.0000 -0.1643103189
C   C29       1.0  0.46550  0.82650  0.89390  1.0000 0.1499922448
C   C30       1.0  0.53450  0.32650  0.60610  1.0000 0.1499922448
C   C31       1.0  0.53450  0.17350  0.10610  1.0000 0.1499922448
C   C32       1.0  0.46550  0.67350  0.39390  1.0000 0.1499922448
C   C33       1.0  0.50340  0.81400  0.85100  1.0000 -0.1834328599
C   C34       1.0  0.49660  0.31400  0.64900  1.0000 -0.1834328599
C   C35       1.0  0.49660  0.18600  0.14900  1.0000 -0.1834328599
C   C36       1.0  0.50340  0.68600  0.35100  1.0000 -0.1834328599
C   C37       1.0  0.43380  0.01090  0.88920  1.0000 -0.4902483923
C   C38       1.0  0.56620  0.51090  0.61080  1.0000 -0.4902483923
C   C39       1.0  0.56620  0.98910  0.11080  1.0000 -0.4902483923
C   C40       1.0  0.43380  0.48910  0.38920  1.0000 -0.4902483923
C   C41       1.0  0.37140  0.94630  0.86580  1.0000 0.2386509091
C   C42       1.0  0.62860  0.44630  0.63420  1.0000 0.2386509091
C   C43       1.0  0.62860  0.05370  0.13420  1.0000 0.2386509091
C   C44       1.0  0.37140  0.55370  0.36580  1.0000 0.2386509091
C   C45       1.0  0.32100  0.81210  0.84150  1.0000 0.1940516911
C   C46       1.0  0.67900  0.31210  0.65850  1.0000 0.1940516911
C   C47       1.0  0.67900  0.18790  0.15850  1.0000 0.1940516911
C   C48       1.0  0.32100  0.68790  0.34150  1.0000 0.1940516911
C   C49       1.0  0.32450  0.71710  0.83810  1.0000 -0.4774979293
C   C50       1.0  0.67550  0.21710  0.66190  1.0000 -0.4774979293
C   C51       1.0  0.67550  0.28290  0.16190  1.0000 -0.4774979293
C   C52       1.0  0.32450  0.78290  0.33810  1.0000 -0.4774979293
C   C53       1.0  0.26080  0.86970  0.82220  1.0000 -0.2183881677
C   C54       1.0  0.73920  0.36970  0.67780  1.0000 -0.2183881677
C   C55       1.0  0.73920  0.13030  0.17780  1.0000 -0.2183881677
C   C56       1.0  0.26080  0.63030  0.32220  1.0000 -0.2183881677
C   C57       1.0  0.29160  0.95540  0.83670  1.0000 -0.2255040943
C   C58       1.0  0.70840  0.45540  0.66330  1.0000 -0.2255040943
C   C59       1.0  0.70840  0.04460  0.16330  1.0000 -0.2255040943
C   C60       1.0  0.29160  0.54460  0.33670  1.0000 -0.2255040943
C   C61       1.0  0.17920  0.83980  0.79230  1.0000 0.5605020248
C   C62       1.0  0.82080  0.33980  0.70770  1.0000 0.5605020248
C   C63       1.0  0.82080  0.16020  0.20770  1.0000 0.5605020248
C   C64       1.0  0.17920  0.66020  0.29230  1.0000 0.5605020248
C   C65       1.0  0.89980  0.75550  0.64770  1.0000 0.5605020248
C   C66       1.0  0.10020  0.25550  0.85230  1.0000 0.5605020248
C   C67       1.0  0.10020  0.24450  0.35230  1.0000 0.5605020248
C   C68       1.0  0.89980  0.74450  0.14770  1.0000 0.5605020248
C   C69       1.0  0.94180  0.77050  0.60170  1.0000 -0.0104721477
C   C70       1.0  0.05820  0.27050  0.89830  1.0000 -0.0104721477
C   C71       1.0  0.05820  0.22950  0.39830  1.0000 -0.0104721477
C   C72       1.0  0.94180  0.72950  0.10170  1.0000 -0.0104721477
C   C73       1.0  0.01600  0.80290  0.62640  1.0000 -0.1705251089
C   C74       1.0  0.98400  0.30290  0.87360  1.0000 -0.1705251089
C   C75       1.0  0.98400  0.19710  0.37360  1.0000 -0.1705251089
C   C76       1.0  0.01600  0.69710  0.12640  1.0000 -0.1705251089
C   C77       1.0  0.05450  0.81880  0.58490  1.0000 0.1627450683
C   C78       1.0  0.94550  0.31880  0.91510  1.0000 0.1627450683
C   C79       1.0  0.94550  0.18120  0.41510  1.0000 0.1627450683
C   C80       1.0  0.05450  0.68120  0.08490  1.0000 0.1627450683
C   C81       1.0  0.02010  0.80060  0.51710  1.0000 -0.1910519782
C   C82       1.0  0.97990  0.30060  0.98290  1.0000 -0.1910519782
C   C83       1.0  0.97990  0.19940  0.48290  1.0000 -0.1910519782
C   C84       1.0  0.02010  0.69940  0.01710  1.0000 -0.1910519782
C   C85       1.0  0.90630  0.75170  0.53300  1.0000 -0.1261730013
C   C86       1.0  0.09370  0.25170  0.96700  1.0000 -0.1261730013
C   C87       1.0  0.09370  0.24830  0.46700  1.0000 -0.1261730013
C   C88       1.0  0.90630  0.74830  0.03300  1.0000 -0.1261730013
C   C89       1.0  0.14130  0.94290  0.62080  1.0000 0.220299723
C   C90       1.0  0.85870  0.44290  0.87920  1.0000 0.220299723
C   C91       1.0  0.85870  0.05710  0.37920  1.0000 0.220299723
C   C92       1.0  0.14130  0.55710  0.12080  1.0000 0.220299723
C   C93       1.0  0.21990  0.95750  0.64930  1.0000 -0.1705251089
C   C94       1.0  0.78010  0.45750  0.85070  1.0000 -0.1705251089
C   C95       1.0  0.78010  0.04250  0.35070  1.0000 -0.1705251089
C   C96       1.0  0.21990  0.54250  0.14930  1.0000 -0.1705251089
C   C97       1.0  0.25670  0.87520  0.65710  1.0000 -0.2103469349
C   C98       1.0  0.74330  0.37520  0.84290  1.0000 -0.2103469349
C   C99       1.0  0.74330  0.12480  0.34290  1.0000 -0.2103469349
C   C100      1.0  0.25670  0.62480  0.15710  1.0000 -0.2103469349
C   C101      1.0  0.20000  0.81550  0.63330  1.0000 0.1696248468
C   C102      1.0  0.80000  0.31550  0.86670  1.0000 0.1696248468
C   C103      1.0  0.80000  0.18450  0.36670  1.0000 0.1696248468
C   C104      1.0  0.20000  0.68450  0.13330  1.0000 0.1696248468
C   C105      1.0  0.20190  0.72200  0.62850  1.0000 -0.4664076395
C   C106      1.0  0.79810  0.22200  0.87150  1.0000 -0.4664076395
C   C107      1.0  0.79810  0.27800  0.37150  1.0000 -0.4664076395
C   C108      1.0  0.20190  0.77800  0.12850  1.0000 -0.4664076395
C   C109      1.0  0.07430  0.00480  0.60270  1.0000 -0.4902483923
C   C110      1.0  0.92570  0.50480  0.89730  1.0000 -0.4902483923
C   C111      1.0  0.92570  0.99520  0.39730  1.0000 -0.4902483923
C   C112      1.0  0.07430  0.49520  0.10270  1.0000 -0.4902483923
C   C113      1.0  0.33950  0.85450  0.68560  1.0000 0.5739648365
C   C114      1.0  0.66050  0.35450  0.81440  1.0000 0.5739648365
C   C115      1.0  0.66050  0.14550  0.31440  1.0000 0.5739648365
C   C116      1.0  0.33950  0.64550  0.18560  1.0000 0.5739648365
C   C117      1.0  0.25390  0.03730  0.82460  1.0000 0.5818876051
C   C118      1.0  0.74610  0.53730  0.67540  1.0000 0.5818876051
C   C119      1.0  0.74610  0.96270  0.17540  1.0000 0.5818876051
C   C120      1.0  0.25390  0.46270  0.32460  1.0000 0.5818876051
C   C121      1.0  0.25350  0.04350  0.66900  1.0000 0.5913871848
C   C122      1.0  0.74650  0.54350  0.83100  1.0000 0.5913871848
C   C123      1.0  0.74650  0.95650  0.33100  1.0000 0.5913871848
C   C124      1.0  0.25350  0.45650  0.16900  1.0000 0.5913871848
C   C125      1.0  0.61450  0.75690  0.05860  1.0000 0.5818876051
C   C126      1.0  0.38550  0.25690  0.44140  1.0000 0.5818876051
C   C127      1.0  0.38550  0.24310  0.94140  1.0000 0.5818876051
C   C128      1.0  0.61450  0.74310  0.55860  1.0000 0.5818876051
N   N1        1.0  0.38797  0.86110  0.86829  1.0000 -0.1180552631
N   N2        1.0  0.61203  0.36110  0.63171  1.0000 -0.1180552631
N   N3        1.0  0.61203  0.13890  0.13171  1.0000 -0.1180552631
N   N4        1.0  0.38797  0.63890  0.36829  1.0000 -0.1180552631
N   N5        1.0  0.12925  0.85910  0.61183  1.0000 -0.1073188833
N   N6        1.0  0.87075  0.35910  0.88817  1.0000 -0.1073188833
N   N7        1.0  0.87075  0.14090  0.38817  1.0000 -0.1073188833
N   N8        1.0  0.12925  0.64090  0.11183  1.0000 -0.1073188833
O   O1        1.0  0.57291  0.76620  0.09210  1.0000 -0.5631164886
O   O2        1.0  0.42709  0.26620  0.40790  1.0000 -0.5631164886
O   O3        1.0  0.42709  0.23380  0.90790  1.0000 -0.5631164886
O   O4        1.0  0.57291  0.73380  0.59210  1.0000 -0.5631164886
O   O5        1.0  0.68355  0.73290  0.08058  1.0000 -0.5138456799
O   O6        1.0  0.31645  0.23290  0.41942  1.0000 -0.5138456799
O   O7        1.0  0.31645  0.26710  0.91942  1.0000 -0.5138456799
O   O8        1.0  0.68355  0.76710  0.58058  1.0000 -0.5138456799
O   O9        1.0  0.29024  0.10390  0.84653  1.0000 -0.5505666214
O   O10       1.0  0.70976  0.60390  0.65347  1.0000 -0.5505666214
O   O11       1.0  0.70976  0.89610  0.15347  1.0000 -0.5505666214
O   O12       1.0  0.29024  0.39610  0.34653  1.0000 -0.5505666214
O   O13       1.0  0.21050  0.10780  0.65300  1.0000 -0.5382404901
O   O14       1.0  0.78950  0.60780  0.84700  1.0000 -0.5382404901
O   O15       1.0  0.78950  0.89220  0.34700  1.0000 -0.5382404901
O   O16       1.0  0.21050  0.39220  0.15300  1.0000 -0.5382404901
O   O17       1.0  0.84318  0.71830  0.39397  1.0000 -0.5325138099
O   O18       1.0  0.15682  0.21830  0.10603  1.0000 -0.5325138099
O   O19       1.0  0.15682  0.28170  0.60603  1.0000 -0.5325138099
O   O20       1.0  0.84318  0.78170  0.89397  1.0000 -0.5325138099
O   O21       1.0  0.95073  0.76710  0.38467  1.0000 -0.5382404901
O   O22       1.0  0.04927  0.26710  0.11533  1.0000 -0.5382404901
O   O23       1.0  0.04927  0.23290  0.61533  1.0000 -0.5382404901
O   O24       1.0  0.95073  0.73290  0.88467  1.0000 -0.5382404901
O   O25       1.0  0.03560  0.68230  0.80130  1.0000 -0.1910519782
O   O26       1.0  0.96440  0.18230  0.69870  1.0000 -0.1910519782
O   O27       1.0  0.96440  0.31770  0.19870  1.0000 -0.1910519782
O   O28       1.0  0.03560  0.81770  0.30130  1.0000 -0.1910519782
O   O29       1.0  0.99930  0.87390  0.82280  1.0000 -0.301026804
O   O30       1.0  0.00070  0.37390  0.67720  1.0000 -0.301026804
O   O31       1.0  0.00070  0.12610  0.17720  1.0000 -0.301026804
O   O32       1.0  0.99930  0.62610  0.32280  1.0000 -0.301026804
O   O33       1.0  0.57628  0.77760  0.76660  1.0000 -0.5631164886
O   O34       1.0  0.42372  0.27760  0.73340  1.0000 -0.5631164886
O   O35       1.0  0.42372  0.22240  0.23340  1.0000 -0.5631164886
O   O36       1.0  0.57628  0.72240  0.26660  1.0000 -0.5631164886
O   O37       1.0  0.68729  0.74880  0.85078  1.0000 -0.4774979293
O   O38       1.0  0.31271  0.24880  0.64922  1.0000 -0.4774979293
O   O39       1.0  0.31271  0.25120  0.14922  1.0000 -0.4774979293
O   O40       1.0  0.68729  0.75120  0.35078  1.0000 -0.4774979293
O   O41       1.0  0.69536  0.77860  0.71899  1.0000 -0.7751237727
O   O42       1.0  0.30464  0.27860  0.78101  1.0000 -0.7734601773
O   O43       1.0  0.30464  0.22140  0.28101  1.0000 -0.7734601773
O   O44       1.0  0.69536  0.72140  0.21899  1.0000 -0.7751237727
O   O45       1.0  0.83021  0.70400  0.75825  1.0000 -0.7734601773
O   O46       1.0  0.16979  0.20400  0.74175  1.0000 -0.7734601773
O   O47       1.0  0.16979  0.29600  0.24175  1.0000 -0.7734601773
O   O48       1.0  0.83021  0.79600  0.25825  1.0000 -0.7734601773
O   O49       1.0  0.83307  0.73340  0.62468  1.0000 -0.460134802
O   O50       1.0  0.16693  0.23340  0.87532  1.0000 -0.460134802
O   O51       1.0  0.16693  0.26660  0.37532  1.0000 -0.460134802
O   O52       1.0  0.83307  0.76660  0.12468  1.0000 -0.460134802
O   O53       1.0  0.93740  0.77230  0.70761  1.0000 -0.5505666214
O   O54       1.0  0.06260  0.27230  0.79239  1.0000 -0.5505666214
O   O55       1.0  0.06260  0.22770  0.29239  1.0000 -0.5505666214
O   O56       1.0  0.93740  0.72770  0.20761  1.0000 -0.5505666214
O   O57       1.0  0.12535  0.89840  0.77282  1.0000 -0.4902483923
O   O58       1.0  0.87465  0.39840  0.72718  1.0000 -0.4902483923
O   O59       1.0  0.87465  0.10160  0.22718  1.0000 -0.4902483923
O   O60       1.0  0.12535  0.60160  0.27282  1.0000 -0.4902483923
O   O61       1.0  0.16170  0.76390  0.78710  1.0000 -0.5191078163
O   O62       1.0  0.83830  0.26390  0.71290  1.0000 -0.5191078163
O   O63       1.0  0.83830  0.23610  0.21290  1.0000 -0.5191078163
O   O64       1.0  0.16170  0.73610  0.28710  1.0000 -0.5191078163
O   O65       1.0  0.36110  0.78060  0.68510  1.0000 -0.4099227763
O   O66       1.0  0.63890  0.28060  0.81490  1.0000 -0.4099227763
O   O67       1.0  0.63890  0.21940  0.31490  1.0000 -0.4099227763
O   O68       1.0  0.36110  0.71940  0.18510  1.0000 -0.4099227763
O   O69       1.0  0.38850  0.91590  0.70820  1.0000 -0.5191078163
O   O70       1.0  0.61150  0.41590  0.79180  1.0000 -0.5191078163
O   O71       1.0  0.61150  0.08410  0.29180  1.0000 -0.5191078163
O   O72       1.0  0.38850  0.58410  0.20820  1.0000 -0.5191078163
O   O73       1.0  0.17980  0.04050  0.78880  1.0000 -0.5505666214
O   O74       1.0  0.82020  0.54050  0.71120  1.0000 -0.5505666214
O   O75       1.0  0.82020  0.95950  0.21120  1.0000 -0.5505666214
O   O76       1.0  0.17980  0.45950  0.28880  1.0000 -0.5505666214
O   O77       1.0  0.32620  0.05060  0.70280  1.0000 -0.5325138099
O   O78       1.0  0.67380  0.55060  0.79720  1.0000 -0.5325138099
O   O79       1.0  0.67380  0.94940  0.29720  1.0000 -0.5325138099
O   O80       1.0  0.32620  0.44940  0.20280  1.0000 -0.5325138099
O   O81       1.0  0.04660  0.75090  0.83110  1.0000 -0.1261730013
O   O82       1.0  0.95340  0.25090  0.66890  1.0000 -0.1261730013
O   O83       1.0  0.95340  0.24910  0.16890  1.0000 -0.1261730013
O   O84       1.0  0.04660  0.74910  0.33110  1.0000 -0.1261730013
O   O85       1.0  0.90900  0.88550  0.79130  1.0000 -0.301026804
O   O86       1.0  0.09100  0.38550  0.70870  1.0000 -0.301026804
O   O87       1.0  0.09100  0.11450  0.20870  1.0000 -0.301026804
O   O88       1.0  0.90900  0.61450  0.29130  1.0000 -0.301026804
