# DDEC6 charges by PACMAN v1.1 (https://github.com/mtap-research/PACMAN-charge/)
data_2016[ZnCo][idp]3[ASR]1
_chemical_formula_sum              "Zn16 Co6 H120 C252 N12 O88"
_cell_length_a       29.2575
_cell_length_b       29.2575
_cell_length_c       29.2575
_cell_angle_alpha    109.471
_cell_angle_beta     109.471
_cell_angle_gamma    109.471

_symmetry_space_group_name_H-M    "P 1"
_symmetry_Int_Tables_number       1

loop_
  _symmetry_equiv_pos_as_xyz
  'x, y, z'

loop_
  _atom_site_type_symbol
  _atom_site_label
  _atom_site_symmetry_multiplicity
  _atom_site_fract_x
  _atom_site_fract_y
  _atom_site_fract_z
  _atom_site_occupancy
  _atom_site_charge
Zn  Zn1       1.0  0.00000  0.00000  0.55722  1.0000 0.9597813641
Zn  Zn2       1.0  0.44278  0.44278  0.44278  1.0000 0.9597813641
Zn  Zn3       1.0  0.55722  0.00000  0.00000  1.0000 0.9597813641
Zn  Zn4       1.0  0.00000  0.55722  0.00000  1.0000 0.9597813641
Zn  Zn5       1.0  0.07540  0.03230  0.50406  1.0000 0.9485977446
Zn  Zn6       1.0  0.52824  0.57134  0.49594  1.0000 0.9485977446
Zn  Zn7       1.0  0.47176  0.96770  0.04310  1.0000 0.9485977446
Zn  Zn8       1.0  0.92460  0.42866  0.95690  1.0000 0.9485977446
Zn  Zn9       1.0  0.50406  0.07540  0.03230  1.0000 0.9485977446
Zn  Zn10      1.0  0.49594  0.52824  0.57134  1.0000 0.9485977446
Zn  Zn11      1.0  0.04310  0.47176  0.96770  1.0000 0.9485977446
Zn  Zn12      1.0  0.95690  0.92460  0.42866  1.0000 0.9485977446
Zn  Zn13      1.0  0.03230  0.50406  0.07540  1.0000 0.9485977446
Zn  Zn14      1.0  0.57134  0.49594  0.52824  1.0000 0.9485977446
Zn  Zn15      1.0  0.96770  0.04310  0.47176  1.0000 0.9485977446
Zn  Zn16      1.0  0.42866  0.95690  0.92460  1.0000 0.9485977446
Co  Co1       1.0  0.45644  0.50000  0.95644  1.0000 1.0078283107
Co  Co2       1.0  0.54356  0.50000  0.04356  1.0000 1.0078283107
Co  Co3       1.0  0.95644  0.45644  0.50000  1.0000 1.0078283107
Co  Co4       1.0  0.04356  0.54356  0.50000  1.0000 1.0078283107
Co  Co5       1.0  0.50000  0.95644  0.45644  1.0000 1.0078283107
Co  Co6       1.0  0.50000  0.04356  0.54356  1.0000 1.0078283107
H   H1        1.0  0.44350  0.15730  0.96220  1.0000 0.1471059626
H   H2        1.0  0.19510  0.48130  0.03780  1.0000 0.1471059626
H   H3        1.0  0.80490  0.84270  0.28620  1.0000 0.1471059626
H   H4        1.0  0.55650  0.51870  0.71380  1.0000 0.1471059626
H   H5        1.0  0.96220  0.44350  0.15730  1.0000 0.1471059626
H   H6        1.0  0.03780  0.19510  0.48130  1.0000 0.1471059626
H   H7        1.0  0.28620  0.80490  0.84270  1.0000 0.1471059626
H   H8        1.0  0.71380  0.55650  0.51870  1.0000 0.1471059626
H   H9        1.0  0.15730  0.96220  0.44350  1.0000 0.1471059626
H   H10       1.0  0.48130  0.03780  0.19510  1.0000 0.1471059626
H   H11       1.0  0.84270  0.28620  0.80490  1.0000 0.1471059626
H   H12       1.0  0.51870  0.71380  0.55650  1.0000 0.1471059626
H   H13       1.0  0.32860  0.00580  0.82660  1.0000 0.1298049608
H   H14       1.0  0.17920  0.50200  0.17340  1.0000 0.1298049608
H   H15       1.0  0.82080  0.99420  0.32280  1.0000 0.1298049608
H   H16       1.0  0.67140  0.49800  0.67720  1.0000 0.1298049608
H   H17       1.0  0.82660  0.32860  0.00580  1.0000 0.1298049608
H   H18       1.0  0.17340  0.17920  0.50200  1.0000 0.1298049608
H   H19       1.0  0.32280  0.82080  0.99420  1.0000 0.1298049608
H   H20       1.0  0.67720  0.67140  0.49800  1.0000 0.1298049608
H   H21       1.0  0.00580  0.82660  0.32860  1.0000 0.1298049608
H   H22       1.0  0.50200  0.17340  0.17920  1.0000 0.1298049608
H   H23       1.0  0.99420  0.32280  0.82080  1.0000 0.1298049608
H   H24       1.0  0.49800  0.67720  0.67140  1.0000 0.1298049608
H   H25       1.0  0.28480  0.04880  0.79180  1.0000 0.1298049608
H   H26       1.0  0.25700  0.49300  0.20820  1.0000 0.1298049608
H   H27       1.0  0.74300  0.95120  0.23600  1.0000 0.1298049608
H   H28       1.0  0.71520  0.50700  0.76400  1.0000 0.1298049608
H   H29       1.0  0.79180  0.28480  0.04880  1.0000 0.1298049608
H   H30       1.0  0.20820  0.25700  0.49300  1.0000 0.1298049608
H   H31       1.0  0.23600  0.74300  0.95120  1.0000 0.1298049608
H   H32       1.0  0.76400  0.71520  0.50700  1.0000 0.1298049608
H   H33       1.0  0.04880  0.79180  0.28480  1.0000 0.1298049608
H   H34       1.0  0.49300  0.20820  0.25700  1.0000 0.1298049608
H   H35       1.0  0.95120  0.23600  0.74300  1.0000 0.1298049608
H   H36       1.0  0.50700  0.76400  0.71520  1.0000 0.1298049608
H   H37       1.0  0.46180  0.31900  0.97040  1.0000 0.1575460651
H   H38       1.0  0.34860  0.49140  0.02960  1.0000 0.1575460651
H   H39       1.0  0.65140  0.68100  0.14280  1.0000 0.1575460651
H   H40       1.0  0.53820  0.50860  0.85720  1.0000 0.1575460651
H   H41       1.0  0.97040  0.46180  0.31900  1.0000 0.1575460651
H   H42       1.0  0.02960  0.34860  0.49140  1.0000 0.1575460651
H   H43       1.0  0.14280  0.65140  0.68100  1.0000 0.1575460651
H   H44       1.0  0.85720  0.53820  0.50860  1.0000 0.1575460651
H   H45       1.0  0.31900  0.97040  0.46180  1.0000 0.1575460651
H   H46       1.0  0.49140  0.02960  0.34860  1.0000 0.1575460651
H   H47       1.0  0.68100  0.14280  0.65140  1.0000 0.1575460651
H   H48       1.0  0.50860  0.85720  0.53820  1.0000 0.1575460651
H   H49       1.0  0.29910  0.22440  0.79850  1.0000 0.1298049608
H   H50       1.0  0.42590  0.50060  0.20150  1.0000 0.1298049608
H   H51       1.0  0.57410  0.77560  0.07470  1.0000 0.1298049608
H   H52       1.0  0.70090  0.49940  0.92530  1.0000 0.1298049608
H   H53       1.0  0.79850  0.29910  0.22440  1.0000 0.1298049608
H   H54       1.0  0.20150  0.42590  0.50060  1.0000 0.1298049608
H   H55       1.0  0.07470  0.57410  0.77560  1.0000 0.1298049608
H   H56       1.0  0.92530  0.70090  0.49940  1.0000 0.1298049608
H   H57       1.0  0.22440  0.79850  0.29910  1.0000 0.1298049608
H   H58       1.0  0.50060  0.20150  0.42590  1.0000 0.1298049608
H   H59       1.0  0.77560  0.07470  0.57410  1.0000 0.1298049608
H   H60       1.0  0.49940  0.92530  0.70090  1.0000 0.1298049608
H   H61       1.0  0.22550  0.08350  0.64320  1.0000 0.1197425048
H   H62       1.0  0.44030  0.58230  0.35680  1.0000 0.1197425048
H   H63       1.0  0.55970  0.91650  0.14200  1.0000 0.1197425048
H   H64       1.0  0.77450  0.41770  0.85800  1.0000 0.1197425048
H   H65       1.0  0.64320  0.22550  0.08350  1.0000 0.1197425048
H   H66       1.0  0.35680  0.44030  0.58230  1.0000 0.1197425048
H   H67       1.0  0.14200  0.55970  0.91650  1.0000 0.1197425048
H   H68       1.0  0.85800  0.77450  0.41770  1.0000 0.1197425048
H   H69       1.0  0.08350  0.64320  0.22550  1.0000 0.1197425048
H   H70       1.0  0.58230  0.35680  0.44030  1.0000 0.1197425048
H   H71       1.0  0.91650  0.14200  0.55970  1.0000 0.1197425048
H   H72       1.0  0.41770  0.85800  0.77450  1.0000 0.1197425048
H   H73       1.0  0.30580  0.12170  0.72710  1.0000 0.1298049608
H   H74       1.0  0.39460  0.57870  0.27290  1.0000 0.1298049608
H   H75       1.0  0.60540  0.87830  0.18410  1.0000 0.1298049608
H   H76       1.0  0.69420  0.42130  0.81590  1.0000 0.1298049608
H   H77       1.0  0.72710  0.30580  0.12170  1.0000 0.1298049608
H   H78       1.0  0.27290  0.39460  0.57870  1.0000 0.1298049608
H   H79       1.0  0.18410  0.60540  0.87830  1.0000 0.1298049608
H   H80       1.0  0.81590  0.69420  0.42130  1.0000 0.1298049608
H   H81       1.0  0.12170  0.72710  0.30580  1.0000 0.1298049608
H   H82       1.0  0.57870  0.27290  0.39460  1.0000 0.1298049608
H   H83       1.0  0.87830  0.18410  0.60540  1.0000 0.1298049608
H   H84       1.0  0.42130  0.81590  0.69420  1.0000 0.1298049608
H   H85       1.0  0.34980  0.32040  0.84820  1.0000 0.1298049608
H   H86       1.0  0.47220  0.50160  0.15180  1.0000 0.1298049608
H   H87       1.0  0.52780  0.67960  0.02940  1.0000 0.1298049608
H   H88       1.0  0.65020  0.49840  0.97060  1.0000 0.1298049608
H   H89       1.0  0.84820  0.34980  0.32040  1.0000 0.1298049608
H   H90       1.0  0.15180  0.47220  0.50160  1.0000 0.1298049608
H   H91       1.0  0.02940  0.52780  0.67960  1.0000 0.1298049608
H   H92       1.0  0.97060  0.65020  0.49840  1.0000 0.1298049608
H   H93       1.0  0.32040  0.84820  0.34980  1.0000 0.1298049608
H   H94       1.0  0.50160  0.15180  0.47220  1.0000 0.1298049608
H   H95       1.0  0.67960  0.02940  0.52780  1.0000 0.1298049608
H   H96       1.0  0.49840  0.97060  0.65020  1.0000 0.1298049608
H   H97       1.0  0.22500  0.12000  0.80640  1.0000 0.1298049608
H   H98       1.0  0.31360  0.41860  0.19360  1.0000 0.1298049608
H   H99       1.0  0.68640  0.88000  0.10500  1.0000 0.1298049608
H   H100      1.0  0.77500  0.58140  0.89500  1.0000 0.1298049608
H   H101      1.0  0.80640  0.22500  0.12000  1.0000 0.1298049608
H   H102      1.0  0.19360  0.31360  0.41860  1.0000 0.1298049608
H   H103      1.0  0.10500  0.68640  0.88000  1.0000 0.1298049608
H   H104      1.0  0.89500  0.77500  0.58140  1.0000 0.1298049608
H   H105      1.0  0.12000  0.80640  0.22500  1.0000 0.1298049608
H   H106      1.0  0.41860  0.19360  0.31360  1.0000 0.1298049608
H   H107      1.0  0.88000  0.10500  0.68640  1.0000 0.1298049608
H   H108      1.0  0.58140  0.89500  0.77500  1.0000 0.1298049608
H   H109      1.0  0.13880  0.07240  0.71920  1.0000 0.1197425048
H   H110      1.0  0.35320  0.41960  0.28080  1.0000 0.1197425048
H   H111      1.0  0.64680  0.92760  0.06640  1.0000 0.1197425048
H   H112      1.0  0.86120  0.58040  0.93360  1.0000 0.1197425048
H   H113      1.0  0.71920  0.13880  0.07240  1.0000 0.1197425048
H   H114      1.0  0.28080  0.35320  0.41960  1.0000 0.1197425048
H   H115      1.0  0.06640  0.64680  0.92760  1.0000 0.1197425048
H   H116      1.0  0.93360  0.86120  0.58040  1.0000 0.1197425048
H   H117      1.0  0.07240  0.71920  0.13880  1.0000 0.1197425048
H   H118      1.0  0.41960  0.28080  0.35320  1.0000 0.1197425048
H   H119      1.0  0.92760  0.06640  0.64680  1.0000 0.1197425048
H   H120      1.0  0.58040  0.93360  0.86120  1.0000 0.1197425048
C   C1        1.0  0.41250  0.13520  0.92630  1.0000 -0.1694506372
C   C2        1.0  0.20890  0.48620  0.07370  1.0000 -0.1694506372
C   C3        1.0  0.79110  0.86480  0.27730  1.0000 -0.1694506372
C   C4        1.0  0.58750  0.51380  0.72270  1.0000 -0.1694506372
C   C5        1.0  0.92630  0.41250  0.13520  1.0000 -0.1694506372
C   C6        1.0  0.07370  0.20890  0.48620  1.0000 -0.1694506372
C   C7        1.0  0.27730  0.79110  0.86480  1.0000 -0.1694506372
C   C8        1.0  0.72270  0.58750  0.51380  1.0000 -0.1694506372
C   C9        1.0  0.13520  0.92630  0.41250  1.0000 -0.1694506372
C   C10       1.0  0.48620  0.07370  0.20890  1.0000 -0.1694506372
C   C11       1.0  0.86480  0.27730  0.79110  1.0000 -0.1694506372
C   C12       1.0  0.51380  0.72270  0.58750  1.0000 -0.1694506372
C   C13       1.0  0.34910  0.21610  0.85500  1.0000 0.0747425094
C   C14       1.0  0.36110  0.49410  0.14500  1.0000 0.0747425094
C   C15       1.0  0.63890  0.78390  0.13300  1.0000 0.0747425094
C   C16       1.0  0.65090  0.50590  0.86700  1.0000 0.0747425094
C   C17       1.0  0.85500  0.34910  0.21610  1.0000 0.0747425094
C   C18       1.0  0.14500  0.36110  0.49410  1.0000 0.0747425094
C   C19       1.0  0.13300  0.63890  0.78390  1.0000 0.0747425094
C   C20       1.0  0.86700  0.65090  0.50590  1.0000 0.0747425094
C   C21       1.0  0.21610  0.85500  0.34910  1.0000 0.0747425094
C   C22       1.0  0.49410  0.14500  0.36110  1.0000 0.0764271026
C   C23       1.0  0.78390  0.13300  0.63890  1.0000 0.0747425094
C   C24       1.0  0.50590  0.86700  0.65090  1.0000 0.0747425094
C   C25       1.0  0.34360  0.04440  0.84660  1.0000 -0.0885188773
C   C26       1.0  0.19780  0.49700  0.15340  1.0000 -0.0885188773
C   C27       1.0  0.80220  0.95560  0.29920  1.0000 -0.0885188773
C   C28       1.0  0.65640  0.50300  0.70080  1.0000 -0.0885188773
C   C29       1.0  0.84660  0.34360  0.04440  1.0000 -0.0885188773
C   C30       1.0  0.15340  0.19780  0.49700  1.0000 -0.0885188773
C   C31       1.0  0.29920  0.80220  0.95560  1.0000 -0.0885188773
C   C32       1.0  0.70080  0.65640  0.50300  1.0000 -0.0885188773
C   C33       1.0  0.04440  0.84660  0.34360  1.0000 -0.0885188773
C   C34       1.0  0.49700  0.15340  0.19780  1.0000 -0.0885188773
C   C35       1.0  0.95560  0.29920  0.80220  1.0000 -0.0885188773
C   C36       1.0  0.50300  0.70080  0.65640  1.0000 -0.0885188773
C   C37       1.0  0.31950  0.07090  0.82440  1.0000 -0.1694506372
C   C38       1.0  0.24650  0.49510  0.17560  1.0000 -0.1694506372
C   C39       1.0  0.75350  0.92910  0.24860  1.0000 -0.1694506372
C   C40       1.0  0.68050  0.50490  0.75140  1.0000 -0.1694506372
C   C41       1.0  0.82440  0.31950  0.07090  1.0000 -0.1694506372
C   C42       1.0  0.17560  0.24650  0.49510  1.0000 -0.1694506372
C   C43       1.0  0.24860  0.75350  0.92910  1.0000 -0.1694506372
C   C44       1.0  0.75140  0.68050  0.50490  1.0000 -0.1694506372
C   C45       1.0  0.07090  0.82440  0.31950  1.0000 -0.1694506372
C   C46       1.0  0.49510  0.17560  0.24650  1.0000 -0.1694506372
C   C47       1.0  0.92910  0.24860  0.75350  1.0000 -0.1694506372
C   C48       1.0  0.50490  0.75140  0.68050  1.0000 -0.1694506372
C   C49       1.0  0.39940  0.24410  0.90630  1.0000 0.1833006894
C   C50       1.0  0.33780  0.49310  0.09370  1.0000 0.1833006894
C   C51       1.0  0.66220  0.75590  0.15530  1.0000 0.1833006894
C   C52       1.0  0.60060  0.50690  0.84470  1.0000 0.1833006894
C   C53       1.0  0.90630  0.39940  0.24410  1.0000 0.1833006894
C   C54       1.0  0.09370  0.33780  0.49310  1.0000 0.1833006894
C   C55       1.0  0.15530  0.66220  0.75590  1.0000 0.1833006894
C   C56       1.0  0.84470  0.60060  0.50690  1.0000 0.1833006894
C   C57       1.0  0.24410  0.90630  0.39940  1.0000 0.1833006894
C   C58       1.0  0.49310  0.09370  0.33780  1.0000 0.1833006894
C   C59       1.0  0.75590  0.15530  0.66220  1.0000 0.1833006894
C   C60       1.0  0.50690  0.84470  0.60060  1.0000 0.1833006894
C   C61       1.0  0.39110  0.15800  0.90290  1.0000 0.1471059626
C   C62       1.0  0.25510  0.48820  0.09710  1.0000 0.1471059626
C   C63       1.0  0.74490  0.84200  0.23310  1.0000 0.1471059626
C   C64       1.0  0.60890  0.51180  0.76690  1.0000 0.1471059626
C   C65       1.0  0.90290  0.39110  0.15800  1.0000 0.1471059626
C   C66       1.0  0.09710  0.25510  0.48820  1.0000 0.1471059626
C   C67       1.0  0.23310  0.74490  0.84200  1.0000 0.1471059626
C   C68       1.0  0.76690  0.60890  0.51180  1.0000 0.1471059626
C   C69       1.0  0.15800  0.90290  0.39110  1.0000 0.1471059626
C   C70       1.0  0.48820  0.09710  0.25510  1.0000 0.1471059626
C   C71       1.0  0.84200  0.23310  0.74490  1.0000 0.1471059626
C   C72       1.0  0.51180  0.76690  0.60890  1.0000 0.1471059626
C   C73       1.0  0.34300  0.12590  0.84690  1.0000 0.1030011449
C   C74       1.0  0.27900  0.49610  0.15310  1.0000 0.1030011449
C   C75       1.0  0.72100  0.87410  0.21710  1.0000 0.1030011449
C   C76       1.0  0.65700  0.50390  0.78290  1.0000 0.1030011449
C   C77       1.0  0.84690  0.34300  0.12590  1.0000 0.1030011449
C   C78       1.0  0.15310  0.27900  0.49610  1.0000 0.1030011449
C   C79       1.0  0.21710  0.72100  0.87410  1.0000 0.1030011449
C   C80       1.0  0.78290  0.65700  0.50390  1.0000 0.1030011449
C   C81       1.0  0.12590  0.84690  0.34300  1.0000 0.1030011449
C   C82       1.0  0.49610  0.15310  0.27900  1.0000 0.1030011449
C   C83       1.0  0.87410  0.21710  0.72100  1.0000 0.1030011449
C   C84       1.0  0.50390  0.78290  0.65700  1.0000 0.1030011449
C   C85       1.0  0.39030  0.07680  0.89890  1.0000 -0.0426217999
C   C86       1.0  0.17790  0.49140  0.10110  1.0000 -0.0426217999
C   C87       1.0  0.82210  0.92320  0.31350  1.0000 -0.0426217999
C   C88       1.0  0.60970  0.50860  0.68650  1.0000 -0.0426217999
C   C89       1.0  0.89890  0.39030  0.07680  1.0000 -0.0426217999
C   C90       1.0  0.10110  0.17790  0.49140  1.0000 -0.0426217999
C   C91       1.0  0.31350  0.82210  0.92320  1.0000 -0.0426217999
C   C92       1.0  0.68650  0.60970  0.50860  1.0000 -0.0426217999
C   C93       1.0  0.07680  0.89890  0.39030  1.0000 -0.0426217999
C   C94       1.0  0.49140  0.10110  0.17790  1.0000 -0.0426217999
C   C95       1.0  0.92320  0.31350  0.82210  1.0000 -0.0426217999
C   C96       1.0  0.50860  0.68650  0.60970  1.0000 -0.0426217999
C   C97       1.0  0.42940  0.30050  0.93590  1.0000 -0.187346484
C   C98       1.0  0.36460  0.49350  0.06410  1.0000 -0.187346484
C   C99       1.0  0.63540  0.69950  0.12890  1.0000 -0.187346484
C   C100      1.0  0.57060  0.50650  0.87110  1.0000 -0.187346484
C   C101      1.0  0.93590  0.42940  0.30050  1.0000 -0.187346484
C   C102      1.0  0.06410  0.36460  0.49350  1.0000 -0.187346484
C   C103      1.0  0.12890  0.63540  0.69950  1.0000 -0.187346484
C   C104      1.0  0.87110  0.57060  0.50650  1.0000 -0.187346484
C   C105      1.0  0.30050  0.93590  0.42940  1.0000 -0.187346484
C   C106      1.0  0.49350  0.06410  0.36460  1.0000 -0.187346484
C   C107      1.0  0.69950  0.12890  0.63540  1.0000 -0.187346484
C   C108      1.0  0.50650  0.87110  0.57060  1.0000 -0.187346484
C   C109      1.0  0.41090  0.33050  0.91360  1.0000 -0.021433952
C   C110      1.0  0.41690  0.49730  0.08640  1.0000 -0.021433952
C   C111      1.0  0.58310  0.66950  0.08040  1.0000 -0.021433952
C   C112      1.0  0.58910  0.50270  0.91960  1.0000 -0.021433952
C   C113      1.0  0.91360  0.41090  0.33050  1.0000 -0.021433952
C   C114      1.0  0.08640  0.41690  0.49730  1.0000 -0.021433952
C   C115      1.0  0.08040  0.58310  0.66950  1.0000 -0.021433952
C   C116      1.0  0.91960  0.58910  0.50270  1.0000 -0.021433952
C   C117      1.0  0.33050  0.91360  0.41090  1.0000 -0.021433952
C   C118      1.0  0.49730  0.08640  0.41690  1.0000 -0.021433952
C   C119      1.0  0.66950  0.08040  0.58310  1.0000 -0.021433952
C   C120      1.0  0.50270  0.91960  0.58910  1.0000 -0.021433952
C   C121      1.0  0.33150  0.24330  0.83320  1.0000 -0.1575729792
C   C122      1.0  0.41010  0.49830  0.16680  1.0000 -0.1575729792
C   C123      1.0  0.58990  0.75670  0.08820  1.0000 -0.1575729792
C   C124      1.0  0.66850  0.50170  0.91180  1.0000 -0.1575729792
C   C125      1.0  0.83320  0.33150  0.24330  1.0000 -0.1575729792
C   C126      1.0  0.16680  0.41010  0.49830  1.0000 -0.1575729792
C   C127      1.0  0.08820  0.58990  0.75670  1.0000 -0.1575729792
C   C128      1.0  0.91180  0.66850  0.50170  1.0000 -0.1575729792
C   C129      1.0  0.24330  0.83320  0.33150  1.0000 -0.1575729792
C   C130      1.0  0.49830  0.16680  0.41010  1.0000 -0.1575729792
C   C131      1.0  0.75670  0.08820  0.58990  1.0000 -0.1575729792
C   C132      1.0  0.50170  0.91180  0.66850  1.0000 -0.1575729792
C   C133      1.0  0.44150  0.39240  0.94170  1.0000 0.5850644464
C   C134      1.0  0.45070  0.49980  0.05830  1.0000 0.5850644464
C   C135      1.0  0.54930  0.60760  0.04910  1.0000 0.5850644464
C   C136      1.0  0.55850  0.50020  0.95090  1.0000 0.5850644464
C   C137      1.0  0.94170  0.44150  0.39240  1.0000 0.5850644464
C   C138      1.0  0.05830  0.45070  0.49980  1.0000 0.5850644464
C   C139      1.0  0.04910  0.54930  0.60760  1.0000 0.5850644464
C   C140      1.0  0.95090  0.55850  0.50020  1.0000 0.5850644464
C   C141      1.0  0.39240  0.94170  0.44150  1.0000 0.5850644464
C   C142      1.0  0.49980  0.05830  0.45070  1.0000 0.5850644464
C   C143      1.0  0.60760  0.04910  0.54930  1.0000 0.5850644464
C   C144      1.0  0.50020  0.95090  0.55850  1.0000 0.5850644464
C   C145      1.0  0.41680  0.05520  0.93140  1.0000 0.5796125089
C   C146      1.0  0.12380  0.48540  0.06860  1.0000 0.5796125089
C   C147      1.0  0.87620  0.94480  0.36160  1.0000 0.5796125089
C   C148      1.0  0.58320  0.51460  0.63840  1.0000 0.5796125089
C   C149      1.0  0.93140  0.41680  0.05520  1.0000 0.5796125089
C   C150      1.0  0.06860  0.12380  0.48540  1.0000 0.5796125089
C   C151      1.0  0.36160  0.87620  0.94480  1.0000 0.5796125089
C   C152      1.0  0.63840  0.58320  0.51460  1.0000 0.5796125089
C   C153      1.0  0.05520  0.93140  0.41680  1.0000 0.5796125089
C   C154      1.0  0.48540  0.06860  0.12380  1.0000 0.5796125089
C   C155      1.0  0.94480  0.36160  0.87620  1.0000 0.5796125089
C   C156      1.0  0.51460  0.63840  0.58320  1.0000 0.5796125089
C   C157      1.0  0.17290  0.07490  0.67180  1.0000 -0.0885188773
C   C158      1.0  0.40310  0.50110  0.32820  1.0000 -0.0885188773
C   C159      1.0  0.59690  0.92510  0.09800  1.0000 -0.0885188773
C   C160      1.0  0.82710  0.49890  0.90200  1.0000 -0.0885188773
C   C161      1.0  0.67180  0.17290  0.07490  1.0000 -0.0885188773
C   C162      1.0  0.32820  0.40310  0.50110  1.0000 -0.0885188773
C   C163      1.0  0.09800  0.59690  0.92510  1.0000 -0.0885188773
C   C164      1.0  0.90200  0.82710  0.49890  1.0000 -0.0885188773
C   C165      1.0  0.07490  0.67180  0.17290  1.0000 -0.0885188773
C   C166      1.0  0.50110  0.32820  0.40310  1.0000 -0.0885188773
C   C167      1.0  0.92510  0.09800  0.59690  1.0000 -0.0885188773
C   C168      1.0  0.49890  0.90200  0.82710  1.0000 -0.0885188773
C   C169      1.0  0.22300  0.08950  0.67530  1.0000 -0.0716931532
C   C170      1.0  0.41420  0.54770  0.32470  1.0000 -0.0716931532
C   C171      1.0  0.58580  0.91050  0.13350  1.0000 -0.0716931532
C   C172      1.0  0.77700  0.45230  0.86650  1.0000 -0.0716931532
C   C173      1.0  0.67530  0.22300  0.08950  1.0000 -0.0716931532
C   C174      1.0  0.32470  0.41420  0.54770  1.0000 -0.0716931532
C   C175      1.0  0.13350  0.58580  0.91050  1.0000 -0.0716931532
C   C176      1.0  0.86650  0.77700  0.45230  1.0000 -0.0716931532
C   C177      1.0  0.08950  0.67530  0.22300  1.0000 -0.0716931532
C   C178      1.0  0.54770  0.32470  0.41420  1.0000 -0.0716931532
C   C179      1.0  0.91050  0.13350  0.58580  1.0000 -0.0716931532
C   C180      1.0  0.45230  0.86650  0.77700  1.0000 -0.0716931532
C   C181      1.0  0.27020  0.12410  0.77010  1.0000 0.1298049608
C   C182      1.0  0.35400  0.50010  0.22990  1.0000 0.1355134525
C   C183      1.0  0.64600  0.87590  0.14610  1.0000 0.1355134525
C   C184      1.0  0.72980  0.49990  0.85390  1.0000 0.1355134525
C   C185      1.0  0.77010  0.27020  0.12410  1.0000 0.1355134525
C   C186      1.0  0.22990  0.35400  0.50010  1.0000 0.1355134525
C   C187      1.0  0.14610  0.64600  0.87590  1.0000 0.1355134525
C   C188      1.0  0.85390  0.72980  0.49990  1.0000 0.1355134525
C   C189      1.0  0.12410  0.77010  0.27020  1.0000 0.1355134525
C   C190      1.0  0.50010  0.22990  0.35400  1.0000 0.1355134525
C   C191      1.0  0.87590  0.14610  0.64600  1.0000 0.1355134525
C   C192      1.0  0.49990  0.85390  0.72980  1.0000 0.1355134525
C   C193      1.0  0.27190  0.11360  0.72630  1.0000 -0.1575729792
C   C194      1.0  0.38730  0.54560  0.27370  1.0000 -0.1575729792
C   C195      1.0  0.61270  0.88640  0.15830  1.0000 -0.1575729792
C   C196      1.0  0.72810  0.45440  0.84170  1.0000 -0.1575729792
C   C197      1.0  0.72630  0.27190  0.11360  1.0000 -0.1575729792
C   C198      1.0  0.27370  0.38730  0.54560  1.0000 -0.1575729792
C   C199      1.0  0.15830  0.61270  0.88640  1.0000 -0.1575729792
C   C200      1.0  0.84170  0.72810  0.45440  1.0000 -0.1575729792
C   C201      1.0  0.11360  0.72630  0.27190  1.0000 -0.1575729792
C   C202      1.0  0.54560  0.27370  0.38730  1.0000 -0.1575729792
C   C203      1.0  0.88640  0.15830  0.61270  1.0000 -0.1575729792
C   C204      1.0  0.45440  0.84170  0.72810  1.0000 -0.1575729792
C   C205      1.0  0.36240  0.30060  0.86300  1.0000 -0.09705134
C   C206      1.0  0.43760  0.49940  0.13700  1.0000 -0.09705134
C   C207      1.0  0.56240  0.69940  0.06180  1.0000 -0.09705134
C   C208      1.0  0.63760  0.50060  0.93820  1.0000 -0.09705134
C   C209      1.0  0.86300  0.36240  0.30060  1.0000 -0.09705134
C   C210      1.0  0.13700  0.43760  0.49940  1.0000 -0.09705134
C   C211      1.0  0.06180  0.56240  0.69940  1.0000 -0.09705134
C   C212      1.0  0.93820  0.63760  0.50060  1.0000 -0.09705134
C   C213      1.0  0.30060  0.86300  0.36240  1.0000 -0.09705134
C   C214      1.0  0.49940  0.13700  0.43760  1.0000 -0.09705134
C   C215      1.0  0.69940  0.06180  0.56240  1.0000 -0.09705134
C   C216      1.0  0.50060  0.93820  0.63760  1.0000 -0.09705134
C   C217      1.0  0.22460  0.11160  0.77260  1.0000 -0.2273439983
C   C218      1.0  0.33900  0.45200  0.22740  1.0000 -0.2273439983
C   C219      1.0  0.66100  0.88840  0.11300  1.0000 -0.2273439983
C   C220      1.0  0.77540  0.54800  0.88700  1.0000 -0.2273439983
C   C221      1.0  0.77260  0.22460  0.11160  1.0000 -0.2273439983
C   C222      1.0  0.22740  0.33900  0.45200  1.0000 -0.2273439983
C   C223      1.0  0.11300  0.66100  0.88840  1.0000 -0.2273439983
C   C224      1.0  0.88700  0.77540  0.54800  1.0000 -0.2273439983
C   C225      1.0  0.11160  0.77260  0.22460  1.0000 -0.2273439983
C   C226      1.0  0.45200  0.22740  0.33900  1.0000 -0.2273439983
C   C227      1.0  0.88840  0.11300  0.66100  1.0000 -0.2273439983
C   C228      1.0  0.54800  0.88700  0.77540  1.0000 -0.2273439983
C   C229      1.0  0.12390  0.05440  0.62110  1.0000 0.5707035914
C   C230      1.0  0.43330  0.50280  0.37890  1.0000 0.5707035914
C   C231      1.0  0.56670  0.94560  0.06950  1.0000 0.5707035914
C   C232      1.0  0.87610  0.49720  0.93050  1.0000 0.5707035914
C   C233      1.0  0.62110  0.12390  0.05440  1.0000 0.5707035914
C   C234      1.0  0.37890  0.43330  0.50280  1.0000 0.5707035914
C   C235      1.0  0.06950  0.56670  0.94560  1.0000 0.5707035914
C   C236      1.0  0.93050  0.87610  0.49720  1.0000 0.5707035914
C   C237      1.0  0.05440  0.62110  0.12390  1.0000 0.5707035914
C   C238      1.0  0.50280  0.37890  0.43330  1.0000 0.5707035914
C   C239      1.0  0.94560  0.06950  0.56670  1.0000 0.5707035914
C   C240      1.0  0.49720  0.93050  0.87610  1.0000 0.5707035914
C   C241      1.0  0.17270  0.08400  0.71970  1.0000 -0.0716931532
C   C242      1.0  0.36430  0.45300  0.28030  1.0000 -0.0716931532
C   C243      1.0  0.63570  0.91600  0.08870  1.0000 -0.0716931532
C   C244      1.0  0.82730  0.54700  0.91130  1.0000 -0.0716931532
C   C245      1.0  0.71970  0.17270  0.08400  1.0000 -0.0716931532
C   C246      1.0  0.28030  0.36430  0.45300  1.0000 -0.0716931532
C   C247      1.0  0.08870  0.63570  0.91600  1.0000 -0.0716931532
C   C248      1.0  0.91130  0.82730  0.54700  1.0000 -0.0716931532
C   C249      1.0  0.08400  0.71970  0.17270  1.0000 -0.0716931532
C   C250      1.0  0.45300  0.28030  0.36430  1.0000 -0.0716931532
C   C251      1.0  0.91600  0.08870  0.63570  1.0000 -0.0716931532
C   C252      1.0  0.54700  0.91130  0.82730  1.0000 -0.0716931532
N   N1        1.0  0.31970  0.15430  0.82540  1.0000 -0.1764455097
N   N2        1.0  0.32890  0.49430  0.17460  1.0000 -0.1764455097
N   N3        1.0  0.67110  0.84570  0.16540  1.0000 -0.1764455097
N   N4        1.0  0.68030  0.50570  0.83460  1.0000 -0.1764455097
N   N5        1.0  0.82540  0.31970  0.15430  1.0000 -0.1694506372
N   N6        1.0  0.17460  0.32890  0.49430  1.0000 -0.1764455097
N   N7        1.0  0.16540  0.67110  0.84570  1.0000 -0.1694506372
N   N8        1.0  0.83460  0.68030  0.50570  1.0000 -0.1764455097
N   N9        1.0  0.15430  0.82540  0.31970  1.0000 -0.1764455097
N   N10       1.0  0.49430  0.17460  0.32890  1.0000 -0.1764455097
N   N11       1.0  0.84570  0.16540  0.67110  1.0000 -0.1694506372
N   N12       1.0  0.50570  0.83460  0.68030  1.0000 -0.1694506372
O   O1        1.0  0.41860  0.21850  0.93250  1.0000 -0.1694506372
O   O2        1.0  0.28600  0.48610  0.06750  1.0000 -0.1694506372
O   O3        1.0  0.71400  0.78150  0.20010  1.0000 -0.1694506372
O   O4        1.0  0.58140  0.51390  0.79990  1.0000 -0.1694506372
O   O5        1.0  0.93250  0.41860  0.21850  1.0000 -0.1694506372
O   O6        1.0  0.06750  0.28600  0.48610  1.0000 -0.1694506372
O   O7        1.0  0.20010  0.71400  0.78150  1.0000 -0.1694506372
O   O8        1.0  0.79990  0.58140  0.51390  1.0000 -0.1694506372
O   O9        1.0  0.21850  0.93250  0.41860  1.0000 -0.1694506372
O   O10       1.0  0.48610  0.06750  0.28600  1.0000 -0.1694506372
O   O11       1.0  0.78150  0.20010  0.71400  1.0000 -0.1694506372
O   O12       1.0  0.51390  0.79990  0.58140  1.0000 -0.1694506372
O   O13       1.0  0.48840  0.41610  0.99090  1.0000 -0.6075444316
O   O14       1.0  0.42520  0.49750  0.00910  1.0000 -0.6075444316
O   O15       1.0  0.57480  0.58390  0.07230  1.0000 -0.6075444316
O   O16       1.0  0.51160  0.50250  0.92770  1.0000 -0.6075444316
O   O17       1.0  0.99090  0.48840  0.41610  1.0000 -0.6075444316
O   O18       1.0  0.00910  0.42520  0.49750  1.0000 -0.6075444316
O   O19       1.0  0.07230  0.57480  0.58390  1.0000 -0.6075444316
O   O20       1.0  0.92770  0.51160  0.50250  1.0000 -0.6075444316
O   O21       1.0  0.41610  0.99090  0.48840  1.0000 -0.6075444316
O   O22       1.0  0.49750  0.00910  0.42520  1.0000 -0.6075444316
O   O23       1.0  0.58390  0.07230  0.57480  1.0000 -0.6075444316
O   O24       1.0  0.50250  0.92770  0.51160  1.0000 -0.6075444316
O   O25       1.0  0.46110  0.08700  0.97790  1.0000 -0.527499248
O   O26       1.0  0.10910  0.48320  0.02210  1.0000 -0.527499248
O   O27       1.0  0.89090  0.91300  0.37410  1.0000 -0.527499248
O   O28       1.0  0.53890  0.51680  0.62590  1.0000 -0.527499248
O   O29       1.0  0.97790  0.46110  0.08700  1.0000 -0.527499248
O   O30       1.0  0.02210  0.10910  0.48320  1.0000 -0.527499248
O   O31       1.0  0.37410  0.89090  0.91300  1.0000 -0.527499248
O   O32       1.0  0.62590  0.53890  0.51680  1.0000 -0.527499248
O   O33       1.0  0.08700  0.97790  0.46110  1.0000 -0.527499248
O   O34       1.0  0.48320  0.02210  0.10910  1.0000 -0.527499248
O   O35       1.0  0.91300  0.37410  0.89090  1.0000 -0.527499248
O   O36       1.0  0.51680  0.62590  0.53890  1.0000 -0.527499248
O   O37       1.0  0.42390  0.41810  0.92180  1.0000 -0.5166682049
O   O38       1.0  0.49630  0.50210  0.07820  1.0000 -0.5166682049
O   O39       1.0  0.50370  0.58190  0.00580  1.0000 -0.5166682049
O   O40       1.0  0.57610  0.49790  0.99420  1.0000 -0.5166682049
O   O41       1.0  0.92180  0.42390  0.41810  1.0000 -0.5166682049
O   O42       1.0  0.07820  0.49630  0.50210  1.0000 -0.5166682049
O   O43       1.0  0.00580  0.50370  0.58190  1.0000 -0.5166682049
O   O44       1.0  0.99420  0.57610  0.49790  1.0000 -0.5166682049
O   O45       1.0  0.41810  0.92180  0.42390  1.0000 -0.5166682049
O   O46       1.0  0.50210  0.07820  0.49630  1.0000 -0.5166682049
O   O47       1.0  0.58190  0.00580  0.50370  1.0000 -0.5166682049
O   O48       1.0  0.49790  0.99420  0.57610  1.0000 -0.5166682049
O   O49       1.0  0.07580  0.03450  0.61930  1.0000 -0.5400539184
O   O50       1.0  0.41520  0.45650  0.38070  1.0000 -0.5400539184
O   O51       1.0  0.58480  0.96550  0.04130  1.0000 -0.5400539184
O   O52       1.0  0.92420  0.54350  0.95870  1.0000 -0.5400539184
O   O53       1.0  0.61930  0.07580  0.03450  1.0000 -0.5400539184
O   O54       1.0  0.38070  0.41520  0.45650  1.0000 -0.5400539184
O   O55       1.0  0.04130  0.58480  0.96550  1.0000 -0.5400539184
O   O56       1.0  0.95870  0.92420  0.54350  1.0000 -0.5400539184
O   O57       1.0  0.03450  0.61930  0.07580  1.0000 -0.5400539184
O   O58       1.0  0.45650  0.38070  0.41520  1.0000 -0.5400539184
O   O59       1.0  0.96550  0.04130  0.58480  1.0000 -0.5400539184
O   O60       1.0  0.54350  0.95870  0.92420  1.0000 -0.5400539184
O   O61       1.0  0.12690  0.05250  0.58020  1.0000 -0.4794491773
O   O62       1.0  0.47230  0.54670  0.41980  1.0000 -0.4794491773
O   O63       1.0  0.52770  0.94750  0.07440  1.0000 -0.4794491773
O   O64       1.0  0.87310  0.45330  0.92560  1.0000 -0.4794491773
O   O65       1.0  0.58020  0.12690  0.05250  1.0000 -0.4794491773
O   O66       1.0  0.41980  0.47230  0.54670  1.0000 -0.4794491773
O   O67       1.0  0.07440  0.52770  0.94750  1.0000 -0.4794491773
O   O68       1.0  0.92560  0.87310  0.45330  1.0000 -0.4794491773
O   O69       1.0  0.05250  0.58020  0.12690  1.0000 -0.4794491773
O   O70       1.0  0.54670  0.41980  0.47230  1.0000 -0.4794491773
O   O71       1.0  0.94750  0.07440  0.52770  1.0000 -0.4794491773
O   O72       1.0  0.45330  0.92560  0.87310  1.0000 -0.4794491773
O   O73       1.0  0.00000  0.00000  0.49140  1.0000 -1.0275580133
O   O74       1.0  0.50860  0.50860  0.50860  1.0000 -1.0275580133
O   O75       1.0  0.49140  0.00000  0.00000  1.0000 -1.0275580133
O   O76       1.0  0.00000  0.49140  0.00000  1.0000 -1.0275580133
O   O77       1.0  0.40430  0.00310  0.90040  1.0000 -0.5665470953
O   O78       1.0  0.10270  0.50390  0.09960  1.0000 -0.5665470953
O   O79       1.0  0.89730  0.99690  0.40120  1.0000 -0.5665470953
O   O80       1.0  0.59570  0.49610  0.59880  1.0000 -0.5665470953
O   O81       1.0  0.90040  0.40430  0.00310  1.0000 -0.5665470953
O   O82       1.0  0.09960  0.10270  0.50390  1.0000 -0.5665470953
O   O83       1.0  0.40120  0.89730  0.99690  1.0000 -0.5665470953
O   O84       1.0  0.59880  0.59570  0.49610  1.0000 -0.5665470953
O   O85       1.0  0.00310  0.90040  0.40430  1.0000 -0.5665470953
O   O86       1.0  0.50390  0.09960  0.10270  1.0000 -0.5665470953
O   O87       1.0  0.99690  0.40120  0.89730  1.0000 -0.5665470953
O   O88       1.0  0.49610  0.59880  0.59570  1.0000 -0.5665470953
