# DDEC6 charges by PACMAN v1.1 (https://github.com/mtap-research/PACMAN-charge/)
data_2017[Cd][nan]2[ASR]4
_chemical_formula_sum              "Cd4 H28 C44 N8 O18"
_cell_length_a       6.8646
_cell_length_b       10.8997
_cell_length_c       17.2065
_cell_angle_alpha    90.131
_cell_angle_beta     96.913
_cell_angle_gamma    104.764

_symmetry_space_group_name_H-M    "P 1"
_symmetry_Int_Tables_number       1

loop_
  _symmetry_equiv_pos_as_xyz
  'x, y, z'

loop_
  _atom_site_type_symbol
  _atom_site_label
  _atom_site_symmetry_multiplicity
  _atom_site_fract_x
  _atom_site_fract_y
  _atom_site_fract_z
  _atom_site_occupancy
  _atom_site_charge
Cd  Cd1       1.0  0.77673  0.42525  0.42597  1.0000 0.9422856161
Cd  Cd2       1.0  0.75326  0.68361  0.92651  1.0000 0.8044466266
Cd  Cd3       1.0  0.22327  0.57475  0.57403  1.0000 0.9422856161
Cd  Cd4       1.0  0.24674  0.31639  0.07349  1.0000 0.8044466266
H   H1        1.0  0.71890  0.71880  0.73210  1.0000 0.1379245008
H   H2        1.0  0.71100  0.90780  0.65770  1.0000 0.1379245008
H   H3        1.0  0.78430  0.99790  0.88510  1.0000 0.1316024042
H   H4        1.0  0.77760  0.11380  0.63330  1.0000 0.1316024042
H   H5        1.0  0.81650  0.47100  0.70580  1.0000 0.1316024042
H   H6        1.0  0.75260  0.19110  0.85970  1.0000 0.1316024042
H   H7        1.0  0.77520  0.38710  0.23390  1.0000 0.1499028059
H   H8        1.0  0.72880  0.18840  0.16070  1.0000 0.1379245008
H   H9        1.0  0.80700  0.12720  0.38740  1.0000 0.1316024042
H   H10       1.0  0.72800  0.91690  0.36260  1.0000 0.1316024042
H   H11       1.0  0.71240  0.63940  0.20680  1.0000 0.1379245008
H   H12       1.0  0.75810  0.99560  0.13580  1.0000 0.1379245008
H   H13       1.0  0.12160  0.69810  0.00880  1.0000 0.3617393264
H   H14       1.0  0.98270  0.69960  0.94390  1.0000 0.2292272562
H   H15       1.0  0.28110  0.28120  0.26790  1.0000 0.1379245008
H   H16       1.0  0.28900  0.09220  0.34230  1.0000 0.1379245008
H   H17       1.0  0.21570  0.00210  0.11490  1.0000 0.1316024042
H   H18       1.0  0.22240  0.88620  0.36670  1.0000 0.1316024042
H   H19       1.0  0.18350  0.52900  0.29420  1.0000 0.1316024042
H   H20       1.0  0.24740  0.80890  0.14030  1.0000 0.1316024042
H   H21       1.0  0.22480  0.61290  0.76610  1.0000 0.1499028059
H   H22       1.0  0.27120  0.81160  0.83930  1.0000 0.1379245008
H   H23       1.0  0.19300  0.87280  0.61260  1.0000 0.1316024042
H   H24       1.0  0.27200  0.08310  0.63740  1.0000 0.1316024042
H   H25       1.0  0.28760  0.36060  0.79320  1.0000 0.1379245008
H   H26       1.0  0.24190  0.00440  0.86420  1.0000 0.1379245008
H   H27       1.0  0.87840  0.30190  0.99120  1.0000 0.3617393264
H   H28       1.0  0.01730  0.30040  0.05610  1.0000 0.2292272562
C   C1        1.0  0.73110  0.79920  0.75354  1.0000 -0.0210691372
C   C2        1.0  0.72690  0.90300  0.71197  1.0000 -0.1159878632
C   C3        1.0  0.76740  0.95190  0.83808  1.0000 0.108251732
C   C4        1.0  0.77990  0.17190  0.67331  1.0000 -0.1873732171
C   C5        1.0  0.79820  0.29940  0.65734  1.0000 0.0079392945
C   C6        1.0  0.80170  0.38590  0.71681  1.0000 -0.1120900994
C   C7        1.0  0.78330  0.34600  0.79299  1.0000 0.0079392945
C   C8        1.0  0.76500  0.21850  0.80894  1.0000 -0.1873732171
C   C9        1.0  0.76530  0.13260  0.74954  1.0000 0.1602472851
C   C10       1.0  0.77140  0.43900  0.85600  1.0000 0.5517093727
C   C11       1.0  0.80680  0.34010  0.57426  1.0000 0.5728389511
C   C12       1.0  0.77540  0.30910  0.25564  1.0000 -0.0210691372
C   C13       1.0  0.75030  0.20000  0.21489  1.0000 -0.0873557141
C   C14       1.0  0.79330  0.16740  0.34018  1.0000 0.0937968234
C   C15       1.0  0.74690  0.97760  0.25166  1.0000 0.1499028059
C   C16       1.0  0.73070  0.89030  0.31141  1.0000 -0.2076962179
C   C17       1.0  0.71880  0.76460  0.29424  1.0000 0.0079392945
C   C18       1.0  0.72020  0.72420  0.21789  1.0000 -0.1120900994
C   C19       1.0  0.73330  0.80990  0.15807  1.0000 0.0030018985
C   C20       1.0  0.74780  0.93750  0.17560  1.0000 -0.1983876338
C   C21       1.0  0.73620  0.76850  0.07516  1.0000 0.5397850761
C   C22       1.0  0.71180  0.67150  0.35978  1.0000 0.5517093727
C   C23       1.0  0.26890  0.20080  0.24646  1.0000 -0.0210691372
C   C24       1.0  0.27310  0.09700  0.28803  1.0000 -0.1159878632
C   C25       1.0  0.23260  0.04810  0.16192  1.0000 0.108251732
C   C26       1.0  0.22010  0.82810  0.32669  1.0000 -0.1873732171
C   C27       1.0  0.20180  0.70060  0.34266  1.0000 0.0079392945
C   C28       1.0  0.19830  0.61410  0.28319  1.0000 -0.1120900994
C   C29       1.0  0.21670  0.65400  0.20701  1.0000 0.0079392945
C   C30       1.0  0.23500  0.78150  0.19106  1.0000 -0.1873732171
C   C31       1.0  0.23470  0.86740  0.25046  1.0000 0.1602472851
C   C32       1.0  0.22860  0.56100  0.14400  1.0000 0.5517093727
C   C33       1.0  0.19320  0.65990  0.42574  1.0000 0.5728389511
C   C34       1.0  0.22460  0.69090  0.74436  1.0000 -0.0210691372
C   C35       1.0  0.24970  0.80000  0.78511  1.0000 -0.0873557141
C   C36       1.0  0.20670  0.83260  0.65982  1.0000 0.0937968234
C   C37       1.0  0.25310  0.02240  0.74834  1.0000 0.1499028059
C   C38       1.0  0.26930  0.10970  0.68859  1.0000 -0.2076962179
C   C39       1.0  0.28120  0.23540  0.70576  1.0000 0.0079392945
C   C40       1.0  0.27980  0.27580  0.78211  1.0000 -0.1120900994
C   C41       1.0  0.26670  0.19010  0.84193  1.0000 0.0030018985
C   C42       1.0  0.25220  0.06250  0.82440  1.0000 -0.1983876338
C   C43       1.0  0.26380  0.23150  0.92484  1.0000 0.5397850761
C   C44       1.0  0.28820  0.32850  0.64022  1.0000 0.5517093727
N   N1        1.0  0.75620  0.82930  0.83250  1.0000 -0.2738003096
N   N2        1.0  0.75110  0.00160  0.76636  1.0000 -0.0003550296
N   N3        1.0  0.80140  0.28800  0.33427  1.0000 -0.2868619671
N   N4        1.0  0.76250  0.10850  0.26883  1.0000 0.0030018985
N   N5        1.0  0.24380  0.17070  0.16750  1.0000 -0.2738003096
N   N6        1.0  0.24890  0.99840  0.23364  1.0000 -0.0003550296
N   N7        1.0  0.19860  0.71200  0.66573  1.0000 -0.2868619671
N   N8        1.0  0.23750  0.89150  0.73117  1.0000 0.0030018985
O   O1        1.0  0.10550  0.72890  0.96383  1.0000 -0.6396207026
O   O2        1.0  0.75160  0.40280  0.92385  1.0000 -0.5093769988
O   O3        1.0  0.77550  0.54920  0.83456  1.0000 -0.5367437115
O   O4        1.0  0.76290  0.25910  0.51975  1.0000 -0.5281819662
O   O5        1.0  0.85480  0.45958  0.56133  1.0000 -0.5739765873
O   O6        1.0  0.70670  0.70890  0.42735  1.0000 -0.5281819662
O   O7        1.0  0.71470  0.56100  0.33992  1.0000 -0.551189374
O   O8        1.0  0.75350  0.65847  0.06170  1.0000 -0.5093769988
O   O9        1.0  0.72520  0.84450  0.02126  1.0000 -0.5367437115
O   O10       1.0  0.89450  0.27110  0.03617  1.0000 -0.6396207026
O   O11       1.0  0.24840  0.59720  0.07615  1.0000 -0.5093769988
O   O12       1.0  0.22450  0.45080  0.16544  1.0000 -0.5367437115
O   O13       1.0  0.23710  0.74090  0.48025  1.0000 -0.5281819662
O   O14       1.0  0.14520  0.54042  0.43867  1.0000 -0.5739765873
O   O15       1.0  0.29330  0.29110  0.57265  1.0000 -0.5281819662
O   O16       1.0  0.28530  0.43900  0.66008  1.0000 -0.551189374
O   O17       1.0  0.24650  0.34153  0.93830  1.0000 -0.5093769988
O   O18       1.0  0.27480  0.15550  0.97874  1.0000 -0.5367437115
