# DDEC6 charges by PACMAN v1.1 (https://github.com/mtap-research/PACMAN-charge/)
data_2017[Co][sql]2[ASR]15
_chemical_formula_sum              "Co2 H40 C54 N4 O16"
_cell_length_a       10.14
_cell_length_b       11.222
_cell_length_c       14.453
_cell_angle_alpha    100.741
_cell_angle_beta     104.783
_cell_angle_gamma    104.053

_symmetry_space_group_name_H-M    "P 1"
_symmetry_Int_Tables_number       1

loop_
  _symmetry_equiv_pos_as_xyz
  'x, y, z'

loop_
  _atom_site_type_symbol
  _atom_site_label
  _atom_site_symmetry_multiplicity
  _atom_site_fract_x
  _atom_site_fract_y
  _atom_site_fract_z
  _atom_site_occupancy
  _atom_site_charge
Co  Co1       1.0  0.35161  0.60792  0.94834  1.0000 0.8601368609
Co  Co2       1.0  0.64839  0.39208  0.05166  1.0000 0.8601368609
H   H1        1.0  0.55160  0.62730  0.15110  1.0000 0.1094232387
H   H2        1.0  0.46330  0.90010  0.04100  1.0000 0.1094232387
H   H3        1.0  0.70990  0.76880  0.29300  1.0000 0.1210956106
H   H4        1.0  0.62290  0.05160  0.18000  1.0000 0.1381117644
H   H5        1.0  0.08890  0.39340  0.03480  1.0000 0.1310336682
H   H6        1.0  0.31420  0.15680  0.10810  1.0000 0.1210956106
H   H7        1.0  0.83100  0.16890  0.28590  1.0000 0.1310336682
H   H8        1.0  0.91510  0.09260  0.12570  1.0000 0.1210956106
H   H9        1.0  0.90490  0.07920  0.59020  1.0000 0.1210956106
H   H10       1.0  0.24190  0.89400  0.16720  1.0000 0.3708493056
H   H11       1.0  0.87020  0.88100  0.57880  1.0000 0.1210956106
H   H12       1.0  0.72580  0.76910  0.53870  1.0000 0.1310336682
H   H13       1.0  0.72700  0.90790  0.58340  1.0000 0.1310336682
H   H14       1.0  0.07510  0.32080  0.31750  1.0000 0.1210956106
H   H15       1.0  0.08430  0.46500  0.34710  1.0000 0.1310336682
H   H16       1.0  0.93650  0.36190  0.28720  1.0000 0.1210956106
H   H17       1.0  0.19420  0.42620  0.57310  1.0000 0.1310336682
H   H18       1.0  0.93810  0.24160  0.70540  1.0000 0.1310336682
H   H19       1.0  0.33500  0.55490  0.72700  1.0000 0.1210956106
H   H20       1.0  0.08620  0.37630  0.85540  1.0000 0.1210956106
H   H21       1.0  0.44840  0.37270  0.84890  1.0000 0.1094232387
H   H22       1.0  0.53670  0.09990  0.95900  1.0000 0.1094232387
H   H23       1.0  0.29010  0.23120  0.70700  1.0000 0.1210956106
H   H24       1.0  0.37710  0.94840  0.82000  1.0000 0.1381117644
H   H25       1.0  0.91110  0.60660  0.96520  1.0000 0.1310336682
H   H26       1.0  0.68580  0.84320  0.89190  1.0000 0.1210956106
H   H27       1.0  0.16900  0.83110  0.71410  1.0000 0.1310336682
H   H28       1.0  0.08490  0.90740  0.87430  1.0000 0.1210956106
H   H29       1.0  0.09510  0.92080  0.40980  1.0000 0.1210956106
H   H30       1.0  0.75810  0.10600  0.83280  1.0000 0.3708493056
H   H31       1.0  0.12980  0.11900  0.42120  1.0000 0.1210956106
H   H32       1.0  0.27420  0.23090  0.46130  1.0000 0.1310336682
H   H33       1.0  0.27300  0.09210  0.41660  1.0000 0.1310336682
H   H34       1.0  0.92490  0.67920  0.68250  1.0000 0.1210956106
H   H35       1.0  0.91570  0.53500  0.65290  1.0000 0.1310336682
H   H36       1.0  0.06350  0.63810  0.71280  1.0000 0.1210956106
H   H37       1.0  0.80580  0.57380  0.42690  1.0000 0.1310336682
H   H38       1.0  0.06190  0.75840  0.29460  1.0000 0.1310336682
H   H39       1.0  0.66500  0.44510  0.27300  1.0000 0.1210956106
H   H40       1.0  0.91380  0.62370  0.14460  1.0000 0.1210956106
C   C1        1.0  0.56450  0.71370  0.15740  1.0000 0.0971309597
C   C2        1.0  0.51300  0.87340  0.09260  1.0000 0.0812658498
C   C3        1.0  0.35290  0.37660  0.05831  1.0000 0.5794384422
C   C4        1.0  0.66010  0.79850  0.24350  1.0000 -0.190463314
C   C5        1.0  0.60850  0.96570  0.17690  1.0000 -0.190463314
C   C6        1.0  0.22380  0.29090  0.07173  1.0000 -0.0203892013
C   C7        1.0  0.68250  0.92940  0.25680  1.0000 0.1381117644
C   C8        1.0  0.09660  0.32260  0.05794  1.0000 -0.1124169512
C   C9        1.0  0.23120  0.18050  0.10126  1.0000 -0.1237040964
C   C10       1.0  0.77980  0.02670  0.35020  1.0000 -0.0203892013
C   C11       1.0  0.98010  0.24860  0.07861  1.0000 -0.0203892013
C   C12       1.0  0.11580  0.10580  0.12050  1.0000 -0.0365673622
C   C13       1.0  0.84620  0.15000  0.34700  1.0000 -0.27034775
C   C14       1.0  0.80590  0.00140  0.44420  1.0000 0.200563209
C   C15       1.0  0.84820  0.28970  0.06749  1.0000 0.5300469937
C   C16       1.0  0.99120  0.14120  0.11068  1.0000 -0.1237040964
C   C17       1.0  0.12760  0.99090  0.15750  1.0000 0.5365396085
C   C18       1.0  0.93380  0.24520  0.43170  1.0000 0.1862888428
C   C19       1.0  0.89090  0.09730  0.52880  1.0000 -0.27034775
C   C20       1.0  0.95640  0.22030  0.52480  1.0000 -0.0260200222
C   C21       1.0  0.76910  0.85770  0.54550  1.0000 -0.2373170835
C   C22       1.0  0.02640  0.37940  0.33760  1.0000 -0.2373170835
C   C23       1.0  0.04820  0.31520  0.62010  1.0000 0.1310336682
C   C24       1.0  0.16990  0.41330  0.62910  1.0000 -0.1988082064
C   C25       1.0  0.01870  0.30450  0.70760  1.0000 -0.1988082064
C   C26       1.0  0.25370  0.49120  0.72250  1.0000 0.0812658498
C   C27       1.0  0.10830  0.38670  0.79820  1.0000 0.0971309597
C   C28       1.0  0.43550  0.28630  0.84260  1.0000 0.0971309597
C   C29       1.0  0.48700  0.12660  0.90740  1.0000 0.0812658498
C   C30       1.0  0.64710  0.62340  0.94169  1.0000 0.5794384422
C   C31       1.0  0.33990  0.20150  0.75650  1.0000 -0.190463314
C   C32       1.0  0.39150  0.03430  0.82310  1.0000 -0.190463314
C   C33       1.0  0.77620  0.70910  0.92827  1.0000 -0.0203892013
C   C34       1.0  0.31750  0.07060  0.74320  1.0000 0.1381117644
C   C35       1.0  0.90340  0.67740  0.94206  1.0000 -0.1124169512
C   C36       1.0  0.76880  0.81950  0.89874  1.0000 -0.1252254752
C   C37       1.0  0.22020  0.97330  0.64980  1.0000 -0.0203892013
C   C38       1.0  0.01990  0.75140  0.92139  1.0000 -0.0203892013
C   C39       1.0  0.88420  0.89420  0.87950  1.0000 -0.0365673622
C   C40       1.0  0.15380  0.85000  0.65300  1.0000 -0.27034775
C   C41       1.0  0.19410  0.99860  0.55580  1.0000 0.200563209
C   C42       1.0  0.15180  0.71030  0.93251  1.0000 0.5300469937
C   C43       1.0  0.00880  0.85880  0.88932  1.0000 -0.1237040964
C   C44       1.0  0.87240  0.00910  0.84250  1.0000 0.5365396085
C   C45       1.0  0.06620  0.75480  0.56830  1.0000 0.1862888428
C   C46       1.0  0.10910  0.90270  0.47120  1.0000 -0.27034775
C   C47       1.0  0.04360  0.77970  0.47520  1.0000 -0.0260200222
C   C48       1.0  0.23090  0.14230  0.45450  1.0000 -0.2373170835
C   C49       1.0  0.97360  0.62060  0.66240  1.0000 -0.2373170835
C   C50       1.0  0.95180  0.68480  0.37990  1.0000 0.1310336682
C   C51       1.0  0.83010  0.58670  0.37090  1.0000 -0.1988082064
C   C52       1.0  0.98130  0.69550  0.29240  1.0000 -0.1988082064
C   C53       1.0  0.74630  0.50880  0.27750  1.0000 0.0812658498
C   C54       1.0  0.89170  0.61330  0.20180  1.0000 0.0971309597
N   N1        1.0  0.48890  0.74750  0.08183  1.0000 -0.2520797906
N   N2        1.0  0.22550  0.48060  0.80708  1.0000 -0.2592177448
N   N3        1.0  0.51110  0.25250  0.91817  1.0000 -0.2520797906
N   N4        1.0  0.77450  0.51940  0.19292  1.0000 -0.2592177448
O   O1        1.0  0.16290  0.62459  0.97741  1.0000 -0.5374433158
O   O2        1.0  0.24560  0.75570  0.89457  1.0000 -0.5744256732
O   O3        1.0  0.33450  0.45424  0.00852  1.0000 -0.5607339797
O   O4        1.0  0.52660  0.63631  0.90008  1.0000 -0.5607339797
O   O5        1.0  0.74570  0.88039  0.44932  1.0000 -0.1466829586
O   O6        1.0  0.23630  0.95393  0.14311  1.0000 -0.4377034364
O   O7        1.0  0.04800  0.94260  0.19850  1.0000 -0.5008987842
O   O8        1.0  0.00140  0.36540  0.42820  1.0000 -0.1466829586
O   O9        1.0  0.83710  0.37541  0.02259  1.0000 -0.5374433158
O   O10       1.0  0.75440  0.24430  0.10543  1.0000 -0.5744256732
O   O11       1.0  0.66550  0.54576  0.99148  1.0000 -0.5607339797
O   O12       1.0  0.47340  0.36369  0.09992  1.0000 -0.5607339797
O   O13       1.0  0.25430  0.11961  0.55068  1.0000 -0.1447641162
O   O14       1.0  0.76370  0.04607  0.85689  1.0000 -0.4377034364
O   O15       1.0  0.95200  0.05740  0.80150  1.0000 -0.5008987842
O   O16       1.0  0.99860  0.63460  0.57180  1.0000 -0.1466829586
