# DDEC6 charges by PACMAN v1.1 (https://github.com/mtap-research/PACMAN-charge/)
data_2017[Gd][kgd]2[ASR]2
_chemical_formula_sum              "Gd2 H14 C30 O14"
_cell_length_a       9.3092
_cell_length_b       9.7315
_cell_length_c       11.258
_cell_angle_alpha    72.32
_cell_angle_beta     80.83
_cell_angle_gamma    64.48

_symmetry_space_group_name_H-M    "P 1"
_symmetry_Int_Tables_number       1

loop_
  _symmetry_equiv_pos_as_xyz
  'x, y, z'

loop_
  _atom_site_type_symbol
  _atom_site_label
  _atom_site_symmetry_multiplicity
  _atom_site_fract_x
  _atom_site_fract_y
  _atom_site_fract_z
  _atom_site_occupancy
  _atom_site_charge
Gd  Gd1       1.0  0.75422  0.94968  0.01527  1.0000 2.0409761987
Gd  Gd2       1.0  0.24578  0.05032  0.98473  1.0000 2.0451280198
H   H1        1.0  0.12840  0.74970  0.69000  1.0000 0.1139245167
H   H2        1.0  0.87100  0.85710  0.62340  1.0000 0.1139245167
H   H3        1.0  0.34130  0.69300  0.54970  1.0000 0.1307912217
H   H4        1.0  0.82660  0.90880  0.41570  1.0000 0.1238125286
H   H5        1.0  0.26860  0.50310  0.38070  1.0000 0.1307912217
H   H6        1.0  0.38530  0.28100  0.30680  1.0000 0.1238125286
H   H7        1.0  0.68140  0.45860  0.08410  1.0000 0.1307912217
H   H8        1.0  0.87160  0.25030  0.31000  1.0000 0.1139245167
H   H9        1.0  0.12900  0.14290  0.37660  1.0000 0.1139245167
H   H10       1.0  0.65870  0.30700  0.45030  1.0000 0.1307912217
H   H11       1.0  0.17340  0.09120  0.58430  1.0000 0.1238125286
H   H12       1.0  0.73140  0.49690  0.61930  1.0000 0.1307912217
H   H13       1.0  0.61470  0.71900  0.69320  1.0000 0.1238125286
H   H14       1.0  0.31860  0.54140  0.91590  1.0000 0.1307912217
C   C1        1.0  0.11050  0.77120  0.60610  1.0000 -0.0610576735
C   C2        1.0  0.95660  0.83550  0.56640  1.0000 -0.1028244511
C   C3        1.0  0.23760  0.73870  0.52240  1.0000 -0.1978658416
C   C4        1.0  0.93040  0.86760  0.44170  1.0000 -0.0907793321
C   C5        1.0  0.35010  0.49480  0.32000  1.0000 -0.2392475137
C   C6        1.0  0.54460  0.34700  0.18680  1.0000 -0.0329530199
C   C7        1.0  0.40150  0.61750  0.27260  1.0000 0.2508208922
C   C8        1.0  0.61930  0.20420  0.13640  1.0000 0.55945191
C   C9        1.0  0.52790  0.60350  0.18440  1.0000 -0.1241980509
C   C10       1.0  0.42070  0.36160  0.27630  1.0000 -0.0822848134
C   C11       1.0  0.05620  0.83960  0.35390  1.0000 -0.1409705856
C   C12       1.0  0.58630  0.73240  0.13210  1.0000 0.6386788807
C   C13       1.0  0.20990  0.77460  0.39730  1.0000 0.2208686195
C   C14       1.0  0.01880  0.88560  0.21870  1.0000 0.6706798694
C   C15       1.0  0.59750  0.46870  0.14270  1.0000 -0.1028244511
C   C16       1.0  0.88950  0.22880  0.39390  1.0000 -0.0610576735
C   C17       1.0  0.04340  0.16450  0.43360  1.0000 -0.1028244511
C   C18       1.0  0.76240  0.26130  0.47760  1.0000 -0.1978658416
C   C19       1.0  0.06960  0.13240  0.55830  1.0000 -0.0907793321
C   C20       1.0  0.64990  0.50520  0.68000  1.0000 -0.2392475137
C   C21       1.0  0.45540  0.65300  0.81320  1.0000 -0.0329530199
C   C22       1.0  0.59850  0.38250  0.72740  1.0000 0.2508208922
C   C23       1.0  0.38070  0.79580  0.86360  1.0000 0.55945191
C   C24       1.0  0.47210  0.39650  0.81560  1.0000 -0.1241980509
C   C25       1.0  0.57930  0.63840  0.72370  1.0000 -0.0822848134
C   C26       1.0  0.94380  0.16040  0.64610  1.0000 -0.1409705856
C   C27       1.0  0.41370  0.26760  0.86790  1.0000 0.6386788807
C   C28       1.0  0.79010  0.22540  0.60270  1.0000 0.2208686195
C   C29       1.0  0.98120  0.11440  0.78130  1.0000 0.6706798694
C   C30       1.0  0.40250  0.53130  0.85730  1.0000 -0.1028244511
O   O1        1.0  0.57120  0.09390  0.17460  1.0000 -0.6197478451
O   O2        1.0  0.34160  0.75030  0.31400  1.0000 -0.2077173569
O   O3        1.0  0.49010  0.87170  0.08780  1.0000 -0.6844462731
O   O4        1.0  0.73040  0.19520  0.05400  1.0000 -0.6284837105
O   O5        1.0  0.90110  0.86420  0.19750  1.0000 -0.6514153757
O   O6        1.0  0.09920  0.94220  0.13700  1.0000 -0.6741830983
O   O7        1.0  0.73250  0.69710  0.12970  1.0000 -0.6104006448
O   O8        1.0  0.42880  0.90610  0.82540  1.0000 -0.6197478451
O   O9        1.0  0.65840  0.24970  0.68600  1.0000 -0.2077173569
O   O10       1.0  0.50990  0.12830  0.91220  1.0000 -0.6844462731
O   O11       1.0  0.26960  0.80480  0.94600  1.0000 -0.6284837105
O   O12       1.0  0.09890  0.13580  0.80250  1.0000 -0.6514153757
O   O13       1.0  0.90080  0.05780  0.86300  1.0000 -0.6741830983
O   O14       1.0  0.26750  0.30290  0.87030  1.0000 -0.6104006448
