# DDEC6 charges by PACMAN v1.1 (https://github.com/mtap-research/PACMAN-charge/)
data_2017[Ni][pts]3[ASR]1
_chemical_formula_sum              "Ni4 H28 C44 O20"
_cell_length_a       10.07
_cell_length_b       13.107
_cell_length_c       15.216
_cell_angle_alpha    78.42
_cell_angle_beta     76.527
_cell_angle_gamma    68.204

_symmetry_space_group_name_H-M    "P 1"
_symmetry_Int_Tables_number       1

loop_
  _symmetry_equiv_pos_as_xyz
  'x, y, z'

loop_
  _atom_site_type_symbol
  _atom_site_label
  _atom_site_symmetry_multiplicity
  _atom_site_fract_x
  _atom_site_fract_y
  _atom_site_fract_z
  _atom_site_occupancy
  _atom_site_charge
Ni  Ni1       1.0  0.01571  0.57777  0.34037  1.0000 0.9185325534
Ni  Ni2       1.0  0.98429  0.42223  0.65963  1.0000 0.9185325534
Ni  Ni3       1.0  0.73771  0.80245  0.26034  1.0000 0.8418135078
Ni  Ni4       1.0  0.26229  0.19755  0.73966  1.0000 0.8418135078
H   H1        1.0  0.37450  0.66270  0.03290  1.0000 0.1211743472
H   H2        1.0  0.62550  0.33730  0.96710  1.0000 0.1211743472
H   H3        1.0  0.61580  0.61970  0.96800  1.0000 0.1211743472
H   H4        1.0  0.38420  0.38030  0.03200  1.0000 0.1211743472
H   H5        1.0  0.48490  0.52510  0.27510  1.0000 0.1211743472
H   H6        1.0  0.51510  0.47490  0.72490  1.0000 0.1211743472
H   H7        1.0  0.72550  0.49050  0.21240  1.0000 0.1211743472
H   H8        1.0  0.27450  0.50950  0.78760  1.0000 0.1211743472
H   H9        1.0  0.84090  0.46730  0.93210  1.0000 0.127185806
H   H10       1.0  0.15910  0.53270  0.06790  1.0000 0.127185806
H   H11       1.0  0.71920  0.41530  0.41350  1.0000 0.127185806
H   H12       1.0  0.28080  0.58470  0.58650  1.0000 0.127185806
H   H13       1.0  0.79430  0.22970  0.48270  1.0000 0.1211743472
H   H14       1.0  0.20570  0.77030  0.51730  1.0000 0.1211743472
H   H15       1.0  0.87330  0.05430  0.44290  1.0000 0.127185806
H   H16       1.0  0.12670  0.94570  0.55710  1.0000 0.127185806
H   H17       1.0  0.39510  0.27480  0.44600  1.0000 0.127185806
H   H18       1.0  0.60490  0.72520  0.55400  1.0000 0.127185806
H   H19       1.0  0.47670  0.09950  0.40390  1.0000 0.1211743472
H   H20       1.0  0.52330  0.90050  0.59610  1.0000 0.1211743472
H   H21       1.0  0.01360  0.74450  0.25970  1.0000 0.3909240396
H   H22       1.0  0.98640  0.25550  0.74030  1.0000 0.3909240396
H   H23       1.0  0.92900  0.77550  0.34130  1.0000 0.3464232862
H   H24       1.0  0.07100  0.22450  0.65870  1.0000 0.3464232862
H   H25       1.0  0.73070  0.90530  0.16730  1.0000 0.2920380712
H   H26       1.0  0.26930  0.09470  0.83270  1.0000 0.2920380712
H   H27       1.0  0.82820  0.91820  0.21010  1.0000 0.3324881525
H   H28       1.0  0.17180  0.08180  0.78990  1.0000 0.3324881525
C   C1        1.0  0.24800  0.62920  0.20360  1.0000 0.567920211
C   C2        1.0  0.75200  0.37080  0.79640  1.0000 0.567920211
C   C3        1.0  0.40480  0.59990  0.16120  1.0000 -0.0286328734
C   C4        1.0  0.59520  0.40010  0.83880  1.0000 -0.0286328734
C   C5        1.0  0.44530  0.62710  0.06920  1.0000 -0.0962591141
C   C6        1.0  0.55470  0.37290  0.93080  1.0000 -0.0962591141
C   C7        1.0  0.59020  0.60210  0.03050  1.0000 -0.1424757845
C   C8        1.0  0.40980  0.39790  0.96950  1.0000 -0.1424757845
C   C9        1.0  0.51090  0.54650  0.21340  1.0000 -0.0916397429
C   C10       1.0  0.48910  0.45350  0.78660  1.0000 -0.0916397429
C   C11       1.0  0.65510  0.52430  0.17550  1.0000 -0.1310082532
C   C12       1.0  0.34490  0.47570  0.82450  1.0000 -0.1310082532
C   C13       1.0  0.69700  0.55180  0.08236  1.0000 0.0764292584
C   C14       1.0  0.30300  0.44820  0.91764  1.0000 0.0764292584
C   C15       1.0  0.85240  0.52770  0.04055  1.0000 0.0498390377
C   C16       1.0  0.14760  0.47230  0.95945  1.0000 0.0498390377
C   C17       1.0  0.90490  0.48070  0.95986  1.0000 -0.1500735252
C   C18       1.0  0.09510  0.51930  0.04014  1.0000 -0.1500735252
C   C19       1.0  0.95030  0.54670  0.08057  1.0000 -0.0462223783
C   C20       1.0  0.04970  0.45330  0.91943  1.0000 -0.0462223783
C   C21       1.0  0.90650  0.60010  0.16613  1.0000 0.5884221226
C   C22       1.0  0.09350  0.39990  0.83387  1.0000 0.5884221226
C   C23       1.0  0.69710  0.61730  0.40770  1.0000 0.5884221226
C   C24       1.0  0.30290  0.38270  0.59230  1.0000 0.5884221226
C   C25       1.0  0.59370  0.55940  0.45945  1.0000 -0.0462223783
C   C26       1.0  0.40630  0.44060  0.54055  1.0000 -0.0462223783
C   C27       1.0  0.63000  0.44970  0.44842  1.0000 -0.1566633104
C   C28       1.0  0.37000  0.55030  0.55158  1.0000 -0.1566633104
C   C29       1.0  0.53940  0.38840  0.48709  1.0000 0.0498390377
C   C30       1.0  0.46060  0.61160  0.51291  1.0000 0.0498390377
C   C31       1.0  0.58560  0.27240  0.46698  1.0000 0.0764292584
C   C32       1.0  0.41440  0.72760  0.53302  1.0000 0.0764292584
C   C33       1.0  0.72970  0.20410  0.46650  1.0000 -0.1424757845
C   C34       1.0  0.27030  0.79590  0.53350  1.0000 -0.1424757845
C   C35       1.0  0.77700  0.09920  0.44240  1.0000 -0.0916397429
C   C36       1.0  0.22300  0.90080  0.55760  1.0000 -0.0916397429
C   C37       1.0  0.49230  0.23120  0.44440  1.0000 -0.1310082532
C   C38       1.0  0.50770  0.76880  0.55560  1.0000 -0.1310082532
C   C39       1.0  0.54100  0.12590  0.41950  1.0000 -0.0817230351
C   C40       1.0  0.45900  0.87410  0.58050  1.0000 -0.0817230351
C   C41       1.0  0.68480  0.05970  0.41750  1.0000 -0.0286328734
C   C42       1.0  0.31520  0.94030  0.58250  1.0000 -0.0286328734
C   C43       1.0  0.74180  0.94840  0.38340  1.0000 0.567920211
C   C44       1.0  0.25820  0.05160  0.61660  1.0000 0.567920211
O   O1        1.0  0.15840  0.71055  0.16631  1.0000 -0.5121361583
O   O2        1.0  0.84160  0.28945  0.83369  1.0000 -0.5121361583
O   O3        1.0  0.21800  0.56941  0.27525  1.0000 -0.5612932413
O   O4        1.0  0.78200  0.43059  0.72475  1.0000 -0.5612932413
O   O5        1.0  0.81250  0.69541  0.16506  1.0000 -0.5200045376
O   O6        1.0  0.18750  0.30459  0.83494  1.0000 -0.5200045376
O   O7        1.0  0.97070  0.54418  0.22986  1.0000 -0.5320823013
O   O8        1.0  0.02930  0.45582  0.77014  1.0000 -0.5320823013
O   O9        1.0  0.82650  0.56983  0.41990  1.0000 -0.5612932413
O   O10       1.0  0.17350  0.43017  0.58010  1.0000 -0.5612932413
O   O11       1.0  0.64990  0.70293  0.35602  1.0000 -0.5121361583
O   O12       1.0  0.35010  0.29707  0.64398  1.0000 -0.5121361583
O   O13       1.0  0.86690  0.88792  0.39769  1.0000 -0.5320823013
O   O14       1.0  0.13310  0.11208  0.60231  1.0000 -0.5320823013
O   O15       1.0  0.66420  0.92624  0.34258  1.0000 -0.541191545
O   O16       1.0  0.33580  0.07376  0.65742  1.0000 -0.541191545
O   O17       1.0  0.93637  0.74297  0.29644  1.0000 -0.6862496405
O   O18       1.0  0.06363  0.25703  0.70356  1.0000 -0.6862496405
O   O19       1.0  0.81120  0.91610  0.15849  1.0000 -0.6000840037
O   O20       1.0  0.18880  0.08390  0.84151  1.0000 -0.6000840037
