# DDEC6 charges by PACMAN v1.1 (https://github.com/mtap-research/PACMAN-charge/)
data_2017[Mn][nan]3[ASR]6
_chemical_formula_sum              "Mn12 H184 C288 N40 O48"
_cell_length_a       13.876
_cell_length_b       18.894
_cell_length_c       31.681
_cell_angle_alpha    90
_cell_angle_beta     90
_cell_angle_gamma    90

_symmetry_space_group_name_H-M    "P 1"
_symmetry_Int_Tables_number       1

loop_
  _symmetry_equiv_pos_as_xyz
  'x, y, z'

loop_
  _atom_site_type_symbol
  _atom_site_label
  _atom_site_symmetry_multiplicity
  _atom_site_fract_x
  _atom_site_fract_y
  _atom_site_fract_z
  _atom_site_occupancy
  _atom_site_charge
Mn  Mn1       1.0  0.04210  0.57368  0.25000  1.0000 0.8117164948
Mn  Mn2       1.0  0.54210  0.92632  0.75000  1.0000 0.8117164948
Mn  Mn3       1.0  0.45790  0.07368  0.25000  1.0000 0.8117164948
Mn  Mn4       1.0  0.95790  0.42632  0.75000  1.0000 0.8117164948
Mn  Mn5       1.0  0.47499  0.26214  0.91663  1.0000 0.7819238507
Mn  Mn6       1.0  0.97499  0.23786  0.08337  1.0000 0.7819238507
Mn  Mn7       1.0  0.02501  0.76214  0.58337  1.0000 0.7819238507
Mn  Mn8       1.0  0.52501  0.73786  0.41663  1.0000 0.7819238507
Mn  Mn9       1.0  0.52501  0.73786  0.08337  1.0000 0.7819238507
Mn  Mn10      1.0  0.02501  0.76214  0.91663  1.0000 0.7819238507
Mn  Mn11      1.0  0.97499  0.23786  0.41663  1.0000 0.7819238507
Mn  Mn12      1.0  0.47499  0.26214  0.58337  1.0000 0.7819238507
H   H1        1.0  0.19200  0.94770  0.25000  1.0000 0.1301994848
H   H2        1.0  0.69200  0.55230  0.75000  1.0000 0.1301994848
H   H3        1.0  0.30800  0.44770  0.25000  1.0000 0.1301994848
H   H4        1.0  0.80800  0.05230  0.75000  1.0000 0.1301994848
H   H5        1.0  0.24640  0.26930  0.92220  1.0000 0.1035226487
H   H6        1.0  0.74640  0.23070  0.07780  1.0000 0.1035226487
H   H7        1.0  0.25360  0.76930  0.57780  1.0000 0.1035226487
H   H8        1.0  0.75360  0.73070  0.42220  1.0000 0.1035226487
H   H9        1.0  0.75360  0.73070  0.07780  1.0000 0.1035226487
H   H10       1.0  0.25360  0.76930  0.92220  1.0000 0.1035226487
H   H11       1.0  0.74640  0.23070  0.42220  1.0000 0.1035226487
H   H12       1.0  0.24640  0.26930  0.57780  1.0000 0.1035226487
H   H13       1.0  0.49980  0.42020  0.04200  1.0000 0.1301994848
H   H14       1.0  0.99980  0.07980  0.95800  1.0000 0.1301994848
H   H15       1.0  0.00020  0.92020  0.45800  1.0000 0.1301994848
H   H16       1.0  0.50020  0.57980  0.54200  1.0000 0.1301994848
H   H17       1.0  0.50020  0.57980  0.95800  1.0000 0.1301994848
H   H18       1.0  0.00020  0.92020  0.04200  1.0000 0.1301994848
H   H19       1.0  0.99980  0.07980  0.54200  1.0000 0.1301994848
H   H20       1.0  0.49980  0.42020  0.45800  1.0000 0.1301994848
H   H21       1.0  0.75550  0.36210  0.99390  1.0000 0.13648097
H   H22       1.0  0.25550  0.13790  0.00610  1.0000 0.13648097
H   H23       1.0  0.74450  0.86210  0.50610  1.0000 0.13648097
H   H24       1.0  0.24450  0.63790  0.49390  1.0000 0.13648097
H   H25       1.0  0.24450  0.63790  0.00610  1.0000 0.13648097
H   H26       1.0  0.74450  0.86210  0.99390  1.0000 0.13648097
H   H27       1.0  0.25550  0.13790  0.49390  1.0000 0.13648097
H   H28       1.0  0.75550  0.36210  0.50610  1.0000 0.13648097
H   H29       1.0  0.28810  0.71230  0.25000  1.0000 0.1195113686
H   H30       1.0  0.78810  0.78770  0.75000  1.0000 0.1195113686
H   H31       1.0  0.21190  0.21230  0.25000  1.0000 0.1195113686
H   H32       1.0  0.71190  0.28770  0.75000  1.0000 0.1195113686
H   H33       1.0  0.79480  0.36320  0.06610  1.0000 0.1195113686
H   H34       1.0  0.29480  0.13680  0.93390  1.0000 0.1195113686
H   H35       1.0  0.70520  0.86320  0.43390  1.0000 0.1195113686
H   H36       1.0  0.20520  0.63680  0.56610  1.0000 0.1195113686
H   H37       1.0  0.20520  0.63680  0.93390  1.0000 0.1195113686
H   H38       1.0  0.70520  0.86320  0.06610  1.0000 0.1195113686
H   H39       1.0  0.29480  0.13680  0.56610  1.0000 0.1195113686
H   H40       1.0  0.79480  0.36320  0.43390  1.0000 0.1195113686
H   H41       1.0  0.92380  0.47540  0.18400  1.0000 0.1195113686
H   H42       1.0  0.42380  0.02460  0.81600  1.0000 0.1195113686
H   H43       1.0  0.57620  0.97540  0.31600  1.0000 0.1195113686
H   H44       1.0  0.07620  0.52460  0.68400  1.0000 0.1195113686
H   H45       1.0  0.07620  0.52460  0.81600  1.0000 0.1195113686
H   H46       1.0  0.57620  0.97540  0.18400  1.0000 0.1195113686
H   H47       1.0  0.42380  0.02460  0.68400  1.0000 0.1195113686
H   H48       1.0  0.92380  0.47540  0.31600  1.0000 0.1195113686
H   H49       1.0  0.40300  0.80200  0.25000  1.0000 0.1138900261
H   H50       1.0  0.90300  0.69800  0.75000  1.0000 0.1138900261
H   H51       1.0  0.09700  0.30200  0.25000  1.0000 0.1138900261
H   H52       1.0  0.59700  0.19800  0.75000  1.0000 0.1138900261
H   H53       1.0  0.39660  0.17890  0.78640  1.0000 0.1195113686
H   H54       1.0  0.89660  0.32110  0.21360  1.0000 0.1195113686
H   H55       1.0  0.10340  0.67890  0.71360  1.0000 0.1195113686
H   H56       1.0  0.60340  0.82110  0.28640  1.0000 0.1195113686
H   H57       1.0  0.60340  0.82110  0.21360  1.0000 0.1195113686
H   H58       1.0  0.10340  0.67890  0.78640  1.0000 0.1195113686
H   H59       1.0  0.89660  0.32110  0.28640  1.0000 0.1195113686
H   H60       1.0  0.39660  0.17890  0.71360  1.0000 0.1195113686
H   H61       1.0  0.62160  0.19550  0.84860  1.0000 0.1195113686
H   H62       1.0  0.12160  0.30450  0.15140  1.0000 0.1195113686
H   H63       1.0  0.87840  0.69550  0.65140  1.0000 0.1195113686
H   H64       1.0  0.37840  0.80450  0.34860  1.0000 0.1195113686
H   H65       1.0  0.37840  0.80450  0.15140  1.0000 0.1195113686
H   H66       1.0  0.87840  0.69550  0.84860  1.0000 0.1195113686
H   H67       1.0  0.12160  0.30450  0.34860  1.0000 0.1195113686
H   H68       1.0  0.62160  0.19550  0.65140  1.0000 0.1195113686
H   H69       1.0  0.88020  0.42210  0.11760  1.0000 0.13648097
H   H70       1.0  0.38020  0.07790  0.88240  1.0000 0.13648097
H   H71       1.0  0.61980  0.92210  0.38240  1.0000 0.13648097
H   H72       1.0  0.11980  0.57790  0.61760  1.0000 0.13648097
H   H73       1.0  0.11980  0.57790  0.88240  1.0000 0.13648097
H   H74       1.0  0.61980  0.92210  0.11760  1.0000 0.13648097
H   H75       1.0  0.38020  0.07790  0.61760  1.0000 0.13648097
H   H76       1.0  0.88020  0.42210  0.38240  1.0000 0.13648097
H   H77       1.0  0.59350  0.51430  0.06760  1.0000 0.1195113686
H   H78       1.0  0.09350  0.98570  0.93240  1.0000 0.1195113686
H   H79       1.0  0.90650  0.01430  0.43240  1.0000 0.1195113686
H   H80       1.0  0.40650  0.48570  0.56760  1.0000 0.1195113686
H   H81       1.0  0.40650  0.48570  0.93240  1.0000 0.1195113686
H   H82       1.0  0.90650  0.01430  0.06760  1.0000 0.1195113686
H   H83       1.0  0.09350  0.98570  0.56760  1.0000 0.1195113686
H   H84       1.0  0.59350  0.51430  0.43240  1.0000 0.1195113686
H   H85       1.0  0.12950  0.31840  0.96530  1.0000 0.1301994848
H   H86       1.0  0.62950  0.18160  0.03470  1.0000 0.1301994848
H   H87       1.0  0.37050  0.81840  0.53470  1.0000 0.1301994848
H   H88       1.0  0.87050  0.68160  0.46530  1.0000 0.1301994848
H   H89       1.0  0.87050  0.68160  0.03470  1.0000 0.1301994848
H   H90       1.0  0.37050  0.81840  0.96530  1.0000 0.1301994848
H   H91       1.0  0.62950  0.18160  0.46530  1.0000 0.1301994848
H   H92       1.0  0.12950  0.31840  0.53470  1.0000 0.1301994848
H   H93       1.0  0.67890  0.57410  0.11840  1.0000 0.1301994848
H   H94       1.0  0.17890  0.92590  0.88160  1.0000 0.1301994848
H   H95       1.0  0.82110  0.07410  0.38160  1.0000 0.1301994848
H   H96       1.0  0.32110  0.42590  0.61840  1.0000 0.1301994848
H   H97       1.0  0.32110  0.42590  0.88160  1.0000 0.1301994848
H   H98       1.0  0.82110  0.07410  0.11840  1.0000 0.1301994848
H   H99       1.0  0.17890  0.92590  0.61840  1.0000 0.1301994848
H   H100      1.0  0.67890  0.57410  0.38160  1.0000 0.1301994848
H   H101      1.0  0.07820  0.85810  0.25000  1.0000 0.1195113686
H   H102      1.0  0.57820  0.64190  0.75000  1.0000 0.1195113686
H   H103      1.0  0.42180  0.35810  0.25000  1.0000 0.1195113686
H   H104      1.0  0.92180  0.14190  0.75000  1.0000 0.1195113686
H   H105      1.0  0.17800  0.38910  0.02120  1.0000 0.1138900261
H   H106      1.0  0.67800  0.11090  0.97880  1.0000 0.1138900261
H   H107      1.0  0.32200  0.88910  0.47880  1.0000 0.1138900261
H   H108      1.0  0.82200  0.61090  0.52120  1.0000 0.1138900261
H   H109      1.0  0.82200  0.61090  0.97880  1.0000 0.1138900261
H   H110      1.0  0.32200  0.88910  0.02120  1.0000 0.1138900261
H   H111      1.0  0.67800  0.11090  0.52120  1.0000 0.1138900261
H   H112      1.0  0.17800  0.38910  0.47880  1.0000 0.1138900261
H   H113      1.0  0.34010  0.40880  0.03280  1.0000 0.1301994848
H   H114      1.0  0.84010  0.09120  0.96720  1.0000 0.1301994848
H   H115      1.0  0.15990  0.90880  0.46720  1.0000 0.1301994848
H   H116      1.0  0.65990  0.59120  0.53280  1.0000 0.1301994848
H   H117      1.0  0.65990  0.59120  0.96720  1.0000 0.1301994848
H   H118      1.0  0.15990  0.90880  0.03280  1.0000 0.1301994848
H   H119      1.0  0.84010  0.09120  0.53280  1.0000 0.1301994848
H   H120      1.0  0.34010  0.40880  0.46720  1.0000 0.1301994848
H   H121      1.0  0.88890  0.23190  0.88800  1.0000 0.1301994848
H   H122      1.0  0.38890  0.26810  0.11200  1.0000 0.1301994848
H   H123      1.0  0.61110  0.73190  0.61200  1.0000 0.1301994848
H   H124      1.0  0.11110  0.76810  0.38800  1.0000 0.1301994848
H   H125      1.0  0.11110  0.76810  0.11200  1.0000 0.1301994848
H   H126      1.0  0.61110  0.73190  0.88800  1.0000 0.1301994848
H   H127      1.0  0.38890  0.26810  0.38800  1.0000 0.1301994848
H   H128      1.0  0.88890  0.23190  0.61200  1.0000 0.1301994848
H   H129      1.0  0.82760  0.29770  0.94300  1.0000 0.1478227858
H   H130      1.0  0.32760  0.20230  0.05700  1.0000 0.1478227858
H   H131      1.0  0.67240  0.79770  0.55700  1.0000 0.1478227858
H   H132      1.0  0.17240  0.70230  0.44300  1.0000 0.1478227858
H   H133      1.0  0.17240  0.70230  0.05700  1.0000 0.1478227858
H   H134      1.0  0.67240  0.79770  0.94300  1.0000 0.1478227858
H   H135      1.0  0.32760  0.20230  0.44300  1.0000 0.1478227858
H   H136      1.0  0.82760  0.29770  0.55700  1.0000 0.1478227858
H   H137      1.0  0.42930  0.38870  0.78640  1.0000 0.1195113686
H   H138      1.0  0.92930  0.11130  0.21360  1.0000 0.1195113686
H   H139      1.0  0.07070  0.88870  0.71360  1.0000 0.1195113686
H   H140      1.0  0.57070  0.61130  0.28640  1.0000 0.1195113686
H   H141      1.0  0.57070  0.61130  0.21360  1.0000 0.1195113686
H   H142      1.0  0.07070  0.88870  0.78640  1.0000 0.1195113686
H   H143      1.0  0.92930  0.11130  0.28640  1.0000 0.1195113686
H   H144      1.0  0.42930  0.38870  0.71360  1.0000 0.1195113686
H   H145      1.0  0.78510  0.17650  0.84140  1.0000 0.1301994848
H   H146      1.0  0.28510  0.32350  0.15860  1.0000 0.1301994848
H   H147      1.0  0.71490  0.67650  0.65860  1.0000 0.1301994848
H   H148      1.0  0.21490  0.82350  0.34140  1.0000 0.1301994848
H   H149      1.0  0.21490  0.82350  0.15860  1.0000 0.1301994848
H   H150      1.0  0.71490  0.67650  0.84140  1.0000 0.1301994848
H   H151      1.0  0.28510  0.32350  0.34140  1.0000 0.1301994848
H   H152      1.0  0.78510  0.17650  0.65860  1.0000 0.1301994848
H   H153      1.0  0.92940  0.67870  0.19170  1.0000 0.13648097
H   H154      1.0  0.42940  0.82130  0.80830  1.0000 0.13648097
H   H155      1.0  0.57060  0.17870  0.30830  1.0000 0.13648097
H   H156      1.0  0.07060  0.32130  0.69170  1.0000 0.13648097
H   H157      1.0  0.07060  0.32130  0.80830  1.0000 0.13648097
H   H158      1.0  0.57060  0.17870  0.19170  1.0000 0.13648097
H   H159      1.0  0.42940  0.82130  0.69170  1.0000 0.13648097
H   H160      1.0  0.92940  0.67870  0.30830  1.0000 0.13648097
H   H161      1.0  0.82050  0.64760  0.13540  1.0000 0.1301994848
H   H162      1.0  0.32050  0.85240  0.86460  1.0000 0.1301994848
H   H163      1.0  0.67950  0.14760  0.36460  1.0000 0.1301994848
H   H164      1.0  0.17950  0.35240  0.63540  1.0000 0.1301994848
H   H165      1.0  0.17950  0.35240  0.86460  1.0000 0.1301994848
H   H166      1.0  0.67950  0.14760  0.13540  1.0000 0.1301994848
H   H167      1.0  0.32050  0.85240  0.63540  1.0000 0.1301994848
H   H168      1.0  0.82050  0.64760  0.36460  1.0000 0.1301994848
H   H169      1.0  0.44980  0.07810  0.05160  1.0000 0.1138900261
H   H170      1.0  0.94980  0.42190  0.94840  1.0000 0.1138900261
H   H171      1.0  0.05020  0.57810  0.44840  1.0000 0.1195113686
H   H172      1.0  0.55020  0.92190  0.55160  1.0000 0.1195113686
H   H173      1.0  0.55020  0.92190  0.94840  1.0000 0.1195113686
H   H174      1.0  0.05020  0.57810  0.05160  1.0000 0.1195113686
H   H175      1.0  0.94980  0.42190  0.55160  1.0000 0.1138900261
H   H176      1.0  0.44980  0.07810  0.44840  1.0000 0.1138900261
H   H177      1.0  0.52640  0.03930  0.93220  1.0000 0.1195113686
H   H178      1.0  0.02640  0.46070  0.06780  1.0000 0.1195113686
H   H179      1.0  0.97360  0.53930  0.56780  1.0000 0.1195113686
H   H180      1.0  0.47360  0.96070  0.43220  1.0000 0.1195113686
H   H181      1.0  0.47360  0.96070  0.06780  1.0000 0.1195113686
H   H182      1.0  0.97360  0.53930  0.93220  1.0000 0.1195113686
H   H183      1.0  0.02640  0.46070  0.43220  1.0000 0.1195113686
H   H184      1.0  0.52640  0.03930  0.56780  1.0000 0.1195113686
C   C1        1.0  0.38300  0.94200  0.25000  1.0000 0.5354873218
C   C2        1.0  0.88300  0.55800  0.75000  1.0000 0.5354873218
C   C3        1.0  0.11700  0.44200  0.25000  1.0000 0.5354873218
C   C4        1.0  0.61700  0.05800  0.75000  1.0000 0.5354873218
C   C5        1.0  0.30910  0.88410  0.25000  1.0000 -0.0308206513
C   C6        1.0  0.80910  0.61590  0.75000  1.0000 -0.0308206513
C   C7        1.0  0.19090  0.38410  0.25000  1.0000 -0.0308206513
C   C8        1.0  0.69090  0.11590  0.75000  1.0000 -0.0308206513
C   C9        1.0  0.21170  0.90070  0.25000  1.0000 -0.1291052887
C   C10       1.0  0.71170  0.59930  0.75000  1.0000 -0.1291052887
C   C11       1.0  0.28830  0.40070  0.25000  1.0000 -0.1291052887
C   C12       1.0  0.78830  0.09930  0.75000  1.0000 -0.1291052887
C   C13       1.0  0.26520  0.29770  0.94480  1.0000 0.0748278402
C   C14       1.0  0.76520  0.20230  0.05520  1.0000 0.0748278402
C   C15       1.0  0.23480  0.79770  0.55520  1.0000 0.0748278402
C   C16       1.0  0.73480  0.70230  0.44480  1.0000 0.0748278402
C   C17       1.0  0.73480  0.70230  0.05520  1.0000 0.0748278402
C   C18       1.0  0.23480  0.79770  0.94480  1.0000 0.0748278402
C   C19       1.0  0.76520  0.20230  0.44480  1.0000 0.0748278402
C   C20       1.0  0.26520  0.29770  0.55520  1.0000 0.0748278402
C   C21       1.0  0.64050  0.32560  0.96190  1.0000 0.1925135084
C   C22       1.0  0.14050  0.17440  0.03810  1.0000 0.1925135084
C   C23       1.0  0.85950  0.82560  0.53810  1.0000 0.1925135084
C   C24       1.0  0.35950  0.67440  0.46190  1.0000 0.1925135084
C   C25       1.0  0.35950  0.67440  0.03810  1.0000 0.1925135084
C   C26       1.0  0.85950  0.82560  0.96190  1.0000 0.1925135084
C   C27       1.0  0.14050  0.17440  0.46190  1.0000 0.1925135084
C   C28       1.0  0.64050  0.32560  0.53810  1.0000 0.1925135084
C   C29       1.0  0.53640  0.39570  0.02220  1.0000 -0.235949131
C   C30       1.0  0.03640  0.10430  0.97780  1.0000 -0.235949131
C   C31       1.0  0.96360  0.89570  0.47780  1.0000 -0.235949131
C   C32       1.0  0.46360  0.60430  0.52220  1.0000 -0.235949131
C   C33       1.0  0.46360  0.60430  0.97780  1.0000 -0.235949131
C   C34       1.0  0.96360  0.89570  0.02220  1.0000 -0.235949131
C   C35       1.0  0.03640  0.10430  0.52220  1.0000 -0.235949131
C   C36       1.0  0.53640  0.39570  0.47780  1.0000 -0.235949131
C   C37       1.0  0.17190  0.77550  0.25000  1.0000 -0.0492285735
C   C38       1.0  0.67190  0.72450  0.75000  1.0000 -0.0492285735
C   C39       1.0  0.32810  0.27550  0.25000  1.0000 -0.0492285735
C   C40       1.0  0.82810  0.22450  0.75000  1.0000 -0.0492285735
C   C41       1.0  0.68850  0.36140  0.99340  1.0000 -0.2228909604
C   C42       1.0  0.18850  0.13860  0.00660  1.0000 -0.2228909604
C   C43       1.0  0.81150  0.86140  0.50660  1.0000 -0.2228909604
C   C44       1.0  0.31150  0.63860  0.49340  1.0000 -0.2228909604
C   C45       1.0  0.31150  0.63860  0.00660  1.0000 -0.2228909604
C   C46       1.0  0.81150  0.86140  0.99340  1.0000 -0.2228909604
C   C47       1.0  0.18850  0.13860  0.49340  1.0000 -0.2228909604
C   C48       1.0  0.68850  0.36140  0.50660  1.0000 -0.2228909604
C   C49       1.0  0.38650  0.34970  0.98440  1.0000 0.1596244589
C   C50       1.0  0.88650  0.15030  0.01560  1.0000 0.1596244589
C   C51       1.0  0.11350  0.84970  0.51560  1.0000 0.1596244589
C   C52       1.0  0.61350  0.65030  0.48440  1.0000 0.1596244589
C   C53       1.0  0.61350  0.65030  0.01560  1.0000 0.1596244589
C   C54       1.0  0.11350  0.84970  0.98440  1.0000 0.1596244589
C   C55       1.0  0.88650  0.15030  0.48440  1.0000 0.1596244589
C   C56       1.0  0.38650  0.34970  0.51560  1.0000 0.1596244589
C   C57       1.0  0.49150  0.35770  0.98970  1.0000 0.1925135084
C   C58       1.0  0.99150  0.14230  0.01030  1.0000 0.1925135084
C   C59       1.0  0.00850  0.85770  0.51030  1.0000 0.1925135084
C   C60       1.0  0.50850  0.64230  0.48970  1.0000 0.1925135084
C   C61       1.0  0.50850  0.64230  0.01030  1.0000 0.1925135084
C   C62       1.0  0.00850  0.85770  0.98970  1.0000 0.1925135084
C   C63       1.0  0.99150  0.14230  0.48970  1.0000 0.1925135084
C   C64       1.0  0.49150  0.35770  0.51030  1.0000 0.1925135084
C   C65       1.0  0.26850  0.75940  0.25000  1.0000 -0.1116733433
C   C66       1.0  0.76850  0.74060  0.75000  1.0000 -0.1116733433
C   C67       1.0  0.23150  0.25940  0.25000  1.0000 -0.1116733433
C   C68       1.0  0.73150  0.24060  0.75000  1.0000 -0.1116733433
C   C69       1.0  0.77200  0.40630  0.07610  1.0000 -0.1196920664
C   C70       1.0  0.27200  0.09370  0.92390  1.0000 -0.1196920664
C   C71       1.0  0.72800  0.90630  0.42390  1.0000 -0.1196920664
C   C72       1.0  0.22800  0.59370  0.57610  1.0000 -0.1196920664
C   C73       1.0  0.22800  0.59370  0.92390  1.0000 -0.1196920664
C   C74       1.0  0.72800  0.90630  0.07610  1.0000 -0.1196920664
C   C75       1.0  0.27200  0.09370  0.57610  1.0000 -0.1196920664
C   C76       1.0  0.77200  0.40630  0.42390  1.0000 -0.1196920664
C   C77       1.0  0.68800  0.28570  0.92700  1.0000 0.1596244589
C   C78       1.0  0.18800  0.21430  0.07300  1.0000 0.1596244589
C   C79       1.0  0.81200  0.78570  0.57300  1.0000 0.1596244589
C   C80       1.0  0.31200  0.71430  0.42700  1.0000 0.1596244589
C   C81       1.0  0.31200  0.71430  0.07300  1.0000 0.1596244589
C   C82       1.0  0.81200  0.78570  0.92700  1.0000 0.1596244589
C   C83       1.0  0.18800  0.21430  0.42700  1.0000 0.1596244589
C   C84       1.0  0.68800  0.28570  0.57300  1.0000 0.1596244589
C   C85       1.0  0.63620  0.39620  0.02440  1.0000 0.1195113686
C   C86       1.0  0.13620  0.10380  0.97560  1.0000 0.1195113686
C   C87       1.0  0.86380  0.89620  0.47560  1.0000 0.1195113686
C   C88       1.0  0.36380  0.60380  0.52440  1.0000 0.1195113686
C   C89       1.0  0.36380  0.60380  0.97560  1.0000 0.1195113686
C   C90       1.0  0.86380  0.89620  0.02440  1.0000 0.1195113686
C   C91       1.0  0.13620  0.10380  0.52440  1.0000 0.1195113686
C   C92       1.0  0.63620  0.39620  0.47560  1.0000 0.1195113686
C   C93       1.0  0.42500  0.28090  0.84120  1.0000 0.524403262
C   C94       1.0  0.92500  0.21910  0.15880  1.0000 0.524403262
C   C95       1.0  0.07500  0.78090  0.65880  1.0000 0.524403262
C   C96       1.0  0.57500  0.71910  0.34120  1.0000 0.524403262
C   C97       1.0  0.57500  0.71910  0.15880  1.0000 0.524403262
C   C98       1.0  0.07500  0.78090  0.84120  1.0000 0.524403262
C   C99       1.0  0.92500  0.21910  0.34120  1.0000 0.524403262
C   C100      1.0  0.42500  0.28090  0.65880  1.0000 0.524403262
C   C101      1.0  0.68710  0.43370  0.05960  1.0000 0.0535010078
C   C102      1.0  0.18710  0.06630  0.94040  1.0000 0.0535010078
C   C103      1.0  0.81290  0.93370  0.44040  1.0000 0.0535010078
C   C104      1.0  0.31290  0.56630  0.55960  1.0000 0.0535010078
C   C105      1.0  0.31290  0.56630  0.94040  1.0000 0.0535010078
C   C106      1.0  0.81290  0.93370  0.05960  1.0000 0.0535010078
C   C107      1.0  0.18710  0.06630  0.55960  1.0000 0.0535010078
C   C108      1.0  0.68710  0.43370  0.44040  1.0000 0.0535010078
C   C109      1.0  0.09800  0.71910  0.25000  1.0000 0.5470510253
C   C110      1.0  0.59800  0.78090  0.75000  1.0000 0.5470510253
C   C111      1.0  0.40200  0.21910  0.25000  1.0000 0.5470510253
C   C112      1.0  0.90200  0.28090  0.75000  1.0000 0.5470510253
C   C113      1.0  0.91020  0.52300  0.17940  1.0000 0.1138900261
C   C114      1.0  0.41020  0.97700  0.82060  1.0000 0.1138900261
C   C115      1.0  0.58980  0.02300  0.32060  1.0000 0.1138900261
C   C116      1.0  0.08980  0.47700  0.67940  1.0000 0.1138900261
C   C117      1.0  0.08980  0.47700  0.82060  1.0000 0.1138900261
C   C118      1.0  0.58980  0.02300  0.17940  1.0000 0.1138900261
C   C119      1.0  0.41020  0.97700  0.67940  1.0000 0.1138900261
C   C120      1.0  0.91020  0.52300  0.32060  1.0000 0.1138900261
C   C121      1.0  0.33780  0.81340  0.25000  1.0000 -0.1291052887
C   C122      1.0  0.83780  0.68660  0.75000  1.0000 -0.1196920664
C   C123      1.0  0.16220  0.31340  0.25000  1.0000 -0.1196920664
C   C124      1.0  0.66220  0.18660  0.75000  1.0000 -0.1196920664
C   C125      1.0  0.40410  0.22140  0.77190  1.0000 -0.1009076986
C   C126      1.0  0.90410  0.27860  0.22810  1.0000 -0.1009076986
C   C127      1.0  0.09590  0.72140  0.72810  1.0000 -0.1009076986
C   C128      1.0  0.59590  0.77860  0.27190  1.0000 -0.1009076986
C   C129      1.0  0.59590  0.77860  0.22810  1.0000 -0.1009076986
C   C130      1.0  0.09590  0.72140  0.77190  1.0000 -0.1009076986
C   C131      1.0  0.90410  0.27860  0.27190  1.0000 -0.1009076986
C   C132      1.0  0.40410  0.22140  0.72810  1.0000 -0.1009076986
C   C133      1.0  0.66380  0.21600  0.86780  1.0000 0.089190425
C   C134      1.0  0.16380  0.28400  0.13220  1.0000 0.089190425
C   C135      1.0  0.83620  0.71600  0.63220  1.0000 0.089190425
C   C136      1.0  0.33620  0.78400  0.36780  1.0000 0.089190425
C   C137      1.0  0.33620  0.78400  0.13220  1.0000 0.089190425
C   C138      1.0  0.83620  0.71600  0.86780  1.0000 0.089190425
C   C139      1.0  0.16380  0.28400  0.36780  1.0000 0.089190425
C   C140      1.0  0.66380  0.21600  0.63220  1.0000 0.089190425
C   C141      1.0  0.41490  0.28310  0.79410  1.0000 -0.0231267049
C   C142      1.0  0.91490  0.21690  0.20590  1.0000 -0.0231267049
C   C143      1.0  0.08510  0.78310  0.70590  1.0000 -0.0231267049
C   C144      1.0  0.58510  0.71690  0.29410  1.0000 -0.0231267049
C   C145      1.0  0.58510  0.71690  0.20590  1.0000 -0.0231267049
C   C146      1.0  0.08510  0.78310  0.79410  1.0000 -0.0231267049
C   C147      1.0  0.91490  0.21690  0.29410  1.0000 -0.0231267049
C   C148      1.0  0.41490  0.28310  0.70590  1.0000 -0.0231267049
C   C149      1.0  0.82350  0.44130  0.10690  1.0000 -0.1676489857
C   C150      1.0  0.32350  0.05870  0.89310  1.0000 -0.1676489857
C   C151      1.0  0.67650  0.94130  0.39310  1.0000 -0.1676489857
C   C152      1.0  0.17650  0.55870  0.60690  1.0000 -0.1676489857
C   C153      1.0  0.17650  0.55870  0.89310  1.0000 -0.1676489857
C   C154      1.0  0.67650  0.94130  0.10690  1.0000 -0.1676489857
C   C155      1.0  0.32350  0.05870  0.60690  1.0000 -0.1676489857
C   C156      1.0  0.82350  0.44130  0.39310  1.0000 -0.1676489857
C   C157      1.0  0.78970  0.50550  0.12170  1.0000 0.1478227858
C   C158      1.0  0.28970  0.99450  0.87830  1.0000 0.1478227858
C   C159      1.0  0.71030  0.00550  0.37830  1.0000 0.1478227858
C   C160      1.0  0.21030  0.49450  0.62170  1.0000 0.1478227858
C   C161      1.0  0.21030  0.49450  0.87830  1.0000 0.1478227858
C   C162      1.0  0.71030  0.00550  0.12170  1.0000 0.1478227858
C   C163      1.0  0.28970  0.99450  0.62170  1.0000 0.1478227858
C   C164      1.0  0.78970  0.50550  0.37830  1.0000 0.1478227858
C   C165      1.0  0.65220  0.49630  0.07690  1.0000 -0.1291052887
C   C166      1.0  0.15220  0.00370  0.92310  1.0000 -0.1291052887
C   C167      1.0  0.84780  0.99630  0.42310  1.0000 -0.1291052887
C   C168      1.0  0.34780  0.50370  0.57690  1.0000 -0.1291052887
C   C169      1.0  0.34780  0.50370  0.92310  1.0000 -0.1291052887
C   C170      1.0  0.84780  0.99630  0.07690  1.0000 -0.1291052887
C   C171      1.0  0.15220  0.00370  0.57690  1.0000 -0.1291052887
C   C172      1.0  0.65220  0.49630  0.42310  1.0000 -0.1291052887
C   C173      1.0  0.19450  0.32680  0.97040  1.0000 -0.1488877706
C   C174      1.0  0.69450  0.17320  0.02960  1.0000 -0.1488877706
C   C175      1.0  0.30550  0.82680  0.52960  1.0000 -0.1488877706
C   C176      1.0  0.80550  0.67320  0.47040  1.0000 -0.1488877706
C   C177      1.0  0.80550  0.67320  0.02960  1.0000 -0.1488877706
C   C178      1.0  0.30550  0.82680  0.97040  1.0000 -0.1488877706
C   C179      1.0  0.69450  0.17320  0.47040  1.0000 -0.1488877706
C   C180      1.0  0.19450  0.32680  0.52960  1.0000 -0.1488877706
C   C181      1.0  0.70300  0.53200  0.10740  1.0000 -0.1676489857
C   C182      1.0  0.20300  0.96800  0.89260  1.0000 -0.1676489857
C   C183      1.0  0.79700  0.03200  0.39260  1.0000 -0.1676489857
C   C184      1.0  0.29700  0.46800  0.60740  1.0000 -0.1676489857
C   C185      1.0  0.29700  0.46800  0.89260  1.0000 -0.1676489857
C   C186      1.0  0.79700  0.03200  0.10740  1.0000 -0.1676489857
C   C187      1.0  0.20300  0.96800  0.60740  1.0000 -0.1676489857
C   C188      1.0  0.70300  0.53200  0.39260  1.0000 -0.1676489857
C   C189      1.0  0.14340  0.84680  0.25000  1.0000 -0.1116733433
C   C190      1.0  0.64340  0.65320  0.75000  1.0000 -0.1116733433
C   C191      1.0  0.35660  0.34680  0.25000  1.0000 -0.1116733433
C   C192      1.0  0.85660  0.15320  0.75000  1.0000 -0.1116733433
C   C193      1.0  0.22370  0.36860  0.00350  1.0000 -0.0308206513
C   C194      1.0  0.72370  0.13140  0.99650  1.0000 -0.0308206513
C   C195      1.0  0.27630  0.86860  0.49650  1.0000 -0.0308206513
C   C196      1.0  0.77630  0.63140  0.50350  1.0000 -0.0308206513
C   C197      1.0  0.77630  0.63140  0.99650  1.0000 -0.0308206513
C   C198      1.0  0.27630  0.86860  0.00350  1.0000 -0.0308206513
C   C199      1.0  0.72370  0.13140  0.50350  1.0000 -0.0308206513
C   C200      1.0  0.22370  0.36860  0.49650  1.0000 -0.0308206513
C   C201      1.0  0.32020  0.38030  0.01050  1.0000 -0.1676489857
C   C202      1.0  0.82020  0.11970  0.98950  1.0000 -0.1676489857
C   C203      1.0  0.17980  0.88030  0.48950  1.0000 -0.1676489857
C   C204      1.0  0.67980  0.61970  0.51050  1.0000 -0.1676489857
C   C205      1.0  0.67980  0.61970  0.98950  1.0000 -0.1676489857
C   C206      1.0  0.17980  0.88030  0.01050  1.0000 -0.1676489857
C   C207      1.0  0.82020  0.11970  0.51050  1.0000 -0.1676489857
C   C208      1.0  0.32020  0.38030  0.48950  1.0000 -0.1676489857
C   C209      1.0  0.82260  0.23710  0.89100  1.0000 -0.0435860514
C   C210      1.0  0.32260  0.26290  0.10900  1.0000 -0.0435860514
C   C211      1.0  0.67740  0.73710  0.60900  1.0000 -0.0435860514
C   C212      1.0  0.17740  0.76290  0.39100  1.0000 -0.0435860514
C   C213      1.0  0.17740  0.76290  0.10900  1.0000 -0.0435860514
C   C214      1.0  0.67740  0.73710  0.89100  1.0000 -0.0435860514
C   C215      1.0  0.32260  0.26290  0.39100  1.0000 -0.0435860514
C   C216      1.0  0.82260  0.23710  0.60900  1.0000 -0.0435860514
C   C217      1.0  0.78630  0.27690  0.92350  1.0000 -0.1643549226
C   C218      1.0  0.28630  0.22310  0.07650  1.0000 -0.1643549226
C   C219      1.0  0.71370  0.77690  0.57650  1.0000 -0.1643549226
C   C220      1.0  0.21370  0.72310  0.42350  1.0000 -0.1643549226
C   C221      1.0  0.21370  0.72310  0.07650  1.0000 -0.1643549226
C   C222      1.0  0.71370  0.77690  0.92350  1.0000 -0.1643549226
C   C223      1.0  0.28630  0.22310  0.42350  1.0000 -0.1643549226
C   C224      1.0  0.78630  0.27690  0.57650  1.0000 -0.1643549226
C   C225      1.0  0.42350  0.34620  0.77180  1.0000 -0.1116733433
C   C226      1.0  0.92350  0.15380  0.22820  1.0000 -0.1116733433
C   C227      1.0  0.07650  0.84620  0.72820  1.0000 -0.1116733433
C   C228      1.0  0.57650  0.65380  0.27180  1.0000 -0.1116733433
C   C229      1.0  0.57650  0.65380  0.22820  1.0000 -0.1116733433
C   C230      1.0  0.07650  0.84620  0.77180  1.0000 -0.1116733433
C   C231      1.0  0.92350  0.15380  0.27180  1.0000 -0.1116733433
C   C232      1.0  0.42350  0.34620  0.72820  1.0000 -0.1116733433
C   C233      1.0  0.76150  0.20490  0.86300  1.0000 -0.1488877706
C   C234      1.0  0.26150  0.29510  0.13700  1.0000 -0.1447492711
C   C235      1.0  0.73850  0.70490  0.63700  1.0000 -0.1488877706
C   C236      1.0  0.23850  0.79510  0.36300  1.0000 -0.1488877706
C   C237      1.0  0.23850  0.79510  0.13700  1.0000 -0.1488877706
C   C238      1.0  0.73850  0.70490  0.86300  1.0000 -0.1488877706
C   C239      1.0  0.26150  0.29510  0.36300  1.0000 -0.1447492711
C   C240      1.0  0.76150  0.20490  0.63700  1.0000 -0.1488877706
C   C241      1.0  0.91500  0.63280  0.18330  1.0000 -0.0308206513
C   C242      1.0  0.41500  0.86720  0.81670  1.0000 -0.0308206513
C   C243      1.0  0.58500  0.13280  0.31670  1.0000 -0.0308206513
C   C244      1.0  0.08500  0.36720  0.68330  1.0000 -0.0308206513
C   C245      1.0  0.08500  0.36720  0.81670  1.0000 -0.0308206513
C   C246      1.0  0.58500  0.13280  0.18330  1.0000 -0.0308206513
C   C247      1.0  0.41500  0.86720  0.68330  1.0000 -0.0308206513
C   C248      1.0  0.91500  0.63280  0.31670  1.0000 -0.0308206513
C   C249      1.0  0.85300  0.61580  0.15270  1.0000 -0.1009076986
C   C250      1.0  0.35300  0.88420  0.84730  1.0000 -0.1009076986
C   C251      1.0  0.64700  0.11580  0.34730  1.0000 -0.1009076986
C   C252      1.0  0.14700  0.38420  0.65270  1.0000 -0.1009076986
C   C253      1.0  0.14700  0.38420  0.84730  1.0000 -0.1009076986
C   C254      1.0  0.64700  0.11580  0.15270  1.0000 -0.1009076986
C   C255      1.0  0.35300  0.88420  0.65270  1.0000 -0.1009076986
C   C256      1.0  0.85300  0.61580  0.34730  1.0000 -0.1009076986
C   C257      1.0  0.48530  0.07110  0.99020  1.0000 -0.0308206513
C   C258      1.0  0.98530  0.42890  0.00980  1.0000 -0.0308206513
C   C259      1.0  0.01470  0.57110  0.50980  1.0000 -0.0308206513
C   C260      1.0  0.51470  0.92890  0.49020  1.0000 -0.0308206513
C   C261      1.0  0.51470  0.92890  0.00980  1.0000 -0.0308206513
C   C262      1.0  0.01470  0.57110  0.99020  1.0000 -0.0308206513
C   C263      1.0  0.98530  0.42890  0.49020  1.0000 -0.0308206513
C   C264      1.0  0.48530  0.07110  0.50980  1.0000 -0.0308206513
C   C265      1.0  0.46980  0.14860  0.98010  1.0000 0.524403262
C   C266      1.0  0.96980  0.35140  0.01990  1.0000 0.524403262
C   C267      1.0  0.03020  0.64860  0.51990  1.0000 0.5252634563
C   C268      1.0  0.53020  0.85140  0.48010  1.0000 0.5252634563
C   C269      1.0  0.53020  0.85140  0.01990  1.0000 0.5252634563
C   C270      1.0  0.03020  0.64860  0.98010  1.0000 0.5252634563
C   C271      1.0  0.96980  0.35140  0.48010  1.0000 0.524403262
C   C272      1.0  0.46980  0.14860  0.51990  1.0000 0.524403262
C   C273      1.0  0.47000  0.04680  0.03070  1.0000 -0.1196920664
C   C274      1.0  0.97000  0.45320  0.96930  1.0000 -0.1196920664
C   C275      1.0  0.03000  0.54680  0.46930  1.0000 -0.1196920664
C   C276      1.0  0.53000  0.95320  0.53070  1.0000 -0.1196920664
C   C277      1.0  0.53000  0.95320  0.96930  1.0000 -0.1196920664
C   C278      1.0  0.03000  0.54680  0.03070  1.0000 -0.1196920664
C   C279      1.0  0.97000  0.45320  0.53070  1.0000 -0.1196920664
C   C280      1.0  0.47000  0.04680  0.46930  1.0000 -0.1196920664
C   C281      1.0  0.51570  0.02350  0.95960  1.0000 -0.1196920664
C   C282      1.0  0.01570  0.47650  0.04040  1.0000 -0.1196920664
C   C283      1.0  0.98430  0.52350  0.54040  1.0000 -0.1196920664
C   C284      1.0  0.48430  0.97650  0.45960  1.0000 -0.1196920664
C   C285      1.0  0.48430  0.97650  0.04040  1.0000 -0.1196920664
C   C286      1.0  0.98430  0.52350  0.95960  1.0000 -0.1196920664
C   C287      1.0  0.01570  0.47650  0.45960  1.0000 -0.1196920664
C   C288      1.0  0.51570  0.02350  0.54040  1.0000 -0.1196920664
N   N1        1.0  0.62770  0.25530  0.89920  1.0000 -0.2488984934
N   N2        1.0  0.12770  0.24470  0.10080  1.0000 -0.2488984934
N   N3        1.0  0.87230  0.75530  0.60080  1.0000 -0.2488984934
N   N4        1.0  0.37230  0.74470  0.39920  1.0000 -0.2488984934
N   N5        1.0  0.37230  0.74470  0.10080  1.0000 -0.2488984934
N   N6        1.0  0.87230  0.75530  0.89920  1.0000 -0.2488984934
N   N7        1.0  0.12770  0.24470  0.39920  1.0000 -0.2488984934
N   N8        1.0  0.62770  0.25530  0.60080  1.0000 -0.2488984934
N   N9        1.0  0.54420  0.32410  0.96030  1.0000 -0.2913911364
N   N10       1.0  0.04420  0.17590  0.03970  1.0000 -0.2913911364
N   N11       1.0  0.95580  0.82410  0.53970  1.0000 -0.2913911364
N   N12       1.0  0.45580  0.67590  0.46030  1.0000 -0.2913911364
N   N13       1.0  0.45580  0.67590  0.03970  1.0000 -0.2913911364
N   N14       1.0  0.95580  0.82410  0.96030  1.0000 -0.2913911364
N   N15       1.0  0.04420  0.17590  0.46030  1.0000 -0.2913911364
N   N16       1.0  0.54420  0.32410  0.53970  1.0000 -0.2913911364
N   N17       1.0  0.35950  0.30880  0.95120  1.0000 -0.2610491238
N   N18       1.0  0.85950  0.19120  0.04880  1.0000 -0.2610491238
N   N19       1.0  0.14050  0.80880  0.54880  1.0000 -0.2610491238
N   N20       1.0  0.64050  0.69120  0.45120  1.0000 -0.2610491238
N   N21       1.0  0.64050  0.69120  0.04880  1.0000 -0.2610491238
N   N22       1.0  0.14050  0.80880  0.95120  1.0000 -0.2610491238
N   N23       1.0  0.85950  0.19120  0.45120  1.0000 -0.2610491238
N   N24       1.0  0.35950  0.30880  0.54880  1.0000 -0.2610491238
N   N25       1.0  0.84570  0.54500  0.15110  1.0000 0.0092348276
N   N26       1.0  0.34570  0.95500  0.84890  1.0000 0.0092348276
N   N27       1.0  0.65430  0.04500  0.34890  1.0000 0.0092348276
N   N28       1.0  0.15430  0.45500  0.65110  1.0000 0.0092348276
N   N29       1.0  0.15430  0.45500  0.84890  1.0000 0.0092348276
N   N30       1.0  0.65430  0.04500  0.15110  1.0000 0.0092348276
N   N31       1.0  0.34570  0.95500  0.65110  1.0000 0.0092348276
N   N32       1.0  0.84570  0.54500  0.34890  1.0000 0.0092348276
N   N33       1.0  0.95250  0.57410  0.20020  1.0000 -0.2831140629
N   N34       1.0  0.45250  0.92590  0.79980  1.0000 -0.2831140629
N   N35       1.0  0.54750  0.07410  0.29980  1.0000 -0.2831140629
N   N36       1.0  0.04750  0.42590  0.70020  1.0000 -0.2831140629
N   N37       1.0  0.04750  0.42590  0.79980  1.0000 -0.2831140629
N   N38       1.0  0.54750  0.07410  0.20020  1.0000 -0.2831140629
N   N39       1.0  0.45250  0.92590  0.70020  1.0000 -0.2831140629
N   N40       1.0  0.95250  0.57410  0.29980  1.0000 -0.2831140629
O   O1        1.0  0.35310  0.00550  0.25000  1.0000 -0.512097788
O   O2        1.0  0.85310  0.49450  0.75000  1.0000 -0.512097788
O   O3        1.0  0.14690  0.50550  0.25000  1.0000 -0.512097788
O   O4        1.0  0.64690  0.99450  0.75000  1.0000 -0.512097788
O   O5        1.0  0.44450  0.18920  0.00820  1.0000 -0.5452906213
O   O6        1.0  0.94450  0.31080  0.99180  1.0000 -0.5452906213
O   O7        1.0  0.05550  0.68920  0.49180  1.0000 -0.5452906213
O   O8        1.0  0.55550  0.81080  0.50820  1.0000 -0.5452906213
O   O9        1.0  0.55550  0.81080  0.99180  1.0000 -0.5452906213
O   O10       1.0  0.05550  0.68920  0.00820  1.0000 -0.5452906213
O   O11       1.0  0.94450  0.31080  0.50820  1.0000 -0.5452906213
O   O12       1.0  0.44450  0.18920  0.49180  1.0000 -0.5452906213
O   O13       1.0  0.41930  0.22310  0.86010  1.0000 -0.512097788
O   O14       1.0  0.91930  0.27690  0.13990  1.0000 -0.512097788
O   O15       1.0  0.08070  0.72310  0.63990  1.0000 -0.512097788
O   O16       1.0  0.58070  0.77690  0.36010  1.0000 -0.512097788
O   O17       1.0  0.58070  0.77690  0.13990  1.0000 -0.512097788
O   O18       1.0  0.08070  0.72310  0.86010  1.0000 -0.512097788
O   O19       1.0  0.91930  0.27690  0.36010  1.0000 -0.512097788
O   O20       1.0  0.41930  0.22310  0.63990  1.0000 -0.512097788
O   O21       1.0  0.44630  0.33680  0.86100  1.0000 -0.5452906213
O   O22       1.0  0.94630  0.16320  0.13900  1.0000 -0.5452906213
O   O23       1.0  0.05370  0.83680  0.63900  1.0000 -0.5452906213
O   O24       1.0  0.55370  0.66320  0.36100  1.0000 -0.5452906213
O   O25       1.0  0.55370  0.66320  0.13900  1.0000 -0.5452906213
O   O26       1.0  0.05370  0.83680  0.86100  1.0000 -0.5452906213
O   O27       1.0  0.94630  0.16320  0.36100  1.0000 -0.5452906213
O   O28       1.0  0.44630  0.33680  0.63900  1.0000 -0.5452906213
O   O29       1.0  0.46980  0.92810  0.25000  1.0000 -0.5577090702
O   O30       1.0  0.96980  0.57190  0.75000  1.0000 -0.5577090702
O   O31       1.0  0.03020  0.42810  0.25000  1.0000 -0.5577090702
O   O32       1.0  0.53020  0.07190  0.75000  1.0000 -0.5577090702
O   O33       1.0  0.12760  0.65550  0.25000  1.0000 -0.5331507645
O   O34       1.0  0.62760  0.84450  0.75000  1.0000 -0.5331507645
O   O35       1.0  0.37240  0.15550  0.25000  1.0000 -0.5331507645
O   O36       1.0  0.87240  0.34450  0.75000  1.0000 -0.5331507645
O   O37       1.0  0.01030  0.73520  0.25000  1.0000 -0.5669785611
O   O38       1.0  0.51030  0.76480  0.75000  1.0000 -0.5669785611
O   O39       1.0  0.48970  0.23520  0.25000  1.0000 -0.5669785611
O   O40       1.0  0.98970  0.26480  0.75000  1.0000 -0.5669785611
O   O41       1.0  0.48610  0.16560  0.94170  1.0000 -0.5383522234
O   O42       1.0  0.98610  0.33440  0.05830  1.0000 -0.5383522234
O   O43       1.0  0.01390  0.66560  0.55830  1.0000 -0.5383522234
O   O44       1.0  0.51390  0.83440  0.44170  1.0000 -0.5383522234
O   O45       1.0  0.51390  0.83440  0.05830  1.0000 -0.5383522234
O   O46       1.0  0.01390  0.66560  0.94170  1.0000 -0.5383522234
O   O47       1.0  0.98610  0.33440  0.44170  1.0000 -0.5383522234
O   O48       1.0  0.48610  0.16560  0.55830  1.0000 -0.5383522234
