# DDEC6 charges by PACMAN v1.1 (https://github.com/mtap-research/PACMAN-charge/)
data_2017[Co][neb]3[ASR]1
_chemical_formula_sum              "Co4 H64 C72 N8 O16"
_cell_length_a       19.0626
_cell_length_b       19.0626
_cell_length_c       9.548
_cell_angle_alpha    77.7159
_cell_angle_beta     102.284
_cell_angle_gamma    137.41

_symmetry_space_group_name_H-M    "P 1"
_symmetry_Int_Tables_number       1

loop_
  _symmetry_equiv_pos_as_xyz
  'x, y, z'

loop_
  _atom_site_type_symbol
  _atom_site_label
  _atom_site_symmetry_multiplicity
  _atom_site_fract_x
  _atom_site_fract_y
  _atom_site_fract_z
  _atom_site_occupancy
  _atom_site_charge
Co  Co1       1.0  0.42869  0.15769  0.82774  1.0000 0.8042904317
Co  Co2       1.0  0.15769  0.42869  0.67226  1.0000 0.8042904317
Co  Co3       1.0  0.57131  0.84231  0.17226  1.0000 0.8042904317
Co  Co4       1.0  0.84231  0.57131  0.32774  1.0000 0.8042904317
H   H1        1.0  0.47640  0.97280  0.22770  1.0000 0.13512716
H   H2        1.0  0.97280  0.47640  0.27230  1.0000 0.13512716
H   H3        1.0  0.52360  0.02720  0.77230  1.0000 0.13512716
H   H4        1.0  0.02720  0.52360  0.72770  1.0000 0.13512716
H   H5        1.0  0.30540  0.85640  0.84140  1.0000 0.1109561396
H   H6        1.0  0.85640  0.30540  0.65860  1.0000 0.1109561396
H   H7        1.0  0.69460  0.14360  0.15860  1.0000 0.1109561396
H   H8        1.0  0.14360  0.69460  0.34140  1.0000 0.1109561396
H   H9        1.0  0.31640  0.73460  0.92830  1.0000 0.1277297467
H   H10       1.0  0.73460  0.31640  0.57170  1.0000 0.1277297467
H   H11       1.0  0.68360  0.26540  0.07170  1.0000 0.1277297467
H   H12       1.0  0.26540  0.68360  0.42830  1.0000 0.1277297467
H   H13       1.0  0.20880  0.69760  0.66490  1.0000 0.1109561396
H   H14       1.0  0.69760  0.20880  0.83510  1.0000 0.1109561396
H   H15       1.0  0.79120  0.30240  0.33510  1.0000 0.1109561396
H   H16       1.0  0.30240  0.79120  0.16490  1.0000 0.1109561396
H   H17       1.0  0.45880  0.02740  0.99810  1.0000 0.1020685017
H   H18       1.0  0.02740  0.45880  0.50190  1.0000 0.1020685017
H   H19       1.0  0.54120  0.97260  0.00190  1.0000 0.1020685017
H   H20       1.0  0.97260  0.54120  0.49810  1.0000 0.1020685017
H   H21       1.0  0.46530  0.14690  0.37040  1.0000 0.1575143441
H   H22       1.0  0.14690  0.46530  0.12960  1.0000 0.1575143441
H   H23       1.0  0.53470  0.85310  0.62960  1.0000 0.1575143441
H   H24       1.0  0.85310  0.53470  0.87040  1.0000 0.1575143441
H   H25       1.0  0.44650  0.19470  0.13710  1.0000 0.1109561396
H   H26       1.0  0.19470  0.44650  0.36290  1.0000 0.1109561396
H   H27       1.0  0.55350  0.80530  0.86290  1.0000 0.1109561396
H   H28       1.0  0.80530  0.55350  0.63710  1.0000 0.1109561396
H   H29       1.0  0.20590  0.82930  0.57340  1.0000 0.1277297467
H   H30       1.0  0.82930  0.20590  0.92660  1.0000 0.1277297467
H   H31       1.0  0.79410  0.17070  0.42660  1.0000 0.1277297467
H   H32       1.0  0.17070  0.79410  0.07340  1.0000 0.1277297467
H   H33       1.0  0.41930  0.97810  0.52010  1.0000 0.1204847947
H   H34       1.0  0.97810  0.41930  0.97990  1.0000 0.1204847947
H   H35       1.0  0.58070  0.02190  0.47990  1.0000 0.1204847947
H   H36       1.0  0.02190  0.58070  0.02010  1.0000 0.1204847947
H   H37       1.0  0.53490  0.08590  0.53000  1.0000 0.1204847947
H   H38       1.0  0.08590  0.53490  0.97000  1.0000 0.1204847947
H   H39       1.0  0.46510  0.91410  0.47000  1.0000 0.1204847947
H   H40       1.0  0.91410  0.46510  0.03000  1.0000 0.1204847947
H   H41       1.0  0.34780  0.24800  0.85120  1.0000 0.1020685017
H   H42       1.0  0.24800  0.34780  0.64880  1.0000 0.1020685017
H   H43       1.0  0.65220  0.75200  0.14880  1.0000 0.1020685017
H   H44       1.0  0.75200  0.65220  0.35120  1.0000 0.1020685017
H   H45       1.0  0.21310  0.96490  0.92550  1.0000 0.1109561396
H   H46       1.0  0.96490  0.21310  0.57450  1.0000 0.1109561396
H   H47       1.0  0.78690  0.03510  0.07450  1.0000 0.1109561396
H   H48       1.0  0.03510  0.78690  0.42550  1.0000 0.1109561396
H   H49       1.0  0.07330  0.91190  0.00390  1.0000 0.1535424955
H   H50       1.0  0.91190  0.07330  0.49610  1.0000 0.1535424955
H   H51       1.0  0.92670  0.08810  0.99610  1.0000 0.1535424955
H   H52       1.0  0.08810  0.92670  0.50390  1.0000 0.1535424955
H   H53       1.0  0.20880  0.19920  0.92240  1.0000 0.13512716
H   H54       1.0  0.19920  0.20880  0.57760  1.0000 0.13512716
H   H55       1.0  0.79120  0.80080  0.07760  1.0000 0.13512716
H   H56       1.0  0.80080  0.79120  0.42240  1.0000 0.13512716
H   H57       1.0  0.06730  0.08310  0.08860  1.0000 0.1204847947
H   H58       1.0  0.08310  0.06730  0.41140  1.0000 0.1204847947
H   H59       1.0  0.93270  0.91690  0.91140  1.0000 0.1204847947
H   H60       1.0  0.91690  0.93270  0.58860  1.0000 0.1204847947
H   H61       1.0  0.01970  0.97150  0.13950  1.0000 0.1204847947
H   H62       1.0  0.97150  0.01970  0.36050  1.0000 0.1204847947
H   H63       1.0  0.98030  0.02850  0.86050  1.0000 0.1204847947
H   H64       1.0  0.02850  0.98030  0.63950  1.0000 0.1204847947
C   C1        1.0  0.47047  0.01813  0.21200  1.0000 -0.2071859012
C   C2        1.0  0.01813  0.47047  0.28800  1.0000 -0.2071859012
C   C3        1.0  0.52953  0.98187  0.78800  1.0000 -0.2071859012
C   C4        1.0  0.98187  0.52953  0.71200  1.0000 -0.2071859012
C   C5        1.0  0.27115  0.82425  0.75590  1.0000 -0.0634813884
C   C6        1.0  0.82425  0.27115  0.74410  1.0000 -0.0634813884
C   C7        1.0  0.72885  0.17575  0.24410  1.0000 -0.0634813884
C   C8        1.0  0.17575  0.72885  0.25590  1.0000 -0.0634813884
C   C9        1.0  0.27853  0.69947  0.84550  1.0000 -0.2491827503
C   C10       1.0  0.69947  0.27853  0.65450  1.0000 -0.2491827503
C   C11       1.0  0.72147  0.30053  0.15450  1.0000 -0.2491827503
C   C12       1.0  0.30053  0.72147  0.34550  1.0000 -0.2491827503
C   C13       1.0  0.24803  0.73377  0.74670  1.0000 -0.0634813884
C   C14       1.0  0.73377  0.24803  0.75330  1.0000 -0.0634813884
C   C15       1.0  0.75197  0.26623  0.25330  1.0000 -0.0634813884
C   C16       1.0  0.26623  0.75197  0.24670  1.0000 -0.0634813884
C   C17       1.0  0.46004  0.05156  0.07450  1.0000 0.0897033068
C   C18       1.0  0.05156  0.46004  0.42550  1.0000 0.0897033068
C   C19       1.0  0.53996  0.94844  0.92550  1.0000 0.0897033068
C   C20       1.0  0.94844  0.53996  0.57450  1.0000 0.0897033068
C   C21       1.0  0.47200  0.05340  0.32730  1.0000 0.1720298708
C   C22       1.0  0.05340  0.47200  0.17270  1.0000 0.1720298708
C   C23       1.0  0.52800  0.94660  0.67270  1.0000 0.1720298708
C   C24       1.0  0.94660  0.52800  0.82730  1.0000 0.1720298708
C   C25       1.0  0.25675  0.60885  0.83380  1.0000 0.5997540832
C   C26       1.0  0.60885  0.25675  0.66620  1.0000 0.5997540832
C   C27       1.0  0.74325  0.39115  0.16620  1.0000 0.5997540832
C   C28       1.0  0.39115  0.74325  0.33380  1.0000 0.5997540832
C   C29       1.0  0.28717  0.96603  0.66520  1.0000 0.5997540832
C   C30       1.0  0.96603  0.28717  0.83480  1.0000 0.5997540832
C   C31       1.0  0.71283  0.03397  0.33480  1.0000 0.5997540832
C   C32       1.0  0.03397  0.71283  0.16520  1.0000 0.5997540832
C   C33       1.0  0.46373  0.12087  0.29630  1.0000 -0.1738671779
C   C34       1.0  0.12087  0.46373  0.20370  1.0000 -0.1738671779
C   C35       1.0  0.53627  0.87913  0.70370  1.0000 -0.1738671779
C   C36       1.0  0.87913  0.53627  0.79630  1.0000 -0.1738671779
C   C37       1.0  0.45306  0.14974  0.15600  1.0000 0.0801116035
C   C38       1.0  0.14974  0.45306  0.34400  1.0000 0.0801116035
C   C39       1.0  0.54694  0.85026  0.84400  1.0000 0.0801116035
C   C40       1.0  0.85026  0.54694  0.65600  1.0000 0.0801116035
C   C41       1.0  0.24819  0.86501  0.65470  1.0000 -0.2491827503
C   C42       1.0  0.86501  0.24819  0.84530  1.0000 -0.2491827503
C   C43       1.0  0.75181  0.13499  0.34530  1.0000 -0.2491827503
C   C44       1.0  0.13499  0.75181  0.15470  1.0000 -0.2491827503
C   C45       1.0  0.48547  0.02293  0.48040  1.0000 -0.2071859012
C   C46       1.0  0.02293  0.48547  0.01960  1.0000 -0.2071859012
C   C47       1.0  0.51453  0.97707  0.51960  1.0000 -0.2071859012
C   C48       1.0  0.97707  0.51453  0.98040  1.0000 -0.2071859012
C   C49       1.0  0.29230  0.17890  0.88400  1.0000 0.0662836444
C   C50       1.0  0.17890  0.29230  0.61600  1.0000 0.0662836444
C   C51       1.0  0.70770  0.82110  0.11600  1.0000 0.0662836444
C   C52       1.0  0.82110  0.70770  0.38400  1.0000 0.0662836444
C   C53       1.0  0.21402  0.01398  0.92800  1.0000 0.0897033068
C   C54       1.0  0.01398  0.21402  0.57200  1.0000 0.0897033068
C   C55       1.0  0.78598  0.98602  0.07200  1.0000 0.0897033068
C   C56       1.0  0.98602  0.78598  0.42800  1.0000 0.0897033068
C   C57       1.0  0.13025  0.98195  0.97720  1.0000 -0.1996115863
C   C58       1.0  0.98195  0.13025  0.52280  1.0000 -0.1996115863
C   C59       1.0  0.86975  0.01805  0.02280  1.0000 -0.1996115863
C   C60       1.0  0.01805  0.86975  0.47720  1.0000 -0.1996115863
C   C61       1.0  0.20998  0.15062  0.93020  1.0000 -0.2071859012
C   C62       1.0  0.15062  0.20998  0.56980  1.0000 -0.2071859012
C   C63       1.0  0.79002  0.84938  0.06980  1.0000 -0.2071859012
C   C64       1.0  0.84938  0.79002  0.43020  1.0000 -0.2071859012
C   C65       1.0  0.13048  0.05232  0.98680  1.0000 0.1575143441
C   C66       1.0  0.05232  0.13048  0.51320  1.0000 0.1575143441
C   C67       1.0  0.86952  0.94768  0.01320  1.0000 0.1575143441
C   C68       1.0  0.94768  0.86952  0.48680  1.0000 0.1575143441
C   C69       1.0  0.04260  0.02220  0.05740  1.0000 -0.2311823487
C   C70       1.0  0.02220  0.04260  0.44260  1.0000 -0.2311823487
C   C71       1.0  0.95740  0.97780  0.94260  1.0000 -0.2311823487
C   C72       1.0  0.97780  0.95740  0.55740  1.0000 -0.2311823487
N   N1        1.0  0.45172  0.11628  0.04490  1.0000 -0.2311823487
N   N2        1.0  0.11628  0.45172  0.45510  1.0000 -0.2311823487
N   N3        1.0  0.54828  0.88372  0.95510  1.0000 -0.2311823487
N   N4        1.0  0.88372  0.54828  0.54490  1.0000 -0.2311823487
N   N5        1.0  0.29579  0.11221  0.88420  1.0000 -0.2491827503
N   N6        1.0  0.11221  0.29579  0.61580  1.0000 -0.2491827503
N   N7        1.0  0.70421  0.88779  0.11580  1.0000 -0.2491827503
N   N8        1.0  0.88779  0.70421  0.38420  1.0000 -0.2491827503
O   O1        1.0  0.29548  0.58770  0.93330  1.0000 -0.5704837064
O   O2        1.0  0.58770  0.29548  0.56670  1.0000 -0.5704837064
O   O3        1.0  0.70452  0.41230  0.06670  1.0000 -0.5704837064
O   O4        1.0  0.41230  0.70452  0.43330  1.0000 -0.5704837064
O   O5        1.0  0.33763  0.00855  0.78080  1.0000 -0.5704837064
O   O6        1.0  0.00855  0.33763  0.71920  1.0000 -0.5704837064
O   O7        1.0  0.66237  0.99145  0.21920  1.0000 -0.5704837064
O   O8        1.0  0.99145  0.66237  0.28080  1.0000 -0.5704837064
O   O9        1.0  0.19920  0.55674  0.72600  1.0000 -0.5704837064
O   O10       1.0  0.55674  0.19920  0.77400  1.0000 -0.5704837064
O   O11       1.0  0.80080  0.44326  0.27400  1.0000 -0.5704837064
O   O12       1.0  0.44326  0.80080  0.22600  1.0000 -0.5704837064
O   O13       1.0  0.27013  0.00347  0.55760  1.0000 -0.5824527562
O   O14       1.0  0.00347  0.27013  0.94240  1.0000 -0.5824527562
O   O15       1.0  0.72987  0.99653  0.44240  1.0000 -0.5824527562
O   O16       1.0  0.99653  0.72987  0.05760  1.0000 -0.5824527562
