# DDEC6 charges by PACMAN v1.1 (https://github.com/mtap-research/PACMAN-charge/)
data_2017[Zn][crb]3[ASR]2
_chemical_formula_sum              "Zn8 H56 C108 O36"
_cell_length_a       7.38
_cell_length_b       28.29
_cell_length_c       22.47
_cell_angle_alpha    90
_cell_angle_beta     99.13
_cell_angle_gamma    90

_symmetry_space_group_name_H-M    "P 1"
_symmetry_Int_Tables_number       1

loop_
  _symmetry_equiv_pos_as_xyz
  'x, y, z'

loop_
  _atom_site_type_symbol
  _atom_site_label
  _atom_site_symmetry_multiplicity
  _atom_site_fract_x
  _atom_site_fract_y
  _atom_site_fract_z
  _atom_site_occupancy
  _atom_site_charge
Zn  Zn1       1.0  0.86270  0.95283  0.82581  1.0000 0.970879687
Zn  Zn2       1.0  0.13730  0.45283  0.67419  1.0000 0.970879687
Zn  Zn3       1.0  0.13730  0.04717  0.17419  1.0000 0.970879687
Zn  Zn4       1.0  0.86270  0.54717  0.32581  1.0000 0.970879687
Zn  Zn5       1.0  0.44598  0.94913  0.75501  1.0000 0.970879687
Zn  Zn6       1.0  0.55402  0.44913  0.74499  1.0000 0.970879687
Zn  Zn7       1.0  0.55402  0.05087  0.24499  1.0000 0.970879687
Zn  Zn8       1.0  0.44598  0.55087  0.25501  1.0000 0.970879687
H   H1        1.0  0.10140  0.83080  0.69150  1.0000 0.1218127605
H   H2        1.0  0.89860  0.33080  0.80850  1.0000 0.1218127605
H   H3        1.0  0.89860  0.16920  0.30850  1.0000 0.1218127605
H   H4        1.0  0.10140  0.66920  0.19150  1.0000 0.1218127605
H   H5        1.0  0.56940  0.79610  0.65650  1.0000 0.1109590804
H   H6        1.0  0.43060  0.29610  0.84350  1.0000 0.1109590804
H   H7        1.0  0.43060  0.20390  0.34350  1.0000 0.1109590804
H   H8        1.0  0.56940  0.70390  0.15650  1.0000 0.1109590804
H   H9        1.0  0.49440  0.86480  0.70080  1.0000 0.1398604494
H   H10       1.0  0.50560  0.36480  0.79920  1.0000 0.1398604494
H   H11       1.0  0.50560  0.13520  0.29920  1.0000 0.1398604494
H   H12       1.0  0.49440  0.63520  0.20080  1.0000 0.1398604494
H   H13       1.0  0.13210  0.74610  0.68960  1.0000 0.1218127605
H   H14       1.0  0.86790  0.24610  0.81040  1.0000 0.1218127605
H   H15       1.0  0.86790  0.25390  0.31040  1.0000 0.1218127605
H   H16       1.0  0.13210  0.75390  0.18960  1.0000 0.1218127605
H   H17       1.0  0.96580  0.64440  0.56820  1.0000 0.1218127605
H   H18       1.0  0.03420  0.14440  0.93180  1.0000 0.1218127605
H   H19       1.0  0.03420  0.35560  0.43180  1.0000 0.1218127605
H   H20       1.0  0.96580  0.85560  0.06820  1.0000 0.1218127605
H   H21       1.0  0.65670  0.75960  0.57910  1.0000 0.1109590804
H   H22       1.0  0.34330  0.25960  0.92090  1.0000 0.1109590804
H   H23       1.0  0.34330  0.24040  0.42090  1.0000 0.1109590804
H   H24       1.0  0.65670  0.74040  0.07910  1.0000 0.1109590804
H   H25       1.0  0.41970  0.71880  0.66600  1.0000 0.1000252422
H   H26       1.0  0.58030  0.21880  0.83400  1.0000 0.1000252422
H   H27       1.0  0.58030  0.28120  0.33400  1.0000 0.1000252422
H   H28       1.0  0.41970  0.78120  0.16600  1.0000 0.1000252422
H   H29       1.0  0.69300  0.67750  0.69370  1.0000 0.1318662223
H   H30       1.0  0.30700  0.17750  0.80630  1.0000 0.1318662223
H   H31       1.0  0.30700  0.32250  0.30630  1.0000 0.1318662223
H   H32       1.0  0.69300  0.82250  0.19370  1.0000 0.1318662223
H   H33       1.0  0.13560  0.59900  0.65340  1.0000 0.1218127605
H   H34       1.0  0.86440  0.09900  0.84660  1.0000 0.1218127605
H   H35       1.0  0.86440  0.40100  0.34660  1.0000 0.1218127605
H   H36       1.0  0.13560  0.90100  0.15340  1.0000 0.1218127605
H   H37       1.0  0.79900  0.64320  0.46770  1.0000 0.1218127605
H   H38       1.0  0.20100  0.14320  0.03230  1.0000 0.1218127605
H   H39       1.0  0.20100  0.35680  0.53230  1.0000 0.1218127605
H   H40       1.0  0.79900  0.85680  0.96770  1.0000 0.1218127605
H   H41       1.0  0.19510  0.68060  0.47690  1.0000 0.1398604494
H   H42       1.0  0.80490  0.18060  0.02310  1.0000 0.1398604494
H   H43       1.0  0.80490  0.31940  0.52310  1.0000 0.1398604494
H   H44       1.0  0.19510  0.81940  0.97690  1.0000 0.1398604494
H   H45       1.0  0.42470  0.71080  0.54530  1.0000 0.1109590804
H   H46       1.0  0.57530  0.21080  0.95470  1.0000 0.1109590804
H   H47       1.0  0.57530  0.28920  0.45470  1.0000 0.1109590804
H   H48       1.0  0.42470  0.78920  0.04530  1.0000 0.1109590804
H   H49       1.0  0.71620  0.56240  0.72120  1.0000 0.359155206
H   H50       1.0  0.28380  0.06240  0.77880  1.0000 0.359155206
H   H51       1.0  0.28380  0.43760  0.27880  1.0000 0.359155206
H   H52       1.0  0.71620  0.93760  0.22120  1.0000 0.359155206
H   H53       1.0  0.25430  0.60790  0.36510  1.0000 0.3456768747
H   H54       1.0  0.74570  0.10790  0.13490  1.0000 0.3456768747
H   H55       1.0  0.74570  0.39210  0.63490  1.0000 0.3456768747
H   H56       1.0  0.25430  0.89210  0.86510  1.0000 0.3456768747
C   C1        1.0  0.08960  0.91269  0.74460  1.0000 0.6227706876
C   C2        1.0  0.91040  0.41269  0.75540  1.0000 0.6227706876
C   C3        1.0  0.91040  0.08731  0.25540  1.0000 0.6227706876
C   C4        1.0  0.08960  0.58731  0.24460  1.0000 0.6227706876
C   C5        1.0  0.93660  0.87941  0.72020  1.0000 -0.1523711998
C   C6        1.0  0.06340  0.37941  0.77980  1.0000 -0.1523711998
C   C7        1.0  0.06340  0.12059  0.27980  1.0000 -0.1523711998
C   C8        1.0  0.93660  0.62059  0.22020  1.0000 -0.1523711998
C   C9        1.0  0.97900  0.83758  0.69300  1.0000 -0.1301312391
C   C10       1.0  0.02100  0.33758  0.80700  1.0000 -0.1301312391
C   C11       1.0  0.02100  0.16242  0.30700  1.0000 -0.1301312391
C   C12       1.0  0.97900  0.66242  0.19300  1.0000 -0.1301312391
C   C13       1.0  0.84580  0.80554  0.66810  1.0000 0.0504286122
C   C14       1.0  0.15420  0.30554  0.83190  1.0000 0.0504286122
C   C15       1.0  0.15420  0.19446  0.33190  1.0000 0.0504286122
C   C16       1.0  0.84580  0.69446  0.16810  1.0000 0.0504286122
C   C17       1.0  0.66220  0.81697  0.67220  1.0000 -0.1049600932
C   C18       1.0  0.33780  0.31697  0.82780  1.0000 -0.1056400332
C   C19       1.0  0.33780  0.18303  0.32780  1.0000 -0.1049600932
C   C20       1.0  0.66220  0.68303  0.17220  1.0000 -0.1049600932
C   C21       1.0  0.61700  0.85840  0.69900  1.0000 -0.2248638365
C   C22       1.0  0.38300  0.35840  0.80100  1.0000 -0.2248638365
C   C23       1.0  0.38300  0.14160  0.30100  1.0000 -0.2260788772
C   C24       1.0  0.61700  0.64160  0.19900  1.0000 -0.2248638365
C   C25       1.0  0.74910  0.89068  0.72310  1.0000 0.3134632614
C   C26       1.0  0.25090  0.39068  0.77690  1.0000 0.3134632614
C   C27       1.0  0.25090  0.10932  0.27690  1.0000 0.3134632614
C   C28       1.0  0.74910  0.60932  0.22310  1.0000 0.3134632614
C   C29       1.0  0.88800  0.76018  0.63880  1.0000 0.0923527321
C   C30       1.0  0.11200  0.26018  0.86120  1.0000 0.0923527321
C   C31       1.0  0.11200  0.23982  0.36120  1.0000 0.0923527321
C   C32       1.0  0.88800  0.73982  0.13880  1.0000 0.0923527321
C   C33       1.0  0.04650  0.73439  0.65820  1.0000 -0.2093322444
C   C34       1.0  0.95350  0.23439  0.84180  1.0000 -0.2093322444
C   C35       1.0  0.95350  0.26561  0.34180  1.0000 -0.2093322444
C   C36       1.0  0.04650  0.76561  0.15820  1.0000 -0.2093322444
C   C37       1.0  0.08010  0.69151  0.63190  1.0000 0.1000252422
C   C38       1.0  0.91990  0.19151  0.86810  1.0000 0.1000252422
C   C39       1.0  0.91990  0.30849  0.36810  1.0000 0.1000252422
C   C40       1.0  0.08010  0.80849  0.13190  1.0000 0.1000252422
C   C41       1.0  0.94690  0.67350  0.58540  1.0000 -0.1935668569
C   C42       1.0  0.05310  0.17350  0.91460  1.0000 -0.1935668569
C   C43       1.0  0.05310  0.32650  0.41460  1.0000 -0.1935668569
C   C44       1.0  0.94690  0.82650  0.08540  1.0000 -0.1935668569
C   C45       1.0  0.78550  0.69914  0.56460  1.0000 0.0923527321
C   C46       1.0  0.21450  0.19914  0.93540  1.0000 0.0923527321
C   C47       1.0  0.21450  0.30086  0.43540  1.0000 0.0923527321
C   C48       1.0  0.78550  0.80086  0.06460  1.0000 0.0923527321
C   C49       1.0  0.76220  0.74220  0.59240  1.0000 -0.2000298519
C   C50       1.0  0.23780  0.24220  0.90760  1.0000 -0.2000298519
C   C51       1.0  0.23780  0.25780  0.40760  1.0000 -0.2000298519
C   C52       1.0  0.76220  0.75780  0.09240  1.0000 -0.2000298519
C   C53       1.0  0.24780  0.66346  0.65360  1.0000 0.0383895245
C   C54       1.0  0.75220  0.16346  0.84640  1.0000 0.0383895245
C   C55       1.0  0.75220  0.33654  0.34640  1.0000 0.0383895245
C   C56       1.0  0.24780  0.83654  0.15360  1.0000 0.0383895245
C   C57       1.0  0.41620  0.68602  0.66830  1.0000 -0.1361109856
C   C58       1.0  0.58380  0.18602  0.83170  1.0000 -0.1361109856
C   C59       1.0  0.58380  0.31398  0.33170  1.0000 -0.1361109856
C   C60       1.0  0.41620  0.81398  0.16830  1.0000 -0.1361109856
C   C61       1.0  0.58150  0.66150  0.68660  1.0000 -0.2093322444
C   C62       1.0  0.41850  0.16150  0.81340  1.0000 -0.2093322444
C   C63       1.0  0.41850  0.33850  0.31340  1.0000 -0.2093322444
C   C64       1.0  0.58150  0.83850  0.18660  1.0000 -0.2093322444
C   C65       1.0  0.57370  0.61260  0.69380  1.0000 0.2763872054
C   C66       1.0  0.42630  0.11260  0.80620  1.0000 0.2763872054
C   C67       1.0  0.42630  0.38740  0.30620  1.0000 0.2763872054
C   C68       1.0  0.57370  0.88740  0.19380  1.0000 0.2763872054
C   C69       1.0  0.40650  0.58858  0.68250  1.0000 -0.1828990671
C   C70       1.0  0.59350  0.08858  0.81750  1.0000 -0.1828990671
C   C71       1.0  0.59350  0.41142  0.31750  1.0000 -0.1828990671
C   C72       1.0  0.40650  0.91142  0.18250  1.0000 -0.1828990671
C   C73       1.0  0.24700  0.61495  0.66190  1.0000 -0.1191714145
C   C74       1.0  0.75300  0.11495  0.83810  1.0000 -0.1191714145
C   C75       1.0  0.75300  0.38505  0.33810  1.0000 -0.1191714145
C   C76       1.0  0.24700  0.88505  0.16190  1.0000 -0.1191714145
C   C77       1.0  0.39160  0.53767  0.69130  1.0000 0.6227706876
C   C78       1.0  0.60840  0.03767  0.80870  1.0000 0.6227706876
C   C79       1.0  0.60840  0.46233  0.30870  1.0000 0.6227706876
C   C80       1.0  0.39160  0.96233  0.19130  1.0000 0.6227706876
C   C81       1.0  0.64000  0.67960  0.51700  1.0000 0.0504286122
C   C82       1.0  0.36000  0.17960  0.98300  1.0000 0.0504286122
C   C83       1.0  0.36000  0.32040  0.48300  1.0000 0.0504286122
C   C84       1.0  0.64000  0.82040  0.01700  1.0000 0.0504286122
C   C85       1.0  0.67730  0.65048  0.46980  1.0000 -0.1301312391
C   C86       1.0  0.32270  0.15048  0.03020  1.0000 -0.1301312391
C   C87       1.0  0.32270  0.34952  0.53020  1.0000 -0.1301312391
C   C88       1.0  0.67730  0.84952  0.96980  1.0000 -0.1301312391
C   C89       1.0  0.54280  0.63210  0.42660  1.0000 -0.1564678792
C   C90       1.0  0.45720  0.13210  0.07340  1.0000 -0.1564678792
C   C91       1.0  0.45720  0.36790  0.57340  1.0000 -0.1564678792
C   C92       1.0  0.54280  0.86790  0.92660  1.0000 -0.1564678792
C   C93       1.0  0.36120  0.64360  0.42910  1.0000 0.2701947149
C   C94       1.0  0.63880  0.14360  0.07090  1.0000 0.2701947149
C   C95       1.0  0.63880  0.35640  0.57090  1.0000 0.2701947149
C   C96       1.0  0.36120  0.85640  0.92910  1.0000 0.2701947149
C   C97       1.0  0.31660  0.67310  0.47490  1.0000 -0.1935668569
C   C98       1.0  0.68340  0.17310  0.02510  1.0000 -0.1935668569
C   C99       1.0  0.68340  0.32690  0.52510  1.0000 -0.1935668569
C   C100      1.0  0.31660  0.82690  0.97490  1.0000 -0.1935668569
C   C101      1.0  0.45490  0.69040  0.51590  1.0000 -0.1301312391
C   C102      1.0  0.54510  0.19040  0.98410  1.0000 -0.1301312391
C   C103      1.0  0.54510  0.30960  0.48410  1.0000 -0.1301312391
C   C104      1.0  0.45490  0.80960  0.01590  1.0000 -0.1301312391
C   C105      1.0  0.59150  0.60079  0.37820  1.0000 0.6261640247
C   C106      1.0  0.40850  0.10079  0.12180  1.0000 0.6261640247
C   C107      1.0  0.40850  0.39921  0.62180  1.0000 0.6261640247
C   C108      1.0  0.59150  0.89921  0.87820  1.0000 0.6261640247
O   O1        1.0  0.70340  0.93128  0.74728  1.0000 -0.60505783
O   O2        1.0  0.29660  0.43128  0.75272  1.0000 -0.60505783
O   O3        1.0  0.29660  0.06872  0.25272  1.0000 -0.6042321268
O   O4        1.0  0.70340  0.56872  0.24728  1.0000 -0.60505783
O   O5        1.0  0.07540  0.94265  0.78464  1.0000 -0.5409353319
O   O6        1.0  0.92460  0.44265  0.71536  1.0000 -0.5409353319
O   O7        1.0  0.92460  0.05735  0.21536  1.0000 -0.5409353319
O   O8        1.0  0.07540  0.55735  0.28464  1.0000 -0.5409353319
O   O9        1.0  0.23820  0.90879  0.72259  1.0000 -0.5501852985
O   O10       1.0  0.76180  0.40879  0.77741  1.0000 -0.5501852985
O   O11       1.0  0.76180  0.09121  0.27741  1.0000 -0.5501852985
O   O12       1.0  0.23820  0.59121  0.22259  1.0000 -0.5501852985
O   O13       1.0  0.73660  0.58982  0.71230  1.0000 -0.4225828293
O   O14       1.0  0.26340  0.08982  0.78770  1.0000 -0.4225828293
O   O15       1.0  0.26340  0.41018  0.28770  1.0000 -0.4225828293
O   O16       1.0  0.73660  0.91018  0.21230  1.0000 -0.4225828293
O   O17       1.0  0.53890  0.51439  0.70930  1.0000 -0.5648387813
O   O18       1.0  0.46110  0.01439  0.79070  1.0000 -0.5658584777
O   O19       1.0  0.46110  0.48561  0.29070  1.0000 -0.5648387813
O   O20       1.0  0.53890  0.98561  0.20930  1.0000 -0.5648387813
O   O21       1.0  0.23630  0.51867  0.68042  1.0000 -0.5501852985
O   O22       1.0  0.76370  0.01867  0.81958  1.0000 -0.5501852985
O   O23       1.0  0.76370  0.48133  0.31958  1.0000 -0.5501852985
O   O24       1.0  0.23630  0.98133  0.18042  1.0000 -0.5501852985
O   O25       1.0  0.76180  0.59131  0.37870  1.0000 -0.5501852985
O   O26       1.0  0.23820  0.09131  0.12130  1.0000 -0.5501852985
O   O27       1.0  0.23820  0.40869  0.62130  1.0000 -0.5501852985
O   O28       1.0  0.76180  0.90869  0.87870  1.0000 -0.5501852985
O   O29       1.0  0.46510  0.58409  0.34010  1.0000 -0.5501852985
O   O30       1.0  0.53490  0.08409  0.15990  1.0000 -0.5501852985
O   O31       1.0  0.53490  0.41591  0.65990  1.0000 -0.5501852985
O   O32       1.0  0.46510  0.91591  0.84010  1.0000 -0.5501852985
O   O33       1.0  0.21560  0.62610  0.38850  1.0000 -0.4481284413
O   O34       1.0  0.78440  0.12610  0.11150  1.0000 -0.4481284413
O   O35       1.0  0.78440  0.37390  0.61150  1.0000 -0.4481284413
O   O36       1.0  0.21560  0.87390  0.88850  1.0000 -0.4481284413
