# DDEC6 charges by PACMAN v1.1 (https://github.com/mtap-research/PACMAN-charge/)
data_2017[Zn][pcu]3[ASR]7
_chemical_formula_sum              "Zn16 H120 C180 N24 O64"
_cell_length_a       15.7982
_cell_length_b       30.2971
_cell_length_c       20.4468
_cell_angle_alpha    90
_cell_angle_beta     99.766
_cell_angle_gamma    90

_symmetry_space_group_name_H-M    "P 1"
_symmetry_Int_Tables_number       1

loop_
  _symmetry_equiv_pos_as_xyz
  'x, y, z'

loop_
  _atom_site_type_symbol
  _atom_site_label
  _atom_site_symmetry_multiplicity
  _atom_site_fract_x
  _atom_site_fract_y
  _atom_site_fract_z
  _atom_site_occupancy
  _atom_site_charge
Zn  Zn1       1.0  0.36577  0.77439  0.40121  1.0000 0.9406263341
Zn  Zn2       1.0  0.39805  0.68240  0.47361  1.0000 0.9406263341
Zn  Zn3       1.0  0.35251  0.76553  0.55427  1.0000 0.9718487372
Zn  Zn4       1.0  0.21080  0.71884  0.44223  1.0000 0.9476923902
Zn  Zn5       1.0  0.63423  0.27439  0.09879  1.0000 0.9406263341
Zn  Zn6       1.0  0.60195  0.18240  0.02639  1.0000 0.9406263341
Zn  Zn7       1.0  0.64749  0.26553  0.94573  1.0000 0.9718487372
Zn  Zn8       1.0  0.78920  0.21884  0.05777  1.0000 0.9476923902
Zn  Zn9       1.0  0.63423  0.22561  0.59879  1.0000 0.9406263341
Zn  Zn10      1.0  0.60195  0.31760  0.52639  1.0000 0.9406263341
Zn  Zn11      1.0  0.64749  0.23447  0.44573  1.0000 0.9718487372
Zn  Zn12      1.0  0.78920  0.28116  0.55777  1.0000 0.9476923902
Zn  Zn13      1.0  0.36577  0.72561  0.90121  1.0000 0.9406263341
Zn  Zn14      1.0  0.39805  0.81760  0.97361  1.0000 0.9406263341
Zn  Zn15      1.0  0.35251  0.73447  0.05427  1.0000 0.9718487372
Zn  Zn16      1.0  0.21080  0.78116  0.94223  1.0000 0.9476923902
H   H1        1.0  0.81400  0.65240  0.26440  1.0000 0.2765852173
H   H2        1.0  0.91480  0.65840  0.21900  1.0000 0.2707421631
H   H3        1.0  0.16890  0.42920  0.39540  1.0000 0.2765852173
H   H4        1.0  0.62580  0.65370  0.40330  1.0000 0.120819717
H   H5        1.0  0.74220  0.64010  0.35180  1.0000 0.120819717
H   H6        1.0  0.66860  0.73900  0.22140  1.0000 0.1308214056
H   H7        1.0  0.54580  0.75000  0.27040  1.0000 0.1308214056
H   H8        1.0  0.05430  0.65490  0.20060  1.0000 0.1308214056
H   H9        1.0  0.15720  0.67730  0.13990  1.0000 0.120819717
H   H10       1.0  0.00080  0.77420  0.05580  1.0000 0.120819717
H   H11       1.0  0.89400  0.75200  0.11560  1.0000 0.1308214056
H   H12       1.0  0.32960  0.54960  0.43870  1.0000 0.1308214056
H   H13       1.0  0.28140  0.47760  0.41930  1.0000 0.120819717
H   H14       1.0  0.04180  0.52350  0.36060  1.0000 0.1308214056
H   H15       1.0  0.09070  0.59530  0.38390  1.0000 0.120819717
H   H16       1.0  0.07950  0.31390  0.27840  1.0000 0.1308214056
H   H17       1.0  0.97940  0.26910  0.21320  1.0000 0.120819717
H   H18       1.0  0.79480  0.35660  0.23380  1.0000 0.1093791608
H   H19       1.0  0.89520  0.40240  0.29290  1.0000 0.1385963891
H   H20       1.0  0.36530  0.56140  0.85240  1.0000 0.2861231526
H   H21       1.0  0.41830  0.51390  0.92390  1.0000 0.2765852173
H   H22       1.0  0.35350  0.68380  0.72830  1.0000 0.1308214056
H   H23       1.0  0.35320  0.63470  0.81490  1.0000 0.1308214056
H   H24       1.0  0.45820  0.54130  0.71250  1.0000 0.1308214056
H   H25       1.0  0.45910  0.59170  0.62550  1.0000 0.120819717
H   H26       1.0  0.40650  0.46040  0.00410  1.0000 0.1308214056
H   H27       1.0  0.47000  0.39790  0.05710  1.0000 0.120819717
H   H28       1.0  0.61210  0.38200  0.91260  1.0000 0.120819717
H   H29       1.0  0.54650  0.44260  0.85550  1.0000 0.1385963891
H   H30       1.0  0.10910  0.37580  0.34320  1.0000 0.2707421631
H   H31       1.0  0.18600  0.15240  0.23560  1.0000 0.2707421631
H   H32       1.0  0.08520  0.15840  0.28100  1.0000 0.2707421631
H   H33       1.0  0.83110  0.92920  0.10460  1.0000 0.2765852173
H   H34       1.0  0.37420  0.15370  0.09670  1.0000 0.120819717
H   H35       1.0  0.25780  0.14010  0.14820  1.0000 0.120819717
H   H36       1.0  0.33140  0.23900  0.27860  1.0000 0.1308214056
H   H37       1.0  0.45420  0.25000  0.22960  1.0000 0.1308214056
H   H38       1.0  0.94570  0.15490  0.29940  1.0000 0.1308214056
H   H39       1.0  0.84280  0.17730  0.36010  1.0000 0.120819717
H   H40       1.0  0.99920  0.27420  0.44420  1.0000 0.120819717
H   H41       1.0  0.10600  0.25200  0.38440  1.0000 0.1308214056
H   H42       1.0  0.67040  0.04960  0.06130  1.0000 0.1308214056
H   H43       1.0  0.71860  0.97760  0.08070  1.0000 0.120819717
H   H44       1.0  0.95820  0.02350  0.13940  1.0000 0.1308214056
H   H45       1.0  0.90930  0.09530  0.11610  1.0000 0.120819717
H   H46       1.0  0.92050  0.81390  0.22160  1.0000 0.1308214056
H   H47       1.0  0.02060  0.76910  0.28680  1.0000 0.120819717
H   H48       1.0  0.20520  0.85660  0.26620  1.0000 0.1093791608
H   H49       1.0  0.10480  0.90240  0.20710  1.0000 0.1385963891
H   H50       1.0  0.63470  0.06140  0.64760  1.0000 0.2861231526
H   H51       1.0  0.58170  0.01390  0.57610  1.0000 0.2765852173
H   H52       1.0  0.64650  0.18380  0.77170  1.0000 0.1308214056
H   H53       1.0  0.64680  0.13470  0.68510  1.0000 0.1308214056
H   H54       1.0  0.54180  0.04130  0.78750  1.0000 0.1308214056
H   H55       1.0  0.54090  0.09170  0.87450  1.0000 0.120819717
H   H56       1.0  0.59350  0.96040  0.49590  1.0000 0.1308214056
H   H57       1.0  0.53000  0.89790  0.44290  1.0000 0.120819717
H   H58       1.0  0.38790  0.88200  0.58740  1.0000 0.120819717
H   H59       1.0  0.45350  0.94260  0.64450  1.0000 0.1385963891
H   H60       1.0  0.89090  0.87580  0.15680  1.0000 0.2707421631
H   H61       1.0  0.18600  0.34760  0.73560  1.0000 0.2707421631
H   H62       1.0  0.08520  0.34160  0.78100  1.0000 0.2707421631
H   H63       1.0  0.83110  0.57080  0.60460  1.0000 0.2765852173
H   H64       1.0  0.37420  0.34630  0.59670  1.0000 0.120819717
H   H65       1.0  0.25780  0.35990  0.64820  1.0000 0.120819717
H   H66       1.0  0.33140  0.26100  0.77860  1.0000 0.1308214056
H   H67       1.0  0.45420  0.25000  0.72960  1.0000 0.1308214056
H   H68       1.0  0.94570  0.34510  0.79940  1.0000 0.1308214056
H   H69       1.0  0.84280  0.32270  0.86010  1.0000 0.120819717
H   H70       1.0  0.99920  0.22580  0.94420  1.0000 0.120819717
H   H71       1.0  0.10600  0.24800  0.88440  1.0000 0.1308214056
H   H72       1.0  0.67040  0.45040  0.56130  1.0000 0.1308214056
H   H73       1.0  0.71860  0.52240  0.58070  1.0000 0.120819717
H   H74       1.0  0.95820  0.47650  0.63940  1.0000 0.1308214056
H   H75       1.0  0.90930  0.40470  0.61610  1.0000 0.120819717
H   H76       1.0  0.92050  0.68610  0.72160  1.0000 0.1308214056
H   H77       1.0  0.02060  0.73090  0.78680  1.0000 0.120819717
H   H78       1.0  0.20520  0.64340  0.76620  1.0000 0.1093791608
H   H79       1.0  0.10480  0.59760  0.70710  1.0000 0.1385963891
H   H80       1.0  0.63470  0.43860  0.14760  1.0000 0.2861231526
H   H81       1.0  0.58170  0.48610  0.07610  1.0000 0.2765852173
H   H82       1.0  0.64650  0.31620  0.27170  1.0000 0.1308214056
H   H83       1.0  0.64680  0.36530  0.18510  1.0000 0.1308214056
H   H84       1.0  0.54180  0.45870  0.28750  1.0000 0.1308214056
H   H85       1.0  0.54090  0.40830  0.37450  1.0000 0.120819717
H   H86       1.0  0.59350  0.53960  0.99590  1.0000 0.1308214056
H   H87       1.0  0.53000  0.60210  0.94290  1.0000 0.120819717
H   H88       1.0  0.38790  0.61800  0.08740  1.0000 0.120819717
H   H89       1.0  0.45350  0.55740  0.14450  1.0000 0.1385963891
H   H90       1.0  0.89090  0.62420  0.65680  1.0000 0.2707421631
H   H91       1.0  0.81400  0.84760  0.76440  1.0000 0.2707421631
H   H92       1.0  0.91480  0.84160  0.71900  1.0000 0.2707421631
H   H93       1.0  0.16890  0.07080  0.89540  1.0000 0.2765852173
H   H94       1.0  0.62580  0.84630  0.90330  1.0000 0.120819717
H   H95       1.0  0.74220  0.85990  0.85180  1.0000 0.120819717
H   H96       1.0  0.66860  0.76100  0.72140  1.0000 0.1308214056
H   H97       1.0  0.54580  0.75000  0.77040  1.0000 0.1308214056
H   H98       1.0  0.05430  0.84510  0.70060  1.0000 0.1308214056
H   H99       1.0  0.15720  0.82270  0.63990  1.0000 0.120819717
H   H100      1.0  0.00080  0.72580  0.55580  1.0000 0.120819717
H   H101      1.0  0.89400  0.74800  0.61560  1.0000 0.1308214056
H   H102      1.0  0.32960  0.95040  0.93870  1.0000 0.1308214056
H   H103      1.0  0.28140  0.02240  0.91930  1.0000 0.120819717
H   H104      1.0  0.04180  0.97650  0.86060  1.0000 0.1308214056
H   H105      1.0  0.09070  0.90470  0.88390  1.0000 0.120819717
H   H106      1.0  0.07950  0.18610  0.77840  1.0000 0.1308214056
H   H107      1.0  0.97940  0.23090  0.71320  1.0000 0.120819717
H   H108      1.0  0.79480  0.14340  0.73380  1.0000 0.1093791608
H   H109      1.0  0.89520  0.09760  0.79290  1.0000 0.1385963891
H   H110      1.0  0.36530  0.93860  0.35240  1.0000 0.2861231526
H   H111      1.0  0.41830  0.98610  0.42390  1.0000 0.2765852173
H   H112      1.0  0.35350  0.81620  0.22830  1.0000 0.1308214056
H   H113      1.0  0.35320  0.86530  0.31490  1.0000 0.1308214056
H   H114      1.0  0.45820  0.95870  0.21250  1.0000 0.1308214056
H   H115      1.0  0.45910  0.90830  0.12550  1.0000 0.120819717
H   H116      1.0  0.40650  0.03960  0.50410  1.0000 0.1308214056
H   H117      1.0  0.47000  0.10210  0.55710  1.0000 0.120819717
H   H118      1.0  0.61210  0.11800  0.41260  1.0000 0.120819717
H   H119      1.0  0.54650  0.05740  0.35550  1.0000 0.1385963891
H   H120      1.0  0.10910  0.12420  0.84320  1.0000 0.2707421631
C   C1        1.0  0.49840  0.71098  0.37440  1.0000 0.5909220894
C   C2        1.0  0.57430  0.70352  0.34180  1.0000 -0.062060266
C   C3        1.0  0.63380  0.67075  0.36590  1.0000 -0.062060266
C   C4        1.0  0.70330  0.66313  0.33590  1.0000 -0.2009686229
C   C5        1.0  0.71760  0.68835  0.28290  1.0000 0.232885366
C   C6        1.0  0.65920  0.72140  0.25800  1.0000 -0.1899513384
C   C7        1.0  0.58670  0.72821  0.28770  1.0000 -0.0803689122
C   C8        1.0  0.83240  0.70540  0.21650  1.0000 0.5909220894
C   C9        1.0  0.96390  0.70136  0.16470  1.0000 0.246232528
C   C10       1.0  0.04300  0.67915  0.17100  1.0000 -0.2081745241
C   C11       1.0  0.10370  0.69231  0.13480  1.0000 -0.070753277
C   C12       1.0  0.08800  0.72752  0.09050  1.0000 -0.0465198795
C   C13       1.0  0.01090  0.74965  0.08490  1.0000 -0.0863760996
C   C14       1.0  0.94740  0.73686  0.12080  1.0000 -0.2009686229
C   C15       1.0  0.15510  0.74115  0.05080  1.0000 0.5976076384
C   C16       1.0  0.24850  0.62522  0.42350  1.0000 0.5909220894
C   C17       1.0  0.21600  0.57981  0.41000  1.0000 -0.062060266
C   C18       1.0  0.27050  0.54449  0.42210  1.0000 -0.070753277
C   C19       1.0  0.24220  0.50150  0.41070  1.0000 -0.2081745241
C   C20       1.0  0.15730  0.49370  0.38700  1.0000 0.232885366
C   C21       1.0  0.10100  0.52870  0.37660  1.0000 -0.1899513384
C   C22       1.0  0.13040  0.57144  0.38940  1.0000 -0.0803689122
C   C23       1.0  0.05940  0.43340  0.33880  1.0000 0.5909220894
C   C24       1.0  0.99820  0.36360  0.28990  1.0000 0.246232528
C   C25       1.0  0.02150  0.32340  0.26750  1.0000 -0.2009686229
C   C26       1.0  0.96160  0.29651  0.22910  1.0000 -0.0803689122
C   C27       1.0  0.87660  0.30900  0.21360  1.0000 -0.0396714521
C   C28       1.0  0.85360  0.34830  0.24060  1.0000 -0.0803689122
C   C29       1.0  0.91300  0.37510  0.27660  1.0000 -0.171638653
C   C30       1.0  0.81310  0.28182  0.16880  1.0000 0.5909220894
C   C31       1.0  0.39730  0.67295  0.61000  1.0000 0.5841913779
C   C32       1.0  0.40340  0.64233  0.66800  1.0000 -0.0396714521
C   C33       1.0  0.37410  0.65466  0.72460  1.0000 -0.0803689122
C   C34       1.0  0.37410  0.62559  0.77610  1.0000 -0.2009686229
C   C35       1.0  0.40420  0.58335  0.77170  1.0000 0.2396354412
C   C36       1.0  0.43640  0.57030  0.71560  1.0000 -0.1899513384
C   C37       1.0  0.43640  0.60023  0.66380  1.0000 -0.0863760996
C   C38       1.0  0.44910  0.51760  0.84060  1.0000 0.5976076384
C   C39       1.0  0.46970  0.45784  0.92450  1.0000 0.2396354412
C   C40       1.0  0.44780  0.44425  0.98500  1.0000 -0.2360494512
C   C41       1.0  0.48630  0.40745  0.01670  1.0000 -0.1036776717
C   C42       1.0  0.54870  0.38411  0.99050  1.0000 -0.062060266
C   C43       1.0  0.56970  0.39794  0.93080  1.0000 -0.0863760996
C   C44       1.0  0.53150  0.43400  0.89670  1.0000 -0.1899513384
C   C45       1.0  0.59340  0.34462  0.02340  1.0000 0.5730854829
C   C46       1.0  0.50160  0.21098  0.12560  1.0000 0.5909220894
C   C47       1.0  0.42570  0.20352  0.15820  1.0000 -0.062060266
C   C48       1.0  0.36620  0.17075  0.13410  1.0000 -0.070753277
C   C49       1.0  0.29670  0.16313  0.16410  1.0000 -0.2009686229
C   C50       1.0  0.28240  0.18835  0.21710  1.0000 0.232885366
C   C51       1.0  0.34080  0.22140  0.24200  1.0000 -0.1899513384
C   C52       1.0  0.41330  0.22821  0.21230  1.0000 -0.0803689122
C   C53       1.0  0.16760  0.20540  0.28350  1.0000 0.5976076384
C   C54       1.0  0.03610  0.20136  0.33530  1.0000 0.246232528
C   C55       1.0  0.95700  0.17915  0.32900  1.0000 -0.2081745241
C   C56       1.0  0.89630  0.19231  0.36520  1.0000 -0.070753277
C   C57       1.0  0.91200  0.22752  0.40950  1.0000 -0.0465198795
C   C58       1.0  0.98910  0.24965  0.41510  1.0000 -0.0863760996
C   C59       1.0  0.05260  0.23686  0.37920  1.0000 -0.2009686229
C   C60       1.0  0.84490  0.24115  0.44920  1.0000 0.5909220894
C   C61       1.0  0.75150  0.12522  0.07650  1.0000 0.5909220894
C   C62       1.0  0.78400  0.07981  0.09000  1.0000 -0.062060266
C   C63       1.0  0.72950  0.04449  0.07790  1.0000 -0.070753277
C   C64       1.0  0.75780  0.00150  0.08930  1.0000 -0.2081745241
C   C65       1.0  0.84270  0.99370  0.11300  1.0000 0.232885366
C   C66       1.0  0.89900  0.02870  0.12340  1.0000 -0.1843496601
C   C67       1.0  0.86960  0.07144  0.11060  1.0000 -0.0803689122
C   C68       1.0  0.94060  0.93340  0.16120  1.0000 0.5909220894
C   C69       1.0  0.00180  0.86360  0.21010  1.0000 0.246232528
C   C70       1.0  0.97850  0.82340  0.23250  1.0000 -0.2009686229
C   C71       1.0  0.03840  0.79651  0.27090  1.0000 -0.0803689122
C   C72       1.0  0.12340  0.80900  0.28640  1.0000 -0.0396714521
C   C73       1.0  0.14640  0.84830  0.25940  1.0000 -0.0803689122
C   C74       1.0  0.08700  0.87510  0.22340  1.0000 -0.171638653
C   C75       1.0  0.18690  0.78182  0.33120  1.0000 0.5909220894
C   C76       1.0  0.60270  0.17295  0.89000  1.0000 0.5841913779
C   C77       1.0  0.59660  0.14233  0.83200  1.0000 -0.0396714521
C   C78       1.0  0.62590  0.15466  0.77540  1.0000 -0.0803689122
C   C79       1.0  0.62590  0.12559  0.72390  1.0000 -0.2009686229
C   C80       1.0  0.59580  0.08335  0.72830  1.0000 0.2396354412
C   C81       1.0  0.56360  0.07030  0.78440  1.0000 -0.1899513384
C   C82       1.0  0.56360  0.10023  0.83620  1.0000 -0.0863760996
C   C83       1.0  0.55090  0.01760  0.65940  1.0000 0.5976076384
C   C84       1.0  0.53030  0.95784  0.57550  1.0000 0.2396354412
C   C85       1.0  0.55220  0.94425  0.51500  1.0000 -0.2360494512
C   C86       1.0  0.51370  0.90745  0.48330  1.0000 -0.1036776717
C   C87       1.0  0.45130  0.88411  0.50950  1.0000 -0.062060266
C   C88       1.0  0.43030  0.89794  0.56920  1.0000 -0.0863760996
C   C89       1.0  0.46850  0.93400  0.60330  1.0000 -0.1899513384
C   C90       1.0  0.40660  0.84462  0.47660  1.0000 0.5730854829
C   C91       1.0  0.50160  0.28902  0.62560  1.0000 0.5909220894
C   C92       1.0  0.42570  0.29648  0.65820  1.0000 -0.062060266
C   C93       1.0  0.36620  0.32925  0.63410  1.0000 -0.062060266
C   C94       1.0  0.29670  0.33687  0.66410  1.0000 -0.2081745241
C   C95       1.0  0.28240  0.31165  0.71710  1.0000 0.232885366
C   C96       1.0  0.34080  0.27860  0.74200  1.0000 -0.1899513384
C   C97       1.0  0.41330  0.27179  0.71230  1.0000 -0.0803689122
C   C98       1.0  0.16760  0.29460  0.78350  1.0000 0.5909220894
C   C99       1.0  0.03610  0.29864  0.83530  1.0000 0.246232528
C   C100      1.0  0.95700  0.32085  0.82900  1.0000 -0.2081745241
C   C101      1.0  0.89630  0.30769  0.86520  1.0000 -0.070753277
C   C102      1.0  0.91200  0.27248  0.90950  1.0000 -0.0465198795
C   C103      1.0  0.98910  0.25035  0.91510  1.0000 -0.0863760996
C   C104      1.0  0.05260  0.26314  0.87920  1.0000 -0.2009686229
C   C105      1.0  0.84490  0.25885  0.94920  1.0000 0.5909220894
C   C106      1.0  0.75150  0.37478  0.57650  1.0000 0.5909220894
C   C107      1.0  0.78400  0.42019  0.59000  1.0000 -0.062060266
C   C108      1.0  0.72950  0.45551  0.57790  1.0000 -0.070753277
C   C109      1.0  0.75780  0.49850  0.58930  1.0000 -0.2081745241
C   C110      1.0  0.84270  0.50630  0.61300  1.0000 0.232885366
C   C111      1.0  0.89900  0.47130  0.62340  1.0000 -0.1843496601
C   C112      1.0  0.86960  0.42856  0.61060  1.0000 -0.0803689122
C   C113      1.0  0.94060  0.56660  0.66120  1.0000 0.5909220894
C   C114      1.0  0.00180  0.63640  0.71010  1.0000 0.246232528
C   C115      1.0  0.97850  0.67660  0.73250  1.0000 -0.2009686229
C   C116      1.0  0.03840  0.70349  0.77090  1.0000 -0.0803689122
C   C117      1.0  0.12340  0.69100  0.78640  1.0000 -0.0396714521
C   C118      1.0  0.14640  0.65170  0.75940  1.0000 -0.0803689122
C   C119      1.0  0.08700  0.62490  0.72340  1.0000 -0.171638653
C   C120      1.0  0.18690  0.71818  0.83120  1.0000 0.5909220894
C   C121      1.0  0.60270  0.32705  0.39000  1.0000 0.5841913779
C   C122      1.0  0.59660  0.35767  0.33200  1.0000 -0.0396714521
C   C123      1.0  0.62590  0.34534  0.27540  1.0000 -0.0803689122
C   C124      1.0  0.62590  0.37441  0.22390  1.0000 -0.2009686229
C   C125      1.0  0.59580  0.41665  0.22830  1.0000 0.2396354412
C   C126      1.0  0.56360  0.42970  0.28440  1.0000 -0.1899513384
C   C127      1.0  0.56360  0.39977  0.33620  1.0000 -0.0863760996
C   C128      1.0  0.55090  0.48240  0.15940  1.0000 0.5976076384
C   C129      1.0  0.53030  0.54216  0.07550  1.0000 0.2396354412
C   C130      1.0  0.55220  0.55575  0.01500  1.0000 -0.2360494512
C   C131      1.0  0.51370  0.59255  0.98330  1.0000 -0.1036776717
C   C132      1.0  0.45130  0.61589  0.00950  1.0000 -0.062060266
C   C133      1.0  0.43030  0.60206  0.06920  1.0000 -0.0863760996
C   C134      1.0  0.46850  0.56600  0.10330  1.0000 -0.1899513384
C   C135      1.0  0.40660  0.65538  0.97660  1.0000 0.5730854829
C   C136      1.0  0.49840  0.78902  0.87440  1.0000 0.5909220894
C   C137      1.0  0.57430  0.79648  0.84180  1.0000 -0.062060266
C   C138      1.0  0.63380  0.82925  0.86590  1.0000 -0.062060266
C   C139      1.0  0.70330  0.83687  0.83590  1.0000 -0.2009686229
C   C140      1.0  0.71760  0.81165  0.78290  1.0000 0.232885366
C   C141      1.0  0.65920  0.77860  0.75800  1.0000 -0.1899513384
C   C142      1.0  0.58670  0.77179  0.78770  1.0000 -0.0803689122
C   C143      1.0  0.83240  0.79460  0.71650  1.0000 0.5976076384
C   C144      1.0  0.96390  0.79864  0.66470  1.0000 0.246232528
C   C145      1.0  0.04300  0.82085  0.67100  1.0000 -0.2081745241
C   C146      1.0  0.10370  0.80769  0.63480  1.0000 -0.070753277
C   C147      1.0  0.08800  0.77248  0.59050  1.0000 -0.0465198795
C   C148      1.0  0.01090  0.75035  0.58490  1.0000 -0.0863760996
C   C149      1.0  0.94740  0.76314  0.62080  1.0000 -0.2009686229
C   C150      1.0  0.15510  0.75885  0.55080  1.0000 0.5976076384
C   C151      1.0  0.24850  0.87478  0.92350  1.0000 0.5909220894
C   C152      1.0  0.21600  0.92019  0.91000  1.0000 -0.062060266
C   C153      1.0  0.27050  0.95551  0.92210  1.0000 -0.070753277
C   C154      1.0  0.24220  0.99850  0.91070  1.0000 -0.2081745241
C   C155      1.0  0.15730  0.00630  0.88700  1.0000 0.232885366
C   C156      1.0  0.10100  0.97130  0.87660  1.0000 -0.1899513384
C   C157      1.0  0.13040  0.92856  0.88940  1.0000 -0.0803689122
C   C158      1.0  0.05940  0.06660  0.83880  1.0000 0.5909220894
C   C159      1.0  0.99820  0.13640  0.78990  1.0000 0.246232528
C   C160      1.0  0.02150  0.17660  0.76750  1.0000 -0.2009686229
C   C161      1.0  0.96160  0.20349  0.72910  1.0000 -0.0803689122
C   C162      1.0  0.87660  0.19100  0.71360  1.0000 -0.0396714521
C   C163      1.0  0.85360  0.15170  0.74060  1.0000 -0.0863760996
C   C164      1.0  0.91300  0.12490  0.77660  1.0000 -0.171638653
C   C165      1.0  0.81310  0.21818  0.66880  1.0000 0.5909220894
C   C166      1.0  0.39730  0.82705  0.11000  1.0000 0.5841913779
C   C167      1.0  0.40340  0.85767  0.16800  1.0000 -0.0396714521
C   C168      1.0  0.37410  0.84534  0.22460  1.0000 -0.0803689122
C   C169      1.0  0.37410  0.87441  0.27610  1.0000 -0.1899513384
C   C170      1.0  0.40420  0.91665  0.27170  1.0000 0.2396354412
C   C171      1.0  0.43640  0.92970  0.21560  1.0000 -0.1899513384
C   C172      1.0  0.43640  0.89977  0.16380  1.0000 -0.0863760996
C   C173      1.0  0.44910  0.98240  0.34060  1.0000 0.5976076384
C   C174      1.0  0.46970  0.04216  0.42450  1.0000 0.2396354412
C   C175      1.0  0.44780  0.05575  0.48500  1.0000 -0.2360494512
C   C176      1.0  0.48630  0.09255  0.51670  1.0000 -0.1036776717
C   C177      1.0  0.54870  0.11589  0.49050  1.0000 -0.062060266
C   C178      1.0  0.56970  0.10206  0.43080  1.0000 -0.0863760996
C   C179      1.0  0.53150  0.06600  0.39670  1.0000 -0.1899513384
C   C180      1.0  0.59340  0.15538  0.52340  1.0000 0.5730854829
N   N1        1.0  0.79140  0.67872  0.25550  1.0000 -0.4331736903
N   N2        1.0  0.90450  0.68506  0.20240  1.0000 -0.4196671809
N   N3        1.0  0.13260  0.44909  0.37590  1.0000 -0.449143831
N   N4        1.0  0.40150  0.55457  0.82570  1.0000 -0.4096853475
N   N5        1.0  0.42660  0.49483  0.89320  1.0000 -0.4035325091
N   N6        1.0  0.06140  0.38954  0.32620  1.0000 -0.4196671809
N   N7        1.0  0.20860  0.17872  0.24450  1.0000 -0.4331736903
N   N8        1.0  0.09550  0.18506  0.29760  1.0000 -0.4196671809
N   N9        1.0  0.86740  0.94909  0.12410  1.0000 -0.449143831
N   N10       1.0  0.59850  0.05457  0.67430  1.0000 -0.4096853475
N   N11       1.0  0.57340  0.99483  0.60680  1.0000 -0.4035325091
N   N12       1.0  0.93860  0.88954  0.17380  1.0000 -0.4196671809
N   N13       1.0  0.20860  0.32128  0.74450  1.0000 -0.4331736903
N   N14       1.0  0.09550  0.31494  0.79760  1.0000 -0.4196671809
N   N15       1.0  0.86740  0.55091  0.62410  1.0000 -0.449143831
N   N16       1.0  0.59850  0.44543  0.17430  1.0000 -0.4096853475
N   N17       1.0  0.57340  0.50517  0.10680  1.0000 -0.4035325091
N   N18       1.0  0.93860  0.61046  0.67380  1.0000 -0.4196671809
N   N19       1.0  0.79140  0.82128  0.75550  1.0000 -0.4331736903
N   N20       1.0  0.90450  0.81494  0.70240  1.0000 -0.4196671809
N   N21       1.0  0.13260  0.05091  0.87590  1.0000 -0.449143831
N   N22       1.0  0.40150  0.94543  0.32570  1.0000 -0.4096853475
N   N23       1.0  0.42660  0.00517  0.39320  1.0000 -0.4035325091
N   N24       1.0  0.06140  0.11046  0.82620  1.0000 -0.4196671809
O   O1        1.0  0.80760  0.74171  0.19640  1.0000 -0.4823580573
O   O2        1.0  0.48870  0.68425  0.42069  1.0000 -0.5521892051
O   O3        1.0  0.44900  0.74275  0.35486  1.0000 -0.5521892051
O   O4        1.0  0.22620  0.72202  0.06296  1.0000 -0.5399568062
O   O5        1.0  0.13450  0.77055  0.00625  1.0000 -0.5399568062
O   O6        1.0  0.32960  0.73481  0.46514  1.0000 -1.0211284498
O   O7        1.0  0.99700  0.45594  0.31980  1.0000 -0.4879548142
O   O8        1.0  0.32770  0.63079  0.43676  1.0000 -0.5301791619
O   O9        1.0  0.19270  0.65601  0.42137  1.0000 -0.5521892051
O   O10       1.0  0.84240  0.25061  0.13817  1.0000 -0.5399568062
O   O11       1.0  0.73480  0.29149  0.16432  1.0000 -0.5399568062
O   O12       1.0  0.50580  0.50629  0.81030  1.0000 -0.4661822061
O   O13       1.0  0.35640  0.70789  0.61023  1.0000 -0.5577542822
O   O14       1.0  0.43540  0.66026  0.56258  1.0000 -0.5577542822
O   O15       1.0  0.56950  0.32959  0.07601  1.0000 -0.5399568062
O   O16       1.0  0.65220  0.32706  0.99850  1.0000 -0.5701343457
O   O17       1.0  0.19240  0.24171  0.30360  1.0000 -0.4823580573
O   O18       1.0  0.51130  0.18425  0.07931  1.0000 -0.5521892051
O   O19       1.0  0.55100  0.24275  0.14514  1.0000 -0.5521892051
O   O20       1.0  0.77380  0.22202  0.43704  1.0000 -0.5399568062
O   O21       1.0  0.86550  0.27055  0.49375  1.0000 -0.5399568062
O   O22       1.0  0.67040  0.23481  0.03486  1.0000 -1.0211284498
O   O23       1.0  0.00300  0.95594  0.18020  1.0000 -0.4879548142
O   O24       1.0  0.67230  0.13079  0.06324  1.0000 -0.5301791619
O   O25       1.0  0.80730  0.15601  0.07863  1.0000 -0.5521892051
O   O26       1.0  0.15760  0.75061  0.36183  1.0000 -0.5399568062
O   O27       1.0  0.26520  0.79149  0.33568  1.0000 -0.5399568062
O   O28       1.0  0.49420  0.00629  0.68970  1.0000 -0.4646709303
O   O29       1.0  0.64360  0.20789  0.88977  1.0000 -0.5577542822
O   O30       1.0  0.56460  0.16026  0.93742  1.0000 -0.5577542822
O   O31       1.0  0.43050  0.82959  0.42399  1.0000 -0.5399568062
O   O32       1.0  0.34780  0.82706  0.50150  1.0000 -0.5701343457
O   O33       1.0  0.19240  0.25829  0.80360  1.0000 -0.4823580573
O   O34       1.0  0.51130  0.31575  0.57931  1.0000 -0.5521892051
O   O35       1.0  0.55100  0.25725  0.64514  1.0000 -0.5521892051
O   O36       1.0  0.77380  0.27798  0.93704  1.0000 -0.5399568062
O   O37       1.0  0.86550  0.22945  0.99375  1.0000 -0.5399568062
O   O38       1.0  0.67040  0.26519  0.53486  1.0000 -1.0211284498
O   O39       1.0  0.00300  0.54406  0.68020  1.0000 -0.4879548142
O   O40       1.0  0.67230  0.36921  0.56324  1.0000 -0.5301791619
O   O41       1.0  0.80730  0.34399  0.57863  1.0000 -0.5521892051
O   O42       1.0  0.15760  0.74939  0.86183  1.0000 -0.5399568062
O   O43       1.0  0.26520  0.70851  0.83568  1.0000 -0.5399568062
O   O44       1.0  0.49420  0.49371  0.18970  1.0000 -0.4661822061
O   O45       1.0  0.64360  0.29211  0.38977  1.0000 -0.5577542822
O   O46       1.0  0.56460  0.33974  0.43742  1.0000 -0.5577542822
O   O47       1.0  0.43050  0.67041  0.92399  1.0000 -0.5399568062
O   O48       1.0  0.34780  0.67294  0.00150  1.0000 -0.5701343457
O   O49       1.0  0.80760  0.75829  0.69640  1.0000 -0.4823580573
O   O50       1.0  0.48870  0.81575  0.92069  1.0000 -0.5521892051
O   O51       1.0  0.44900  0.75725  0.85486  1.0000 -0.5521892051
O   O52       1.0  0.22620  0.77798  0.56296  1.0000 -0.5399568062
O   O53       1.0  0.13450  0.72945  0.50625  1.0000 -0.5399568062
O   O54       1.0  0.32960  0.76519  0.96514  1.0000 -1.0211284498
O   O55       1.0  0.99700  0.04406  0.81980  1.0000 -0.4879548142
O   O56       1.0  0.32770  0.86921  0.93676  1.0000 -0.5301791619
O   O57       1.0  0.19270  0.84399  0.92137  1.0000 -0.5521892051
O   O58       1.0  0.84240  0.24939  0.63817  1.0000 -0.5399568062
O   O59       1.0  0.73480  0.20851  0.66432  1.0000 -0.5399568062
O   O60       1.0  0.50580  0.99371  0.31030  1.0000 -0.4661822061
O   O61       1.0  0.35640  0.79211  0.11023  1.0000 -0.5577542822
O   O62       1.0  0.43540  0.83974  0.06258  1.0000 -0.5577542822
O   O63       1.0  0.56950  0.17041  0.57601  1.0000 -0.5399568062
O   O64       1.0  0.65220  0.17294  0.49850  1.0000 -0.5701343457
