# DDEC6 charges by PACMAN v1.1 (https://github.com/mtap-research/PACMAN-charge/)
data_2017[Zn][nan]3[ASR]18
_chemical_formula_sum              "Zn8 H64 C112 N8 O32"
_cell_length_a       13.2615
_cell_length_b       13.2615
_cell_length_c       29.647
_cell_angle_alpha    90
_cell_angle_beta     90
_cell_angle_gamma    136.901

_symmetry_space_group_name_H-M    "P 1"
_symmetry_Int_Tables_number       1

loop_
  _symmetry_equiv_pos_as_xyz
  'x, y, z'

loop_
  _atom_site_type_symbol
  _atom_site_label
  _atom_site_symmetry_multiplicity
  _atom_site_fract_x
  _atom_site_fract_y
  _atom_site_fract_z
  _atom_site_occupancy
  _atom_site_charge
Zn  Zn1       1.0  0.73904  0.21756  0.45812  1.0000 0.8258581965
Zn  Zn2       1.0  0.21756  0.73904  0.54188  1.0000 0.8258581965
Zn  Zn3       1.0  0.23904  0.71756  0.04188  1.0000 0.8248154332
Zn  Zn4       1.0  0.71756  0.23904  0.95812  1.0000 0.8258581965
Zn  Zn5       1.0  0.67186  0.05014  0.79653  1.0000 0.8118912537
Zn  Zn6       1.0  0.05014  0.67186  0.20347  1.0000 0.8118912537
Zn  Zn7       1.0  0.17186  0.55014  0.70347  1.0000 0.8118912537
Zn  Zn8       1.0  0.55014  0.17186  0.29653  1.0000 0.8118912537
H   H1        1.0  0.81520  0.01780  0.54780  1.0000 0.1103398792
H   H2        1.0  0.01780  0.81520  0.45220  1.0000 0.1103398792
H   H3        1.0  0.31520  0.51780  0.95220  1.0000 0.1103398792
H   H4        1.0  0.51780  0.31520  0.04780  1.0000 0.1103398792
H   H5        1.0  0.81840  0.90440  0.60610  1.0000 0.1103398792
H   H6        1.0  0.90440  0.81840  0.39390  1.0000 0.1103398792
H   H7        1.0  0.31840  0.40440  0.89390  1.0000 0.1103398792
H   H8        1.0  0.40440  0.31840  0.10610  1.0000 0.1103398792
H   H9        1.0  0.76360  0.91580  0.67920  1.0000 0.119476499
H   H10       1.0  0.91580  0.76360  0.32080  1.0000 0.119476499
H   H11       1.0  0.26360  0.41580  0.82080  1.0000 0.119476499
H   H12       1.0  0.41580  0.26360  0.17920  1.0000 0.119476499
H   H13       1.0  0.79690  0.49010  0.66790  1.0000 0.1290130053
H   H14       1.0  0.49010  0.79690  0.33210  1.0000 0.1290130053
H   H15       1.0  0.29690  0.99010  0.83210  1.0000 0.1290130053
H   H16       1.0  0.99010  0.29690  0.16790  1.0000 0.1290130053
H   H17       1.0  0.57200  0.37600  0.63880  1.0000 0.1048599814
H   H18       1.0  0.37600  0.57200  0.36120  1.0000 0.1103398792
H   H19       1.0  0.07200  0.87600  0.86120  1.0000 0.1048599814
H   H20       1.0  0.87600  0.07200  0.13880  1.0000 0.1103398792
H   H21       1.0  0.41490  0.14650  0.60660  1.0000 0.1103398792
H   H22       1.0  0.14650  0.41490  0.39340  1.0000 0.1103398792
H   H23       1.0  0.91490  0.64650  0.89340  1.0000 0.1103398792
H   H24       1.0  0.64650  0.91490  0.10660  1.0000 0.1103398792
H   H25       1.0  0.44740  0.09840  0.48050  1.0000 0.119476499
H   H26       1.0  0.09840  0.44740  0.51950  1.0000 0.119476499
H   H27       1.0  0.94740  0.59840  0.01950  1.0000 0.119476499
H   H28       1.0  0.59840  0.94740  0.98050  1.0000 0.119476499
H   H29       1.0  0.36040  0.17620  0.51590  1.0000 0.1393910395
H   H30       1.0  0.17620  0.36040  0.48410  1.0000 0.1393910395
H   H31       1.0  0.86040  0.67620  0.98410  1.0000 0.1393910395
H   H32       1.0  0.67620  0.86040  0.01590  1.0000 0.1393910395
H   H33       1.0  0.77040  0.58860  0.51460  1.0000 0.1393910395
H   H34       1.0  0.58860  0.77040  0.48540  1.0000 0.1393910395
H   H35       1.0  0.27040  0.08860  0.98540  1.0000 0.1393910395
H   H36       1.0  0.08860  0.27040  0.01460  1.0000 0.1393910395
H   H37       1.0  0.84800  0.50100  0.47860  1.0000 0.119476499
H   H38       1.0  0.50100  0.84800  0.52140  1.0000 0.119476499
H   H39       1.0  0.34800  0.00100  0.02140  1.0000 0.119476499
H   H40       1.0  0.00100  0.34800  0.97860  1.0000 0.119476499
H   H41       1.0  0.04760  0.29200  0.64610  1.0000 0.1103398792
H   H42       1.0  0.29200  0.04760  0.35390  1.0000 0.1103398792
H   H43       1.0  0.54760  0.79200  0.85390  1.0000 0.1103398792
H   H44       1.0  0.79200  0.54760  0.14610  1.0000 0.1103398792
H   H45       1.0  0.12080  0.21560  0.60050  1.0000 0.1393910395
H   H46       1.0  0.21560  0.12080  0.39950  1.0000 0.1393910395
H   H47       1.0  0.62080  0.71560  0.89950  1.0000 0.1393910395
H   H48       1.0  0.71560  0.62080  0.10050  1.0000 0.1393910395
H   H49       1.0  0.52330  0.63010  0.59870  1.0000 0.1290130053
H   H50       1.0  0.63010  0.52330  0.40130  1.0000 0.1290130053
H   H51       1.0  0.02330  0.13010  0.90130  1.0000 0.1290130053
H   H52       1.0  0.13010  0.02330  0.09870  1.0000 0.1290130053
H   H53       1.0  0.44130  0.69330  0.64760  1.0000 0.119476499
H   H54       1.0  0.69330  0.44130  0.35240  1.0000 0.119476499
H   H55       1.0  0.94130  0.19330  0.85240  1.0000 0.119476499
H   H56       1.0  0.19330  0.94130  0.14760  1.0000 0.119476499
H   H57       1.0  0.30740  0.26380  0.55880  1.0000 0.119476499
H   H58       1.0  0.26380  0.30740  0.44120  1.0000 0.119476499
H   H59       1.0  0.80740  0.76380  0.94120  1.0000 0.119476499
H   H60       1.0  0.76380  0.80740  0.05880  1.0000 0.119476499
H   H61       1.0  0.58450  0.54870  0.55420  1.0000 0.119476499
H   H62       1.0  0.54870  0.58450  0.44580  1.0000 0.119476499
H   H63       1.0  0.08450  0.04870  0.94580  1.0000 0.119476499
H   H64       1.0  0.04870  0.08450  0.05420  1.0000 0.119476499
C   C1        1.0  0.77495  0.18245  0.54704  1.0000 0.5611809377
C   C2        1.0  0.18245  0.77495  0.45296  1.0000 0.5611809377
C   C3        1.0  0.27495  0.68245  0.95296  1.0000 0.5611809377
C   C4        1.0  0.68245  0.27495  0.04704  1.0000 0.5611809377
C   C5        1.0  0.75940  0.09980  0.58608  1.0000 -0.0651896934
C   C6        1.0  0.09980  0.75940  0.41392  1.0000 -0.0651896934
C   C7        1.0  0.25940  0.59980  0.91392  1.0000 -0.0651896934
C   C8        1.0  0.59980  0.25940  0.08608  1.0000 -0.0651896934
C   C9        1.0  0.79368  0.02252  0.57710  1.0000 -0.1396795104
C   C10       1.0  0.02252  0.79368  0.42290  1.0000 -0.1453243534
C   C11       1.0  0.29368  0.52252  0.92290  1.0000 -0.1453243534
C   C12       1.0  0.52252  0.29368  0.07710  1.0000 -0.1453243534
C   C13       1.0  0.79502  0.95438  0.61180  1.0000 -0.1325158406
C   C14       1.0  0.95438  0.79502  0.38820  1.0000 -0.1325158406
C   C15       1.0  0.29502  0.45438  0.88820  1.0000 -0.1325158406
C   C16       1.0  0.45438  0.29502  0.11180  1.0000 -0.1325158406
C   C17       1.0  0.76103  0.96057  0.65578  1.0000 -0.1227166768
C   C18       1.0  0.96057  0.76103  0.34422  1.0000 -0.1227166768
C   C19       1.0  0.26103  0.46057  0.84422  1.0000 -0.1227166768
C   C20       1.0  0.46057  0.26103  0.15578  1.0000 -0.1227166768
C   C21       1.0  0.72314  0.03346  0.66481  1.0000 -0.0273174349
C   C22       1.0  0.03346  0.72314  0.33519  1.0000 -0.0273174349
C   C23       1.0  0.22314  0.53346  0.83519  1.0000 -0.0273174349
C   C24       1.0  0.53346  0.22314  0.16481  1.0000 -0.0273174349
C   C25       1.0  0.69019  0.03561  0.71332  1.0000 0.5737261583
C   C26       1.0  0.03561  0.69019  0.28668  1.0000 0.5737261583
C   C27       1.0  0.19019  0.53561  0.78668  1.0000 0.5737261583
C   C28       1.0  0.53561  0.19019  0.21332  1.0000 0.5737261583
C   C29       1.0  0.71978  0.10282  0.62978  1.0000 0.0458716048
C   C30       1.0  0.10282  0.71978  0.37022  1.0000 0.0458716048
C   C31       1.0  0.21978  0.60282  0.87022  1.0000 0.0458716048
C   C32       1.0  0.60282  0.21978  0.12978  1.0000 0.0458716048
C   C33       1.0  0.91678  0.39842  0.67547  1.0000 0.5492473651
C   C34       1.0  0.39842  0.91678  0.32453  1.0000 0.5492473651
C   C35       1.0  0.41678  0.89842  0.82453  1.0000 0.5492473651
C   C36       1.0  0.89842  0.41678  0.17547  1.0000 0.5492473651
C   C37       1.0  0.76982  0.31938  0.65542  1.0000 -0.0187203999
C   C38       1.0  0.31938  0.76982  0.34458  1.0000 -0.0187203999
C   C39       1.0  0.26982  0.81938  0.84458  1.0000 -0.0187203999
C   C40       1.0  0.81938  0.26982  0.15542  1.0000 -0.0187203999
C   C41       1.0  0.73238  0.39562  0.65581  1.0000 -0.1092309183
C   C42       1.0  0.39562  0.73238  0.34419  1.0000 -0.1092309183
C   C43       1.0  0.23238  0.89562  0.84419  1.0000 -0.1092309183
C   C44       1.0  0.89562  0.23238  0.15581  1.0000 -0.101018932
C   C45       1.0  0.59845  0.32755  0.63795  1.0000 -0.101018932
C   C46       1.0  0.32755  0.59845  0.36205  1.0000 -0.101018932
C   C47       1.0  0.09845  0.82755  0.86205  1.0000 -0.101018932
C   C48       1.0  0.82755  0.09845  0.13795  1.0000 -0.101018932
C   C49       1.0  0.50376  0.18964  0.61898  1.0000 -0.1092309183
C   C50       1.0  0.18964  0.50376  0.38102  1.0000 -0.1092309183
C   C51       1.0  0.00376  0.68964  0.88102  1.0000 -0.1092309183
C   C52       1.0  0.68964  0.00376  0.11898  1.0000 -0.1092309183
C   C53       1.0  0.53963  0.11457  0.61823  1.0000 -0.0478897917
C   C54       1.0  0.11457  0.53963  0.38177  1.0000 -0.0478897917
C   C55       1.0  0.03963  0.61457  0.88177  1.0000 -0.0478897917
C   C56       1.0  0.61457  0.03963  0.11823  1.0000 -0.0478897917
C   C57       1.0  0.42704  0.95976  0.59874  1.0000 0.5611809377
C   C58       1.0  0.95976  0.42704  0.40126  1.0000 0.5611809377
C   C59       1.0  0.92704  0.45976  0.90126  1.0000 0.5611809377
C   C60       1.0  0.45976  0.92704  0.09874  1.0000 0.5611809377
C   C61       1.0  0.67386  0.17754  0.63644  1.0000 0.0641864125
C   C62       1.0  0.17754  0.67386  0.36356  1.0000 0.0641864125
C   C63       1.0  0.17386  0.67754  0.86356  1.0000 0.0641864125
C   C64       1.0  0.67754  0.17386  0.13644  1.0000 0.0641864125
C   C65       1.0  0.51313  0.19787  0.48771  1.0000 0.1103398792
C   C66       1.0  0.19787  0.51313  0.51229  1.0000 0.1103398792
C   C67       1.0  0.01313  0.69787  0.01229  1.0000 0.1048599814
C   C68       1.0  0.69787  0.01313  0.98771  1.0000 0.1103398792
C   C69       1.0  0.46057  0.24383  0.50946  1.0000 -0.1904730887
C   C70       1.0  0.24383  0.46057  0.49054  1.0000 -0.1904730887
C   C71       1.0  0.96057  0.74383  0.99054  1.0000 -0.1904730887
C   C72       1.0  0.74383  0.96057  0.00946  1.0000 -0.1904730887
C   C73       1.0  0.55621  0.39039  0.52176  1.0000 0.1499867473
C   C74       1.0  0.39039  0.55621  0.47824  1.0000 0.1499867473
C   C75       1.0  0.05621  0.89039  0.97824  1.0000 0.1499867473
C   C76       1.0  0.89039  0.05621  0.02176  1.0000 0.1499867473
C   C77       1.0  0.70351  0.48829  0.50862  1.0000 -0.1904730887
C   C78       1.0  0.48829  0.70351  0.49138  1.0000 -0.1904730887
C   C79       1.0  0.20351  0.98829  0.99138  1.0000 -0.1904730887
C   C80       1.0  0.98829  0.20351  0.00862  1.0000 -0.1904730887
C   C81       1.0  0.74918  0.43502  0.48664  1.0000 0.1103398792
C   C82       1.0  0.43502  0.74918  0.51336  1.0000 0.1103398792
C   C83       1.0  0.24918  0.93502  0.01336  1.0000 0.1103398792
C   C84       1.0  0.93502  0.24918  0.98664  1.0000 0.1103398792
C   C85       1.0  0.14620  0.36100  0.63740  1.0000 0.119476499
C   C86       1.0  0.36100  0.14620  0.36260  1.0000 0.119476499
C   C87       1.0  0.64620  0.86100  0.86260  1.0000 0.119476499
C   C88       1.0  0.86100  0.64620  0.13740  1.0000 0.119476499
C   C89       1.0  0.18850  0.31370  0.60941  1.0000 -0.2014694925
C   C90       1.0  0.31370  0.18850  0.39059  1.0000 -0.2014694925
C   C91       1.0  0.68850  0.81370  0.89059  1.0000 -0.2014694925
C   C92       1.0  0.81370  0.68850  0.10941  1.0000 -0.2014694925
C   C93       1.0  0.33311  0.41509  0.59489  1.0000 0.1499867473
C   C94       1.0  0.41509  0.33311  0.40511  1.0000 0.1499867473
C   C95       1.0  0.83311  0.91509  0.90511  1.0000 0.1499867473
C   C96       1.0  0.91509  0.83311  0.09489  1.0000 0.1499867473
C   C97       1.0  0.42617  0.55803  0.60874  1.0000 -0.1844910871
C   C98       1.0  0.55803  0.42617  0.39126  1.0000 -0.1844910871
C   C99       1.0  0.92617  0.05803  0.89126  1.0000 -0.1904730887
C   C100      1.0  0.05803  0.92617  0.10874  1.0000 -0.1844910871
C   C101      1.0  0.37590  0.59610  0.63789  1.0000 0.0882042196
C   C102      1.0  0.59610  0.37590  0.36211  1.0000 0.0882042196
C   C103      1.0  0.87590  0.09610  0.86211  1.0000 0.0882042196
C   C104      1.0  0.09610  0.87590  0.13789  1.0000 0.0882042196
C   C105      1.0  0.37893  0.36387  0.56582  1.0000 -0.1396795104
C   C106      1.0  0.36387  0.37893  0.43418  1.0000 -0.1396795104
C   C107      1.0  0.87893  0.86387  0.93418  1.0000 -0.1396795104
C   C108      1.0  0.86387  0.87893  0.06582  1.0000 -0.1396795104
C   C109      1.0  0.51330  0.44770  0.54877  1.0000 -0.1396795104
C   C110      1.0  0.44770  0.51330  0.45123  1.0000 -0.1396795104
C   C111      1.0  0.01330  0.94770  0.95123  1.0000 -0.1396795104
C   C112      1.0  0.94770  0.01330  0.04877  1.0000 -0.1396795104
N   N1        1.0  0.23464  0.49576  0.65256  1.0000 -0.2114002819
N   N2        1.0  0.49576  0.23464  0.34744  1.0000 -0.2114002819
N   N3        1.0  0.73464  0.99576  0.84744  1.0000 -0.2114002819
N   N4        1.0  0.99576  0.73464  0.15256  1.0000 -0.2114002819
N   N5        1.0  0.65592  0.29128  0.47645  1.0000 -0.2364522408
N   N6        1.0  0.29128  0.65592  0.52355  1.0000 -0.2364522408
N   N7        1.0  0.15592  0.79128  0.02355  1.0000 -0.2364522408
N   N8        1.0  0.79128  0.15592  0.97645  1.0000 -0.2364522408
O   O1        1.0  0.61468  0.05672  0.72317  1.0000 -0.4999490867
O   O2        1.0  0.05672  0.61468  0.27683  1.0000 -0.4999490867
O   O3        1.0  0.11468  0.55672  0.77683  1.0000 -0.4999490867
O   O4        1.0  0.55672  0.11468  0.22317  1.0000 -0.4999490867
O   O5        1.0  0.73839  0.01261  0.74316  1.0000 -0.5277916978
O   O6        1.0  0.01261  0.73839  0.25684  1.0000 -0.5277916978
O   O7        1.0  0.23839  0.51261  0.75684  1.0000 -0.5277916978
O   O8        1.0  0.51261  0.23839  0.24316  1.0000 -0.5277916978
O   O9        1.0  0.02540  0.53600  0.66737  1.0000 -0.5209241997
O   O10       1.0  0.53600  0.02540  0.33263  1.0000 -0.5209241997
O   O11       1.0  0.52540  0.03600  0.83263  1.0000 -0.5209241997
O   O12       1.0  0.03600  0.52540  0.16737  1.0000 -0.5209241997
O   O13       1.0  0.93415  0.33445  0.69947  1.0000 -0.5209241997
O   O14       1.0  0.33445  0.93415  0.30053  1.0000 -0.5209241997
O   O15       1.0  0.43415  0.83445  0.80053  1.0000 -0.5209241997
O   O16       1.0  0.83445  0.43415  0.19947  1.0000 -0.5209241997
O   O17       1.0  0.36070  0.94210  0.56286  1.0000 -0.5629230927
O   O18       1.0  0.94210  0.36070  0.43714  1.0000 -0.5629230927
O   O19       1.0  0.86070  0.44210  0.93714  1.0000 -0.5629230927
O   O20       1.0  0.44210  0.86070  0.06286  1.0000 -0.5629230927
O   O21       1.0  0.39784  0.85716  0.61675  1.0000 -0.5405255522
O   O22       1.0  0.85716  0.39784  0.38325  1.0000 -0.5405255522
O   O23       1.0  0.89784  0.35716  0.88325  1.0000 -0.5405255522
O   O24       1.0  0.35716  0.89784  0.11675  1.0000 -0.5405255522
O   O25       1.0  0.71888  0.10932  0.50976  1.0000 -0.576995809
O   O26       1.0  0.10932  0.71888  0.49024  1.0000 -0.576995809
O   O27       1.0  0.21888  0.60932  0.99024  1.0000 -0.576995809
O   O28       1.0  0.60932  0.21888  0.00976  1.0000 -0.576995809
O   O29       1.0  0.84321  0.31339  0.55102  1.0000 -0.5405255522
O   O30       1.0  0.31339  0.84321  0.44898  1.0000 -0.5405255522
O   O31       1.0  0.34321  0.81339  0.94898  1.0000 -0.5405255522
O   O32       1.0  0.81339  0.34321  0.05102  1.0000 -0.5405255522
