# DDEC6 charges by PACMAN v1.1 (https://github.com/mtap-research/PACMAN-charge/)
data_2017[Ag][nan]3[ASR]1
_chemical_formula_sum              "Ag96 H576 C576 N96 O192 F192"
_cell_length_a       30.8865
_cell_length_b       30.8865
_cell_length_c       30.8865
_cell_angle_alpha    108.227
_cell_angle_beta     108.227
_cell_angle_gamma    108.227

_symmetry_space_group_name_H-M    "P 1"
_symmetry_Int_Tables_number       1

loop_
  _symmetry_equiv_pos_as_xyz
  'x, y, z'

loop_
  _atom_site_type_symbol
  _atom_site_label
  _atom_site_symmetry_multiplicity
  _atom_site_fract_x
  _atom_site_fract_y
  _atom_site_fract_z
  _atom_site_occupancy
  _atom_site_charge
Ag  Ag1       1.0  0.62774  0.92591  0.27596  1.0000 0.3602277662
Ag  Ag2       1.0  0.60953  0.25873  0.41195  1.0000 0.3674333966
Ag  Ag3       1.0  0.25802  0.90927  0.11329  1.0000 0.3602277662
Ag  Ag4       1.0  0.53378  0.83173  0.19386  1.0000 0.44179937
Ag  Ag5       1.0  0.48526  0.78226  0.07177  1.0000 0.4609912897
Ag  Ag6       1.0  0.52166  0.16499  0.32125  1.0000 0.4126754429
Ag  Ag7       1.0  0.72480  0.00935  0.36588  1.0000 0.4285204287
Ag  Ag8       1.0  0.46328  0.04785  0.26001  1.0000 0.4609912897
Ag  Ag9       1.0  0.33581  0.99813  0.21520  1.0000 0.4609912897
Ag  Ag10      1.0  0.70694  0.34875  0.49392  1.0000 0.4233521994
Ag  Ag11      1.0  0.02993  0.94796  0.23888  1.0000 0.4683767302
Ag  Ag12      1.0  0.98076  0.82164  0.18763  1.0000 0.4683767302
Ag  Ag13      1.0  0.14827  0.00636  0.30295  1.0000 0.4285204287
Ag  Ag14      1.0  0.53259  0.44416  0.23935  1.0000 0.4683767302
Ag  Ag15      1.0  0.39524  0.24125  0.09466  1.0000 0.3793709155
Ag  Ag16      1.0  0.48273  0.32060  0.19665  1.0000 0.4468760715
Ag  Ag17      1.0  0.92591  0.27596  0.62774  1.0000 0.3602277662
Ag  Ag18      1.0  0.25873  0.41195  0.60953  1.0000 0.3674333966
Ag  Ag19      1.0  0.90927  0.11329  0.25802  1.0000 0.3602277662
Ag  Ag20      1.0  0.83173  0.19386  0.53378  1.0000 0.44179937
Ag  Ag21      1.0  0.78226  0.07177  0.48526  1.0000 0.4609912897
Ag  Ag22      1.0  0.16499  0.32125  0.52166  1.0000 0.4126754429
Ag  Ag23      1.0  0.00935  0.36588  0.72480  1.0000 0.4285204287
Ag  Ag24      1.0  0.04785  0.26001  0.46328  1.0000 0.4609912897
Ag  Ag25      1.0  0.99813  0.21520  0.33581  1.0000 0.4609912897
Ag  Ag26      1.0  0.34875  0.49392  0.70694  1.0000 0.4233521994
Ag  Ag27      1.0  0.94796  0.23888  0.02993  1.0000 0.4683767302
Ag  Ag28      1.0  0.82164  0.18763  0.98076  1.0000 0.4683767302
Ag  Ag29      1.0  0.00636  0.30295  0.14827  1.0000 0.4285204287
Ag  Ag30      1.0  0.44416  0.23935  0.53259  1.0000 0.4683767302
Ag  Ag31      1.0  0.24125  0.09466  0.39524  1.0000 0.3793709155
Ag  Ag32      1.0  0.32060  0.19665  0.48273  1.0000 0.4468760715
Ag  Ag33      1.0  0.27596  0.62774  0.92591  1.0000 0.3602277662
Ag  Ag34      1.0  0.41195  0.60953  0.25873  1.0000 0.3674333966
Ag  Ag35      1.0  0.11329  0.25802  0.90927  1.0000 0.3602277662
Ag  Ag36      1.0  0.19386  0.53378  0.83173  1.0000 0.44179937
Ag  Ag37      1.0  0.07177  0.48526  0.78226  1.0000 0.4609912897
Ag  Ag38      1.0  0.32125  0.52166  0.16499  1.0000 0.4126754429
Ag  Ag39      1.0  0.36588  0.72480  0.00935  1.0000 0.4285204287
Ag  Ag40      1.0  0.26001  0.46328  0.04785  1.0000 0.4609912897
Ag  Ag41      1.0  0.21520  0.33581  0.99813  1.0000 0.4609912897
Ag  Ag42      1.0  0.49392  0.70694  0.34875  1.0000 0.4233521994
Ag  Ag43      1.0  0.23888  0.02993  0.94796  1.0000 0.4683767302
Ag  Ag44      1.0  0.18763  0.98076  0.82164  1.0000 0.4683767302
Ag  Ag45      1.0  0.30295  0.14827  0.00636  1.0000 0.4285204287
Ag  Ag46      1.0  0.23935  0.53259  0.44416  1.0000 0.4683767302
Ag  Ag47      1.0  0.09466  0.39524  0.24125  1.0000 0.3793709155
Ag  Ag48      1.0  0.19665  0.48273  0.32060  1.0000 0.4468760715
Ag  Ag49      1.0  0.37226  0.07409  0.72404  1.0000 0.3602277662
Ag  Ag50      1.0  0.39047  0.74127  0.58805  1.0000 0.3674333966
Ag  Ag51      1.0  0.74198  0.09073  0.88671  1.0000 0.3602277662
Ag  Ag52      1.0  0.46622  0.16827  0.80614  1.0000 0.44179937
Ag  Ag53      1.0  0.51474  0.21774  0.92823  1.0000 0.4609912897
Ag  Ag54      1.0  0.47834  0.83501  0.67875  1.0000 0.4126754429
Ag  Ag55      1.0  0.27520  0.99065  0.63412  1.0000 0.4285204287
Ag  Ag56      1.0  0.53672  0.95215  0.73999  1.0000 0.4609912897
Ag  Ag57      1.0  0.66419  0.00187  0.78480  1.0000 0.4609912897
Ag  Ag58      1.0  0.29306  0.65125  0.50608  1.0000 0.4233521994
Ag  Ag59      1.0  0.97007  0.05204  0.76112  1.0000 0.4683767302
Ag  Ag60      1.0  0.01924  0.17836  0.81237  1.0000 0.4683767302
Ag  Ag61      1.0  0.85173  0.99364  0.69705  1.0000 0.4285204287
Ag  Ag62      1.0  0.46741  0.55584  0.76065  1.0000 0.4683767302
Ag  Ag63      1.0  0.60476  0.75875  0.90534  1.0000 0.3793709155
Ag  Ag64      1.0  0.51727  0.67940  0.80335  1.0000 0.4468760715
Ag  Ag65      1.0  0.07409  0.72404  0.37226  1.0000 0.3602277662
Ag  Ag66      1.0  0.74127  0.58805  0.39047  1.0000 0.3674333966
Ag  Ag67      1.0  0.09073  0.88671  0.74198  1.0000 0.3602277662
Ag  Ag68      1.0  0.16827  0.80614  0.46622  1.0000 0.44179937
Ag  Ag69      1.0  0.21774  0.92823  0.51474  1.0000 0.4609912897
Ag  Ag70      1.0  0.83501  0.67875  0.47834  1.0000 0.4126754429
Ag  Ag71      1.0  0.99065  0.63412  0.27520  1.0000 0.4285204287
Ag  Ag72      1.0  0.95215  0.73999  0.53672  1.0000 0.4609912897
Ag  Ag73      1.0  0.00187  0.78480  0.66419  1.0000 0.4609912897
Ag  Ag74      1.0  0.65125  0.50608  0.29306  1.0000 0.4233521994
Ag  Ag75      1.0  0.05204  0.76112  0.97007  1.0000 0.4683767302
Ag  Ag76      1.0  0.17836  0.81237  0.01924  1.0000 0.4683767302
Ag  Ag77      1.0  0.99364  0.69705  0.85173  1.0000 0.4285204287
Ag  Ag78      1.0  0.55584  0.76065  0.46741  1.0000 0.4683767302
Ag  Ag79      1.0  0.75875  0.90534  0.60476  1.0000 0.3793709155
Ag  Ag80      1.0  0.67940  0.80335  0.51727  1.0000 0.4468760715
Ag  Ag81      1.0  0.72404  0.37226  0.07409  1.0000 0.3602277662
Ag  Ag82      1.0  0.58805  0.39047  0.74127  1.0000 0.3674333966
Ag  Ag83      1.0  0.88671  0.74198  0.09073  1.0000 0.3602277662
Ag  Ag84      1.0  0.80614  0.46622  0.16827  1.0000 0.44179937
Ag  Ag85      1.0  0.92823  0.51474  0.21774  1.0000 0.4609912897
Ag  Ag86      1.0  0.67875  0.47834  0.83501  1.0000 0.4126754429
Ag  Ag87      1.0  0.63412  0.27520  0.99065  1.0000 0.4285204287
Ag  Ag88      1.0  0.73999  0.53672  0.95215  1.0000 0.4609912897
Ag  Ag89      1.0  0.78480  0.66419  0.00187  1.0000 0.4609912897
Ag  Ag90      1.0  0.50608  0.29306  0.65125  1.0000 0.4233521994
Ag  Ag91      1.0  0.76112  0.97007  0.05204  1.0000 0.4683767302
Ag  Ag92      1.0  0.81237  0.01924  0.17836  1.0000 0.4683767302
Ag  Ag93      1.0  0.69705  0.85173  0.99364  1.0000 0.4285204287
Ag  Ag94      1.0  0.76065  0.46741  0.55584  1.0000 0.4683767302
Ag  Ag95      1.0  0.90534  0.60476  0.75875  1.0000 0.3793709155
Ag  Ag96      1.0  0.80335  0.51727  0.67940  1.0000 0.4468760715
H   H1        1.0  0.46670  0.21300  0.33900  1.0000 0.1411046914
H   H2        1.0  0.44640  0.25270  0.33370  1.0000 0.1499092631
H   H3        1.0  0.41460  0.19500  0.29240  1.0000 0.1589095739
H   H4        1.0  0.56780  0.94910  0.17060  1.0000 0.1684313901
H   H5        1.0  0.60690  0.00730  0.19840  1.0000 0.1499092631
H   H6        1.0  0.62180  0.96920  0.21560  1.0000 0.1411046914
H   H7        1.0  0.31500  0.91040  0.06250  1.0000 0.1411046914
H   H8        1.0  0.34370  0.94010  0.03920  1.0000 0.1499092631
H   H9        1.0  0.35540  0.96810  0.09640  1.0000 0.1684313901
H   H10       1.0  0.19430  0.94710  0.10420  1.0000 0.1411046914
H   H11       1.0  0.17730  0.98630  0.09160  1.0000 0.1499092631
H   H12       1.0  0.14950  0.92870  0.05070  1.0000 0.1684313901
H   H13       1.0  0.60570  0.70500  0.95830  1.0000 0.1411046914
H   H14       1.0  0.58390  0.68290  0.99050  1.0000 0.1499092631
H   H15       1.0  0.54920  0.66190  0.93190  1.0000 0.1684313901
H   H16       1.0  0.61700  0.21050  0.47650  1.0000 0.1499092631
H   H17       1.0  0.58430  0.17780  0.49510  1.0000 0.1499092631
H   H18       1.0  0.56500  0.16180  0.43650  1.0000 0.1684313901
H   H19       1.0  0.56160  0.81920  0.90920  1.0000 0.1411046914
H   H20       1.0  0.52170  0.83500  0.92190  1.0000 0.1499092631
H   H21       1.0  0.58000  0.86610  0.96120  1.0000 0.1684313901
H   H22       1.0  0.57060  0.31840  0.41890  1.0000 0.1411046914
H   H23       1.0  0.52020  0.32230  0.41530  1.0000 0.1499092631
H   H24       1.0  0.57160  0.35820  0.46600  1.0000 0.1684313901
H   H25       1.0  0.42560  0.80440  0.22710  1.0000 0.1589095739
H   H26       1.0  0.46270  0.84940  0.28240  1.0000 0.1589095739
H   H27       1.0  0.47600  0.84800  0.23720  1.0000 0.1411046914
H   H28       1.0  0.55170  0.19790  0.55200  1.0000 0.1499092631
H   H29       1.0  0.50710  0.15220  0.49980  1.0000 0.1499092631
H   H30       1.0  0.49500  0.18860  0.53730  1.0000 0.1499092631
H   H31       1.0  0.45290  0.79870  0.33780  1.0000 0.1589095739
H   H32       1.0  0.40920  0.76460  0.28150  1.0000 0.1499092631
H   H33       1.0  0.42910  0.73890  0.31430  1.0000 0.1499092631
H   H34       1.0  0.56790  0.06860  0.21750  1.0000 0.1589095739
H   H35       1.0  0.52840  0.01490  0.17060  1.0000 0.1499092631
H   H36       1.0  0.50940  0.04730  0.20310  1.0000 0.1411046914
H   H37       1.0  0.18960  0.04290  0.05060  1.0000 0.1589095739
H   H38       1.0  0.18550  0.03150  0.99590  1.0000 0.1499092631
H   H39       1.0  0.14760  0.99050  0.00340  1.0000 0.1499092631
H   H40       1.0  0.56020  0.17010  0.25420  1.0000 0.1499092631
H   H41       1.0  0.58400  0.20560  0.23240  1.0000 0.1411046914
H   H42       1.0  0.60520  0.22520  0.29180  1.0000 0.1684313901
H   H43       1.0  0.49910  0.34570  0.50810  1.0000 0.1589095739
H   H44       1.0  0.46280  0.31120  0.44930  1.0000 0.1499092631
H   H45       1.0  0.44990  0.29550  0.48900  1.0000 0.1499092631
H   H46       1.0  0.59370  0.79530  0.22200  1.0000 0.1411046914
H   H47       1.0  0.61940  0.77740  0.26070  1.0000 0.1589095739
H   H48       1.0  0.57460  0.73670  0.20610  1.0000 0.1499092631
H   H49       1.0  0.49840  0.69260  0.03390  1.0000 0.1589095739
H   H50       1.0  0.53930  0.67830  0.02260  1.0000 0.1411046914
H   H51       1.0  0.55660  0.72710  0.07230  1.0000 0.1589095739
H   H52       1.0  0.54780  0.68720  0.30040  1.0000 0.1411046914
H   H53       1.0  0.56850  0.69260  0.26110  1.0000 0.1499092631
H   H54       1.0  0.60030  0.73350  0.31890  1.0000 0.1589095739
H   H55       1.0  0.49530  0.84520  0.03080  1.0000 0.1499092631
H   H56       1.0  0.51740  0.86770  0.99910  1.0000 0.1499092631
H   H57       1.0  0.46350  0.82000  0.97110  1.0000 0.1589095739
H   H58       1.0  0.58910  0.28430  0.22090  1.0000 0.1589095739
H   H59       1.0  0.55120  0.22870  0.17670  1.0000 0.1589095739
H   H60       1.0  0.53820  0.27420  0.17810  1.0000 0.1411046914
H   H61       1.0  0.44680  0.31680  0.27070  1.0000 0.1589095739
H   H62       1.0  0.40360  0.26610  0.22210  1.0000 0.1589095739
H   H63       1.0  0.41340  0.27140  0.27690  1.0000 0.1411046914
H   H64       1.0  0.60560  0.97230  0.36850  1.0000 0.1589095739
H   H65       1.0  0.54838  0.95372  0.35910  1.0000 0.1499092631
H   H66       1.0  0.56350  0.91780  0.32500  1.0000 0.1411046914
H   H67       1.0  0.46770  0.97280  0.31810  1.0000 0.1589095739
H   H68       1.0  0.52060  0.00300  0.36730  1.0000 0.1499092631
H   H69       1.0  0.49700  0.03270  0.34260  1.0000 0.1589095739
H   H70       1.0  0.33050  0.96460  0.98500  1.0000 0.1499092631
H   H71       1.0  0.29730  0.98390  0.95390  1.0000 0.1499092631
H   H72       1.0  0.34480  0.02290  0.00720  1.0000 0.1589095739
H   H73       1.0  0.08720  0.70800  0.25810  1.0000 0.1684313901
H   H74       1.0  0.06230  0.68710  0.19860  1.0000 0.1411046914
H   H75       1.0  0.04150  0.65290  0.22270  1.0000 0.1499092631
H   H76       1.0  0.89480  0.67010  0.25710  1.0000 0.1589095739
H   H77       1.0  0.92190  0.72730  0.29880  1.0000 0.1499092631
H   H78       1.0  0.94580  0.69060  0.30620  1.0000 0.1411046914
H   H79       1.0  0.92900  0.80200  0.23530  1.0000 0.1499092631
H   H80       1.0  0.91340  0.77410  0.26650  1.0000 0.1499092631
H   H81       1.0  0.88330  0.74680  0.20660  1.0000 0.1684313901
H   H82       1.0  0.03030  0.77290  0.16280  1.0000 0.1411046914
H   H83       1.0  0.04240  0.72630  0.15590  1.0000 0.1499092631
H   H84       1.0  0.07900  0.77880  0.20510  1.0000 0.1589095739
H   H85       1.0  0.20740  0.95990  0.33270  1.0000 0.1411046914
H   H86       1.0  0.23660  0.92960  0.31670  1.0000 0.1589095739
H   H87       1.0  0.17890  0.91030  0.28030  1.0000 0.1589095739
H   H88       1.0  0.28790  0.09450  0.22950  1.0000 0.1589095739
H   H89       1.0  0.23720  0.05530  0.17900  1.0000 0.1499092631
H   H90       1.0  0.28670  0.04770  0.18900  1.0000 0.1411046914
H   H91       1.0  0.29840  0.92750  0.23780  1.0000 0.1499092631
H   H92       1.0  0.25520  0.89680  0.24840  1.0000 0.1589095739
H   H93       1.0  0.30650  0.94250  0.29420  1.0000 0.1589095739
H   H94       1.0  0.16660  0.05210  0.21680  1.0000 0.1589095739
H   H95       1.0  0.22150  0.09840  0.25210  1.0000 0.1499092631
H   H96       1.0  0.18780  0.07690  0.27640  1.0000 0.1499092631
H   H97       1.0  0.21300  0.33900  0.46670  1.0000 0.1411046914
H   H98       1.0  0.25270  0.33370  0.44640  1.0000 0.1499092631
H   H99       1.0  0.19500  0.29240  0.41460  1.0000 0.1589095739
H   H100      1.0  0.94910  0.17060  0.56780  1.0000 0.1684313901
H   H101      1.0  0.00730  0.19840  0.60690  1.0000 0.1499092631
H   H102      1.0  0.96920  0.21560  0.62180  1.0000 0.1411046914
H   H103      1.0  0.91040  0.06250  0.31500  1.0000 0.1411046914
H   H104      1.0  0.94010  0.03920  0.34370  1.0000 0.1499092631
H   H105      1.0  0.96810  0.09640  0.35540  1.0000 0.1684313901
H   H106      1.0  0.94710  0.10420  0.19430  1.0000 0.1411046914
H   H107      1.0  0.98630  0.09160  0.17730  1.0000 0.1499092631
H   H108      1.0  0.92870  0.05070  0.14950  1.0000 0.1684313901
H   H109      1.0  0.70500  0.95830  0.60570  1.0000 0.1411046914
H   H110      1.0  0.68290  0.99050  0.58390  1.0000 0.1499092631
H   H111      1.0  0.66190  0.93190  0.54920  1.0000 0.1684313901
H   H112      1.0  0.21050  0.47650  0.61700  1.0000 0.1499092631
H   H113      1.0  0.17780  0.49510  0.58430  1.0000 0.1499092631
H   H114      1.0  0.16180  0.43650  0.56500  1.0000 0.1684313901
H   H115      1.0  0.81920  0.90920  0.56160  1.0000 0.1411046914
H   H116      1.0  0.83500  0.92190  0.52170  1.0000 0.1499092631
H   H117      1.0  0.86610  0.96120  0.58000  1.0000 0.1684313901
H   H118      1.0  0.31840  0.41890  0.57060  1.0000 0.1411046914
H   H119      1.0  0.32230  0.41530  0.52020  1.0000 0.1499092631
H   H120      1.0  0.35820  0.46600  0.57160  1.0000 0.1684313901
H   H121      1.0  0.80440  0.22710  0.42560  1.0000 0.1589095739
H   H122      1.0  0.84940  0.28240  0.46270  1.0000 0.1589095739
H   H123      1.0  0.84800  0.23720  0.47600  1.0000 0.1411046914
H   H124      1.0  0.19790  0.55200  0.55170  1.0000 0.1499092631
H   H125      1.0  0.15220  0.49980  0.50710  1.0000 0.1499092631
H   H126      1.0  0.18860  0.53730  0.49500  1.0000 0.1499092631
H   H127      1.0  0.79870  0.33780  0.45290  1.0000 0.1589095739
H   H128      1.0  0.76460  0.28150  0.40920  1.0000 0.1499092631
H   H129      1.0  0.73890  0.31430  0.42910  1.0000 0.1499092631
H   H130      1.0  0.06860  0.21750  0.56790  1.0000 0.1589095739
H   H131      1.0  0.01490  0.17060  0.52840  1.0000 0.1499092631
H   H132      1.0  0.04730  0.20310  0.50940  1.0000 0.1411046914
H   H133      1.0  0.04290  0.05060  0.18960  1.0000 0.1589095739
H   H134      1.0  0.03150  0.99590  0.18550  1.0000 0.1499092631
H   H135      1.0  0.99050  0.00340  0.14760  1.0000 0.1499092631
H   H136      1.0  0.17010  0.25420  0.56020  1.0000 0.1499092631
H   H137      1.0  0.20560  0.23240  0.58400  1.0000 0.1411046914
H   H138      1.0  0.22520  0.29180  0.60520  1.0000 0.1684313901
H   H139      1.0  0.34570  0.50810  0.49910  1.0000 0.1589095739
H   H140      1.0  0.31120  0.44930  0.46280  1.0000 0.1499092631
H   H141      1.0  0.29550  0.48900  0.44990  1.0000 0.1499092631
H   H142      1.0  0.79530  0.22200  0.59370  1.0000 0.1411046914
H   H143      1.0  0.77740  0.26070  0.61940  1.0000 0.1589095739
H   H144      1.0  0.73670  0.20610  0.57460  1.0000 0.1499092631
H   H145      1.0  0.69260  0.03390  0.49840  1.0000 0.1589095739
H   H146      1.0  0.67830  0.02260  0.53930  1.0000 0.1411046914
H   H147      1.0  0.72710  0.07230  0.55660  1.0000 0.1589095739
H   H148      1.0  0.68720  0.30040  0.54780  1.0000 0.1411046914
H   H149      1.0  0.69260  0.26110  0.56850  1.0000 0.1499092631
H   H150      1.0  0.73350  0.31890  0.60030  1.0000 0.1589095739
H   H151      1.0  0.84520  0.03080  0.49530  1.0000 0.1499092631
H   H152      1.0  0.86770  0.99910  0.51740  1.0000 0.1499092631
H   H153      1.0  0.82000  0.97110  0.46350  1.0000 0.1589095739
H   H154      1.0  0.28430  0.22090  0.58910  1.0000 0.1589095739
H   H155      1.0  0.22870  0.17670  0.55120  1.0000 0.1589095739
H   H156      1.0  0.27420  0.17810  0.53820  1.0000 0.1411046914
H   H157      1.0  0.31680  0.27070  0.44680  1.0000 0.1499092631
H   H158      1.0  0.26610  0.22210  0.40360  1.0000 0.1589095739
H   H159      1.0  0.27140  0.27690  0.41340  1.0000 0.1411046914
H   H160      1.0  0.97230  0.36850  0.60560  1.0000 0.1589095739
H   H161      1.0  0.95372  0.35910  0.54838  1.0000 0.1499092631
H   H162      1.0  0.91780  0.32500  0.56350  1.0000 0.1411046914
H   H163      1.0  0.97280  0.31810  0.46770  1.0000 0.1589095739
H   H164      1.0  0.00300  0.36730  0.52060  1.0000 0.1499092631
H   H165      1.0  0.03270  0.34260  0.49700  1.0000 0.1589095739
H   H166      1.0  0.96460  0.98500  0.33050  1.0000 0.1499092631
H   H167      1.0  0.98390  0.95390  0.29730  1.0000 0.1499092631
H   H168      1.0  0.02290  0.00720  0.34480  1.0000 0.1589095739
H   H169      1.0  0.70800  0.25810  0.08720  1.0000 0.1684313901
H   H170      1.0  0.68710  0.19860  0.06230  1.0000 0.1411046914
H   H171      1.0  0.65290  0.22270  0.04150  1.0000 0.1499092631
H   H172      1.0  0.67010  0.25710  0.89480  1.0000 0.1589095739
H   H173      1.0  0.72730  0.29880  0.92190  1.0000 0.1499092631
H   H174      1.0  0.69060  0.30620  0.94580  1.0000 0.1411046914
H   H175      1.0  0.80200  0.23530  0.92900  1.0000 0.1499092631
H   H176      1.0  0.77410  0.26650  0.91340  1.0000 0.1499092631
H   H177      1.0  0.74680  0.20660  0.88330  1.0000 0.1684313901
H   H178      1.0  0.77290  0.16280  0.03030  1.0000 0.1411046914
H   H179      1.0  0.72630  0.15590  0.04240  1.0000 0.1499092631
H   H180      1.0  0.77880  0.20510  0.07900  1.0000 0.1589095739
H   H181      1.0  0.95990  0.33270  0.20740  1.0000 0.1411046914
H   H182      1.0  0.92960  0.31670  0.23660  1.0000 0.1499092631
H   H183      1.0  0.91030  0.28030  0.17890  1.0000 0.1589095739
H   H184      1.0  0.09450  0.22950  0.28790  1.0000 0.1589095739
H   H185      1.0  0.05530  0.17900  0.23720  1.0000 0.1499092631
H   H186      1.0  0.04770  0.18900  0.28670  1.0000 0.1411046914
H   H187      1.0  0.92750  0.23780  0.29840  1.0000 0.1499092631
H   H188      1.0  0.89680  0.24840  0.25520  1.0000 0.1589095739
H   H189      1.0  0.94250  0.29420  0.30650  1.0000 0.1589095739
H   H190      1.0  0.05210  0.21680  0.16660  1.0000 0.1589095739
H   H191      1.0  0.09840  0.25210  0.22150  1.0000 0.1499092631
H   H192      1.0  0.07690  0.27640  0.18780  1.0000 0.1499092631
H   H193      1.0  0.33900  0.46670  0.21300  1.0000 0.1411046914
H   H194      1.0  0.33370  0.44640  0.25270  1.0000 0.1499092631
H   H195      1.0  0.29240  0.41460  0.19500  1.0000 0.1589095739
H   H196      1.0  0.17060  0.56780  0.94910  1.0000 0.1684313901
H   H197      1.0  0.19840  0.60690  0.00730  1.0000 0.1499092631
H   H198      1.0  0.21560  0.62180  0.96920  1.0000 0.1411046914
H   H199      1.0  0.06250  0.31500  0.91040  1.0000 0.1411046914
H   H200      1.0  0.03920  0.34370  0.94010  1.0000 0.1499092631
H   H201      1.0  0.09640  0.35540  0.96810  1.0000 0.1684313901
H   H202      1.0  0.10420  0.19430  0.94710  1.0000 0.1411046914
H   H203      1.0  0.09160  0.17730  0.98630  1.0000 0.1499092631
H   H204      1.0  0.05070  0.14950  0.92870  1.0000 0.1684313901
H   H205      1.0  0.95830  0.60570  0.70500  1.0000 0.1411046914
H   H206      1.0  0.99050  0.58390  0.68290  1.0000 0.1499092631
H   H207      1.0  0.93190  0.54920  0.66190  1.0000 0.1684313901
H   H208      1.0  0.47650  0.61700  0.21050  1.0000 0.1499092631
H   H209      1.0  0.49510  0.58430  0.17780  1.0000 0.1499092631
H   H210      1.0  0.43650  0.56500  0.16180  1.0000 0.1684313901
H   H211      1.0  0.90920  0.56160  0.81920  1.0000 0.1411046914
H   H212      1.0  0.92190  0.52170  0.83500  1.0000 0.1499092631
H   H213      1.0  0.96120  0.58000  0.86610  1.0000 0.1684313901
H   H214      1.0  0.41890  0.57060  0.31840  1.0000 0.1411046914
H   H215      1.0  0.41530  0.52020  0.32230  1.0000 0.1499092631
H   H216      1.0  0.46600  0.57160  0.35820  1.0000 0.1684313901
H   H217      1.0  0.22710  0.42560  0.80440  1.0000 0.1589095739
H   H218      1.0  0.28240  0.46270  0.84940  1.0000 0.1589095739
H   H219      1.0  0.23720  0.47600  0.84800  1.0000 0.1411046914
H   H220      1.0  0.55200  0.55170  0.19790  1.0000 0.1499092631
H   H221      1.0  0.49980  0.50710  0.15220  1.0000 0.1499092631
H   H222      1.0  0.53730  0.49500  0.18860  1.0000 0.1499092631
H   H223      1.0  0.33780  0.45290  0.79870  1.0000 0.1589095739
H   H224      1.0  0.28150  0.40920  0.76460  1.0000 0.1499092631
H   H225      1.0  0.31430  0.42910  0.73890  1.0000 0.1499092631
H   H226      1.0  0.21750  0.56790  0.06860  1.0000 0.1589095739
H   H227      1.0  0.17060  0.52840  0.01490  1.0000 0.1499092631
H   H228      1.0  0.20310  0.50940  0.04730  1.0000 0.1411046914
H   H229      1.0  0.05060  0.18960  0.04290  1.0000 0.1589095739
H   H230      1.0  0.99590  0.18550  0.03150  1.0000 0.1499092631
H   H231      1.0  0.00340  0.14760  0.99050  1.0000 0.1499092631
H   H232      1.0  0.25420  0.56020  0.17010  1.0000 0.1499092631
H   H233      1.0  0.23240  0.58400  0.20560  1.0000 0.1411046914
H   H234      1.0  0.29180  0.60520  0.22520  1.0000 0.1684313901
H   H235      1.0  0.50810  0.49910  0.34570  1.0000 0.1589095739
H   H236      1.0  0.44930  0.46280  0.31120  1.0000 0.1499092631
H   H237      1.0  0.48900  0.44990  0.29550  1.0000 0.1499092631
H   H238      1.0  0.22200  0.59370  0.79530  1.0000 0.1411046914
H   H239      1.0  0.26070  0.61940  0.77740  1.0000 0.1589095739
H   H240      1.0  0.20610  0.57460  0.73670  1.0000 0.1499092631
H   H241      1.0  0.03390  0.49840  0.69260  1.0000 0.1589095739
H   H242      1.0  0.02260  0.53930  0.67830  1.0000 0.1411046914
H   H243      1.0  0.07230  0.55660  0.72710  1.0000 0.1589095739
H   H244      1.0  0.30040  0.54780  0.68720  1.0000 0.1411046914
H   H245      1.0  0.26110  0.56850  0.69260  1.0000 0.1499092631
H   H246      1.0  0.31890  0.60030  0.73350  1.0000 0.1589095739
H   H247      1.0  0.03080  0.49530  0.84520  1.0000 0.1499092631
H   H248      1.0  0.99910  0.51740  0.86770  1.0000 0.1499092631
H   H249      1.0  0.97110  0.46350  0.82000  1.0000 0.1589095739
H   H250      1.0  0.22090  0.58910  0.28430  1.0000 0.1589095739
H   H251      1.0  0.17670  0.55120  0.22870  1.0000 0.1589095739
H   H252      1.0  0.17810  0.53820  0.27420  1.0000 0.1411046914
H   H253      1.0  0.27070  0.44680  0.31680  1.0000 0.1499092631
H   H254      1.0  0.22210  0.40360  0.26610  1.0000 0.1589095739
H   H255      1.0  0.27690  0.41340  0.27140  1.0000 0.1411046914
H   H256      1.0  0.36850  0.60560  0.97230  1.0000 0.1589095739
H   H257      1.0  0.35910  0.54838  0.95372  1.0000 0.1499092631
H   H258      1.0  0.32500  0.56350  0.91780  1.0000 0.1411046914
H   H259      1.0  0.31810  0.46770  0.97280  1.0000 0.1589095739
H   H260      1.0  0.36730  0.52060  0.00300  1.0000 0.1499092631
H   H261      1.0  0.34260  0.49700  0.03270  1.0000 0.1589095739
H   H262      1.0  0.98500  0.33050  0.96460  1.0000 0.1499092631
H   H263      1.0  0.95390  0.29730  0.98390  1.0000 0.1499092631
H   H264      1.0  0.00720  0.34480  0.02290  1.0000 0.1589095739
H   H265      1.0  0.25810  0.08720  0.70800  1.0000 0.1684313901
H   H266      1.0  0.19860  0.06230  0.68710  1.0000 0.1411046914
H   H267      1.0  0.22270  0.04150  0.65290  1.0000 0.1499092631
H   H268      1.0  0.25710  0.89480  0.67010  1.0000 0.1589095739
H   H269      1.0  0.29880  0.92190  0.72730  1.0000 0.1499092631
H   H270      1.0  0.30620  0.94580  0.69060  1.0000 0.1411046914
H   H271      1.0  0.23530  0.92900  0.80200  1.0000 0.1499092631
H   H272      1.0  0.26650  0.91340  0.77410  1.0000 0.1499092631
H   H273      1.0  0.20660  0.88330  0.74680  1.0000 0.1684313901
H   H274      1.0  0.16280  0.03030  0.77290  1.0000 0.1411046914
H   H275      1.0  0.15590  0.04240  0.72630  1.0000 0.1499092631
H   H276      1.0  0.20510  0.07900  0.77880  1.0000 0.1589095739
H   H277      1.0  0.33270  0.20740  0.95990  1.0000 0.1411046914
H   H278      1.0  0.31670  0.23660  0.92960  1.0000 0.1499092631
H   H279      1.0  0.28030  0.17890  0.91030  1.0000 0.1589095739
H   H280      1.0  0.22950  0.28790  0.09450  1.0000 0.1589095739
H   H281      1.0  0.17900  0.23720  0.05530  1.0000 0.1499092631
H   H282      1.0  0.18900  0.28670  0.04770  1.0000 0.1411046914
H   H283      1.0  0.23780  0.29840  0.92750  1.0000 0.1499092631
H   H284      1.0  0.24840  0.25520  0.89680  1.0000 0.1589095739
H   H285      1.0  0.29420  0.30650  0.94250  1.0000 0.1499092631
H   H286      1.0  0.21680  0.16660  0.05210  1.0000 0.1589095739
H   H287      1.0  0.25210  0.22150  0.09840  1.0000 0.1499092631
H   H288      1.0  0.27640  0.18780  0.07690  1.0000 0.1499092631
H   H289      1.0  0.53330  0.78700  0.66100  1.0000 0.1411046914
H   H290      1.0  0.55360  0.74730  0.66630  1.0000 0.1499092631
H   H291      1.0  0.58540  0.80500  0.70760  1.0000 0.1589095739
H   H292      1.0  0.43220  0.05090  0.82940  1.0000 0.1684313901
H   H293      1.0  0.39310  0.99270  0.80160  1.0000 0.1499092631
H   H294      1.0  0.37820  0.03080  0.78440  1.0000 0.1411046914
H   H295      1.0  0.68500  0.08960  0.93750  1.0000 0.1411046914
H   H296      1.0  0.65630  0.05990  0.96080  1.0000 0.1499092631
H   H297      1.0  0.64460  0.03190  0.90360  1.0000 0.1684313901
H   H298      1.0  0.80570  0.05290  0.89580  1.0000 0.1411046914
H   H299      1.0  0.82270  0.01370  0.90840  1.0000 0.1499092631
H   H300      1.0  0.85050  0.07130  0.94930  1.0000 0.1684313901
H   H301      1.0  0.39430  0.29500  0.04170  1.0000 0.1411046914
H   H302      1.0  0.41610  0.31710  0.00950  1.0000 0.1499092631
H   H303      1.0  0.45080  0.33810  0.06810  1.0000 0.1684313901
H   H304      1.0  0.38300  0.78950  0.52350  1.0000 0.1499092631
H   H305      1.0  0.41570  0.82220  0.50490  1.0000 0.1499092631
H   H306      1.0  0.43500  0.83820  0.56350  1.0000 0.1684313901
H   H307      1.0  0.43840  0.18080  0.09080  1.0000 0.1411046914
H   H308      1.0  0.47830  0.16500  0.07810  1.0000 0.1499092631
H   H309      1.0  0.42000  0.13390  0.03880  1.0000 0.1684313901
H   H310      1.0  0.42940  0.68160  0.58110  1.0000 0.1411046914
H   H311      1.0  0.47980  0.67770  0.58470  1.0000 0.1499092631
H   H312      1.0  0.42840  0.64180  0.53400  1.0000 0.1684313901
H   H313      1.0  0.57440  0.19560  0.77290  1.0000 0.1589095739
H   H314      1.0  0.53730  0.15060  0.71760  1.0000 0.1589095739
H   H315      1.0  0.52400  0.15200  0.76280  1.0000 0.1411046914
H   H316      1.0  0.44830  0.80210  0.44800  1.0000 0.1499092631
H   H317      1.0  0.49290  0.84780  0.50020  1.0000 0.1499092631
H   H318      1.0  0.50500  0.81140  0.46270  1.0000 0.1499092631
H   H319      1.0  0.54710  0.20130  0.66220  1.0000 0.1589095739
H   H320      1.0  0.59080  0.23540  0.71850  1.0000 0.1499092631
H   H321      1.0  0.57090  0.26110  0.68570  1.0000 0.1499092631
H   H322      1.0  0.43210  0.93140  0.78250  1.0000 0.1589095739
H   H323      1.0  0.47160  0.98510  0.82940  1.0000 0.1499092631
H   H324      1.0  0.49060  0.95270  0.79690  1.0000 0.1411046914
H   H325      1.0  0.81040  0.95710  0.94940  1.0000 0.1589095739
H   H326      1.0  0.81450  0.96850  0.00410  1.0000 0.1499092631
H   H327      1.0  0.85240  0.00950  0.99660  1.0000 0.1499092631
H   H328      1.0  0.43980  0.82990  0.74580  1.0000 0.1499092631
H   H329      1.0  0.41600  0.79440  0.76760  1.0000 0.1411046914
H   H330      1.0  0.39480  0.77480  0.70820  1.0000 0.1684313901
H   H331      1.0  0.50090  0.65430  0.49190  1.0000 0.1589095739
H   H332      1.0  0.53720  0.68880  0.55070  1.0000 0.1499092631
H   H333      1.0  0.55010  0.70450  0.51100  1.0000 0.1499092631
H   H334      1.0  0.40630  0.20470  0.77800  1.0000 0.1411046914
H   H335      1.0  0.38060  0.22260  0.73930  1.0000 0.1589095739
H   H336      1.0  0.42540  0.26330  0.79390  1.0000 0.1499092631
H   H337      1.0  0.50160  0.30740  0.96610  1.0000 0.1589095739
H   H338      1.0  0.46070  0.32170  0.97740  1.0000 0.1411046914
H   H339      1.0  0.44340  0.27290  0.92770  1.0000 0.1589095739
H   H340      1.0  0.45220  0.31280  0.69960  1.0000 0.1411046914
H   H341      1.0  0.43150  0.30740  0.73890  1.0000 0.1499092631
H   H342      1.0  0.39970  0.26650  0.68110  1.0000 0.1589095739
H   H343      1.0  0.50470  0.15480  0.96920  1.0000 0.1499092631
H   H344      1.0  0.48260  0.13230  0.00090  1.0000 0.1499092631
H   H345      1.0  0.53650  0.18000  0.02890  1.0000 0.1589095739
H   H346      1.0  0.41090  0.71570  0.77910  1.0000 0.1589095739
H   H347      1.0  0.44880  0.77130  0.82330  1.0000 0.1589095739
H   H348      1.0  0.46180  0.72580  0.82190  1.0000 0.1411046914
H   H349      1.0  0.55320  0.68320  0.72930  1.0000 0.1499092631
H   H350      1.0  0.59640  0.73390  0.77790  1.0000 0.1589095739
H   H351      1.0  0.58660  0.72860  0.72310  1.0000 0.1411046914
H   H352      1.0  0.39440  0.02770  0.63150  1.0000 0.1589095739
H   H353      1.0  0.45162  0.04628  0.64090  1.0000 0.1499092631
H   H354      1.0  0.43650  0.08220  0.67500  1.0000 0.1411046914
H   H355      1.0  0.53230  0.02720  0.68190  1.0000 0.1589095739
H   H356      1.0  0.47940  0.99700  0.63270  1.0000 0.1499092631
H   H357      1.0  0.50300  0.96730  0.65740  1.0000 0.1589095739
H   H358      1.0  0.66950  0.03540  0.01500  1.0000 0.1499092631
H   H359      1.0  0.70270  0.01610  0.04610  1.0000 0.1499092631
H   H360      1.0  0.65520  0.97710  0.99280  1.0000 0.1589095739
H   H361      1.0  0.91280  0.29200  0.74190  1.0000 0.1684313901
H   H362      1.0  0.93770  0.31290  0.80140  1.0000 0.1411046914
H   H363      1.0  0.95850  0.34710  0.77730  1.0000 0.1499092631
H   H364      1.0  0.10520  0.32990  0.74290  1.0000 0.1589095739
H   H365      1.0  0.07810  0.27270  0.70120  1.0000 0.1499092631
H   H366      1.0  0.05420  0.30940  0.69380  1.0000 0.1411046914
H   H367      1.0  0.07100  0.19800  0.76470  1.0000 0.1499092631
H   H368      1.0  0.08660  0.22590  0.73350  1.0000 0.1499092631
H   H369      1.0  0.11670  0.25320  0.79340  1.0000 0.1684313901
H   H370      1.0  0.96970  0.22710  0.83720  1.0000 0.1411046914
H   H371      1.0  0.95760  0.27370  0.84410  1.0000 0.1499092631
H   H372      1.0  0.92100  0.22120  0.79490  1.0000 0.1589095739
H   H373      1.0  0.79260  0.04010  0.66730  1.0000 0.1411046914
H   H374      1.0  0.76340  0.07040  0.68330  1.0000 0.1499092631
H   H375      1.0  0.82110  0.08970  0.71970  1.0000 0.1589095739
H   H376      1.0  0.71210  0.90550  0.77050  1.0000 0.1589095739
H   H377      1.0  0.76280  0.94470  0.82100  1.0000 0.1499092631
H   H378      1.0  0.71330  0.95230  0.81100  1.0000 0.1411046914
H   H379      1.0  0.70160  0.07250  0.76220  1.0000 0.1499092631
H   H380      1.0  0.74480  0.10320  0.75160  1.0000 0.1589095739
H   H381      1.0  0.69350  0.05750  0.70580  1.0000 0.1499092631
H   H382      1.0  0.83340  0.94790  0.78320  1.0000 0.1589095739
H   H383      1.0  0.77850  0.90160  0.74790  1.0000 0.1499092631
H   H384      1.0  0.81220  0.92310  0.72360  1.0000 0.1499092631
H   H385      1.0  0.78700  0.66100  0.53330  1.0000 0.1411046914
H   H386      1.0  0.74730  0.66630  0.55360  1.0000 0.1499092631
H   H387      1.0  0.80500  0.70760  0.58540  1.0000 0.1589095739
H   H388      1.0  0.05090  0.82940  0.43220  1.0000 0.1684313901
H   H389      1.0  0.99270  0.80160  0.39310  1.0000 0.1499092631
H   H390      1.0  0.03080  0.78440  0.37820  1.0000 0.1411046914
H   H391      1.0  0.08960  0.93750  0.68500  1.0000 0.1411046914
H   H392      1.0  0.05990  0.96080  0.65630  1.0000 0.1499092631
H   H393      1.0  0.03190  0.90360  0.64460  1.0000 0.1684313901
H   H394      1.0  0.05290  0.89580  0.80570  1.0000 0.1411046914
H   H395      1.0  0.01370  0.90840  0.82270  1.0000 0.1499092631
H   H396      1.0  0.07130  0.94930  0.85050  1.0000 0.1684313901
H   H397      1.0  0.29500  0.04170  0.39430  1.0000 0.1411046914
H   H398      1.0  0.31710  0.00950  0.41610  1.0000 0.1499092631
H   H399      1.0  0.33810  0.06810  0.45080  1.0000 0.1684313901
H   H400      1.0  0.78950  0.52350  0.38300  1.0000 0.1499092631
H   H401      1.0  0.82220  0.50490  0.41570  1.0000 0.1499092631
H   H402      1.0  0.83820  0.56350  0.43500  1.0000 0.1684313901
H   H403      1.0  0.18080  0.09080  0.43840  1.0000 0.1411046914
H   H404      1.0  0.16500  0.07810  0.47830  1.0000 0.1499092631
H   H405      1.0  0.13390  0.03880  0.42000  1.0000 0.1684313901
H   H406      1.0  0.68160  0.58110  0.42940  1.0000 0.1411046914
H   H407      1.0  0.67770  0.58470  0.47980  1.0000 0.1499092631
H   H408      1.0  0.64180  0.53400  0.42840  1.0000 0.1684313901
H   H409      1.0  0.19560  0.77290  0.57440  1.0000 0.1589095739
H   H410      1.0  0.15060  0.71760  0.53730  1.0000 0.1589095739
H   H411      1.0  0.15200  0.76280  0.52400  1.0000 0.1411046914
H   H412      1.0  0.80210  0.44800  0.44830  1.0000 0.1499092631
H   H413      1.0  0.84780  0.50020  0.49290  1.0000 0.1499092631
H   H414      1.0  0.81140  0.46270  0.50500  1.0000 0.1499092631
H   H415      1.0  0.20130  0.66220  0.54710  1.0000 0.1589095739
H   H416      1.0  0.23540  0.71850  0.59080  1.0000 0.1499092631
H   H417      1.0  0.26110  0.68570  0.57090  1.0000 0.1499092631
H   H418      1.0  0.93140  0.78250  0.43210  1.0000 0.1589095739
H   H419      1.0  0.98510  0.82940  0.47160  1.0000 0.1499092631
H   H420      1.0  0.95270  0.79690  0.49060  1.0000 0.1411046914
H   H421      1.0  0.95710  0.94940  0.81040  1.0000 0.1589095739
H   H422      1.0  0.96850  0.00410  0.81450  1.0000 0.1499092631
H   H423      1.0  0.00950  0.99660  0.85240  1.0000 0.1499092631
H   H424      1.0  0.82990  0.74580  0.43980  1.0000 0.1499092631
H   H425      1.0  0.79440  0.76760  0.41600  1.0000 0.1411046914
H   H426      1.0  0.77480  0.70820  0.39480  1.0000 0.1684313901
H   H427      1.0  0.65430  0.49190  0.50090  1.0000 0.1589095739
H   H428      1.0  0.68880  0.55070  0.53720  1.0000 0.1499092631
H   H429      1.0  0.70450  0.51100  0.55010  1.0000 0.1499092631
H   H430      1.0  0.20470  0.77800  0.40630  1.0000 0.1411046914
H   H431      1.0  0.22260  0.73930  0.38060  1.0000 0.1589095739
H   H432      1.0  0.26330  0.79390  0.42540  1.0000 0.1499092631
H   H433      1.0  0.30740  0.96610  0.50160  1.0000 0.1589095739
H   H434      1.0  0.32170  0.97740  0.46070  1.0000 0.1411046914
H   H435      1.0  0.27290  0.92770  0.44340  1.0000 0.1589095739
H   H436      1.0  0.31280  0.69960  0.45220  1.0000 0.1411046914
H   H437      1.0  0.30740  0.73890  0.43150  1.0000 0.1499092631
H   H438      1.0  0.26650  0.68110  0.39970  1.0000 0.1589095739
H   H439      1.0  0.15480  0.96920  0.50470  1.0000 0.1499092631
H   H440      1.0  0.13230  0.00090  0.48260  1.0000 0.1499092631
H   H441      1.0  0.18000  0.02890  0.53650  1.0000 0.1589095739
H   H442      1.0  0.71570  0.77910  0.41090  1.0000 0.1589095739
H   H443      1.0  0.77130  0.82330  0.44880  1.0000 0.1589095739
H   H444      1.0  0.72580  0.82190  0.46180  1.0000 0.1411046914
H   H445      1.0  0.68320  0.72930  0.55320  1.0000 0.1499092631
H   H446      1.0  0.73390  0.77790  0.59640  1.0000 0.1589095739
H   H447      1.0  0.72860  0.72310  0.58660  1.0000 0.1411046914
H   H448      1.0  0.02770  0.63150  0.39440  1.0000 0.1589095739
H   H449      1.0  0.04628  0.64090  0.45162  1.0000 0.1499092631
H   H450      1.0  0.08220  0.67500  0.43650  1.0000 0.1411046914
H   H451      1.0  0.02720  0.68190  0.53230  1.0000 0.1589095739
H   H452      1.0  0.99700  0.63270  0.47940  1.0000 0.1499092631
H   H453      1.0  0.96730  0.65740  0.50300  1.0000 0.1589095739
H   H454      1.0  0.03540  0.01500  0.66950  1.0000 0.1499092631
H   H455      1.0  0.01610  0.04610  0.70270  1.0000 0.1499092631
H   H456      1.0  0.97710  0.99280  0.65520  1.0000 0.1684313901
H   H457      1.0  0.29200  0.74190  0.91280  1.0000 0.1684313901
H   H458      1.0  0.31290  0.80140  0.93770  1.0000 0.1411046914
H   H459      1.0  0.34710  0.77730  0.95850  1.0000 0.1499092631
H   H460      1.0  0.32990  0.74290  0.10520  1.0000 0.1589095739
H   H461      1.0  0.27270  0.70120  0.07810  1.0000 0.1499092631
H   H462      1.0  0.30940  0.69380  0.05420  1.0000 0.1411046914
H   H463      1.0  0.19800  0.76470  0.07100  1.0000 0.1499092631
H   H464      1.0  0.22590  0.73350  0.08660  1.0000 0.1499092631
H   H465      1.0  0.25320  0.79340  0.11670  1.0000 0.1684313901
H   H466      1.0  0.22710  0.83720  0.96970  1.0000 0.1411046914
H   H467      1.0  0.27370  0.84410  0.95760  1.0000 0.1499092631
H   H468      1.0  0.22120  0.79490  0.92100  1.0000 0.1589095739
H   H469      1.0  0.04010  0.66730  0.79260  1.0000 0.1411046914
H   H470      1.0  0.07040  0.68330  0.76340  1.0000 0.1589095739
H   H471      1.0  0.08970  0.71970  0.82110  1.0000 0.1589095739
H   H472      1.0  0.90550  0.77050  0.71210  1.0000 0.1589095739
H   H473      1.0  0.94470  0.82100  0.76280  1.0000 0.1499092631
H   H474      1.0  0.95230  0.81100  0.71330  1.0000 0.1411046914
H   H475      1.0  0.07250  0.76220  0.70160  1.0000 0.1499092631
H   H476      1.0  0.10320  0.75160  0.74480  1.0000 0.1589095739
H   H477      1.0  0.05750  0.70580  0.69350  1.0000 0.1589095739
H   H478      1.0  0.94790  0.78320  0.83340  1.0000 0.1589095739
H   H479      1.0  0.90160  0.74790  0.77850  1.0000 0.1499092631
H   H480      1.0  0.92310  0.72360  0.81220  1.0000 0.1499092631
H   H481      1.0  0.66100  0.53330  0.78700  1.0000 0.1411046914
H   H482      1.0  0.66630  0.55360  0.74730  1.0000 0.1499092631
H   H483      1.0  0.70760  0.58540  0.80500  1.0000 0.1589095739
H   H484      1.0  0.82940  0.43220  0.05090  1.0000 0.1684313901
H   H485      1.0  0.80160  0.39310  0.99270  1.0000 0.1499092631
H   H486      1.0  0.78440  0.37820  0.03080  1.0000 0.1411046914
H   H487      1.0  0.93750  0.68500  0.08960  1.0000 0.1411046914
H   H488      1.0  0.96080  0.65630  0.05990  1.0000 0.1499092631
H   H489      1.0  0.90360  0.64460  0.03190  1.0000 0.1684313901
H   H490      1.0  0.89580  0.80570  0.05290  1.0000 0.1411046914
H   H491      1.0  0.90840  0.82270  0.01370  1.0000 0.1499092631
H   H492      1.0  0.94930  0.85050  0.07130  1.0000 0.1684313901
H   H493      1.0  0.04170  0.39430  0.29500  1.0000 0.1411046914
H   H494      1.0  0.00950  0.41610  0.31710  1.0000 0.1499092631
H   H495      1.0  0.06810  0.45080  0.33810  1.0000 0.1684313901
H   H496      1.0  0.52350  0.38300  0.78950  1.0000 0.1499092631
H   H497      1.0  0.50490  0.41570  0.82220  1.0000 0.1499092631
H   H498      1.0  0.56350  0.43500  0.83820  1.0000 0.1684313901
H   H499      1.0  0.09080  0.43840  0.18080  1.0000 0.1411046914
H   H500      1.0  0.07810  0.47830  0.16500  1.0000 0.1499092631
H   H501      1.0  0.03880  0.42000  0.13390  1.0000 0.1684313901
H   H502      1.0  0.58110  0.42940  0.68160  1.0000 0.1411046914
H   H503      1.0  0.58470  0.47980  0.67770  1.0000 0.1499092631
H   H504      1.0  0.53400  0.42840  0.64180  1.0000 0.1684313901
H   H505      1.0  0.77290  0.57440  0.19560  1.0000 0.1589095739
H   H506      1.0  0.71760  0.53730  0.15060  1.0000 0.1589095739
H   H507      1.0  0.76280  0.52400  0.15200  1.0000 0.1411046914
H   H508      1.0  0.44800  0.44830  0.80210  1.0000 0.1499092631
H   H509      1.0  0.50020  0.49290  0.84780  1.0000 0.1499092631
H   H510      1.0  0.46270  0.50500  0.81140  1.0000 0.1499092631
H   H511      1.0  0.66220  0.54710  0.20130  1.0000 0.1589095739
H   H512      1.0  0.71850  0.59080  0.23540  1.0000 0.1499092631
H   H513      1.0  0.68570  0.57090  0.26110  1.0000 0.1499092631
H   H514      1.0  0.78250  0.43210  0.93140  1.0000 0.1589095739
H   H515      1.0  0.82940  0.47160  0.98510  1.0000 0.1499092631
H   H516      1.0  0.79690  0.49060  0.95270  1.0000 0.1411046914
H   H517      1.0  0.94940  0.81040  0.95710  1.0000 0.1589095739
H   H518      1.0  0.00410  0.81450  0.96850  1.0000 0.1499092631
H   H519      1.0  0.99660  0.85240  0.00950  1.0000 0.1499092631
H   H520      1.0  0.74580  0.43980  0.82990  1.0000 0.1499092631
H   H521      1.0  0.76760  0.41600  0.79440  1.0000 0.1411046914
H   H522      1.0  0.70820  0.39480  0.77480  1.0000 0.1684313901
H   H523      1.0  0.49190  0.50090  0.65430  1.0000 0.1589095739
H   H524      1.0  0.55070  0.53720  0.68880  1.0000 0.1499092631
H   H525      1.0  0.51100  0.55010  0.70450  1.0000 0.1499092631
H   H526      1.0  0.77800  0.40630  0.20470  1.0000 0.1411046914
H   H527      1.0  0.73930  0.38060  0.22260  1.0000 0.1589095739
H   H528      1.0  0.79390  0.42540  0.26330  1.0000 0.1499092631
H   H529      1.0  0.96610  0.50160  0.30740  1.0000 0.1589095739
H   H530      1.0  0.97740  0.46070  0.32170  1.0000 0.1411046914
H   H531      1.0  0.92770  0.44340  0.27290  1.0000 0.1589095739
H   H532      1.0  0.69960  0.45220  0.31280  1.0000 0.1411046914
H   H533      1.0  0.73890  0.43150  0.30740  1.0000 0.1499092631
H   H534      1.0  0.68110  0.39970  0.26650  1.0000 0.1589095739
H   H535      1.0  0.96920  0.50470  0.15480  1.0000 0.1499092631
H   H536      1.0  0.00090  0.48260  0.13230  1.0000 0.1499092631
H   H537      1.0  0.02890  0.53650  0.18000  1.0000 0.1589095739
H   H538      1.0  0.77910  0.41090  0.71570  1.0000 0.1589095739
H   H539      1.0  0.82330  0.44880  0.77130  1.0000 0.1589095739
H   H540      1.0  0.82190  0.46180  0.72580  1.0000 0.1411046914
H   H541      1.0  0.72930  0.55320  0.68320  1.0000 0.1499092631
H   H542      1.0  0.77790  0.59640  0.73390  1.0000 0.1589095739
H   H543      1.0  0.72310  0.58660  0.72860  1.0000 0.1411046914
H   H544      1.0  0.63150  0.39440  0.02770  1.0000 0.1589095739
H   H545      1.0  0.64090  0.45162  0.04628  1.0000 0.1499092631
H   H546      1.0  0.67500  0.43650  0.08220  1.0000 0.1411046914
H   H547      1.0  0.68190  0.53230  0.02720  1.0000 0.1589095739
H   H548      1.0  0.63270  0.47940  0.99700  1.0000 0.1499092631
H   H549      1.0  0.65740  0.50300  0.96730  1.0000 0.1589095739
H   H550      1.0  0.01500  0.66950  0.03540  1.0000 0.1499092631
H   H551      1.0  0.04610  0.70270  0.01610  1.0000 0.1499092631
H   H552      1.0  0.99280  0.65520  0.97710  1.0000 0.1589095739
H   H553      1.0  0.74190  0.91280  0.29200  1.0000 0.1684313901
H   H554      1.0  0.80140  0.93770  0.31290  1.0000 0.1411046914
H   H555      1.0  0.77730  0.95850  0.34710  1.0000 0.1499092631
H   H556      1.0  0.74290  0.10520  0.32990  1.0000 0.1589095739
H   H557      1.0  0.70120  0.07810  0.27270  1.0000 0.1499092631
H   H558      1.0  0.69380  0.05420  0.30940  1.0000 0.1411046914
H   H559      1.0  0.76470  0.07100  0.19800  1.0000 0.1499092631
H   H560      1.0  0.73350  0.08660  0.22590  1.0000 0.1499092631
H   H561      1.0  0.79340  0.11670  0.25320  1.0000 0.1684313901
H   H562      1.0  0.83720  0.96970  0.22710  1.0000 0.1411046914
H   H563      1.0  0.84410  0.95760  0.27370  1.0000 0.1499092631
H   H564      1.0  0.79490  0.92100  0.22120  1.0000 0.1589095739
H   H565      1.0  0.66730  0.79260  0.04010  1.0000 0.1411046914
H   H566      1.0  0.68330  0.76340  0.07040  1.0000 0.1589095739
H   H567      1.0  0.71970  0.82110  0.08970  1.0000 0.1589095739
H   H568      1.0  0.77050  0.71210  0.90550  1.0000 0.1589095739
H   H569      1.0  0.82100  0.76280  0.94470  1.0000 0.1499092631
H   H570      1.0  0.81100  0.71330  0.95230  1.0000 0.1411046914
H   H571      1.0  0.76220  0.70160  0.07250  1.0000 0.1499092631
H   H572      1.0  0.75160  0.74480  0.10320  1.0000 0.1589095739
H   H573      1.0  0.70580  0.69350  0.05750  1.0000 0.1589095739
H   H574      1.0  0.78320  0.83340  0.94790  1.0000 0.1589095739
H   H575      1.0  0.74790  0.77850  0.90160  1.0000 0.1499092631
H   H576      1.0  0.72360  0.81220  0.92310  1.0000 0.1499092631
C   C1        1.0  0.28810  0.95820  0.04670  1.0000 0.2204509097
C   C2        1.0  0.44850  0.22260  0.31520  1.0000 -0.4888067528
C   C3        1.0  0.59430  0.97730  0.20290  1.0000 -0.4819852376
C   C4        1.0  0.56050  0.97420  0.30610  1.0000 0.2118274078
C   C5        1.0  0.32920  0.94290  0.06260  1.0000 -0.4819852376
C   C6        1.0  0.18170  0.95650  0.07770  1.0000 -0.4888067528
C   C7        1.0  0.57580  0.69190  0.96290  1.0000 -0.4687001341
C   C8        1.0  0.43190  0.09940  0.34130  1.0000 0.4683767302
C   C9        1.0  0.57320  0.98690  0.24020  1.0000 0.2118274078
C   C10       1.0  0.52230  0.80170  0.99300  1.0000 0.2118274078
C   C11       1.0  0.67420  0.90910  0.37000  1.0000 0.4609912897
C   C12       1.0  0.53950  0.28510  0.45690  1.0000 0.2263708289
C   C13       1.0  0.39740  0.10310  0.14740  1.0000 0.2784544022
C   C14       1.0  0.64270  0.38060  0.36110  1.0000 0.2699277261
C   C15       1.0  0.58290  0.19020  0.47000  1.0000 -0.4888067528
C   C16       1.0  0.68080  0.92050  0.08440  1.0000 0.4764725145
C   C17       1.0  0.62870  0.87470  0.17420  1.0000 0.4683767302
C   C18       1.0  0.39850  0.10400  0.36890  1.0000 0.2699277261
C   C19       1.0  0.65290  0.91690  0.11890  1.0000 0.2784544022
C   C20       1.0  0.58950  0.42170  0.32310  1.0000 0.4683767302
C   C21       1.0  0.52790  0.99720  0.30250  1.0000 0.2204509097
C   C22       1.0  0.53590  0.73760  0.00810  1.0000 0.2006048252
C   C23       1.0  0.41520  0.88400  0.13030  1.0000 0.2609465851
C   C24       1.0  0.36130  0.90970  0.17200  1.0000 0.4683767302
C   C25       1.0  0.55280  0.83270  0.93600  1.0000 -0.4888067528
C   C26       1.0  0.50690  0.28170  0.47970  1.0000 0.1837978166
C   C27       1.0  0.65250  0.87540  0.13650  1.0000 0.2699277261
C   C28       1.0  0.61240  0.83790  0.43820  1.0000 0.4876488026
C   C29       1.0  0.39710  0.88440  0.16990  1.0000 0.2609465851
C   C30       1.0  0.54360  0.01320  0.23900  1.0000 0.2118274078
C   C31       1.0  0.21810  0.99440  0.02740  1.0000 0.2118274078
C   C32       1.0  0.44910  0.85620  0.12510  1.0000 0.4876488026
C   C33       1.0  0.70040  0.09700  0.43340  1.0000 0.4683767302
C   C34       1.0  0.55160  0.32460  0.43740  1.0000 -0.4888067528
C   C35       1.0  0.66667  0.87600  0.39810  1.0000 0.2784544022
C   C36       1.0  0.46080  0.82760  0.25120  1.0000 -0.4888067528
C   C37       1.0  0.28340  0.98130  0.01360  1.0000 0.2204509097
C   C38       1.0  0.21950  0.96780  0.05680  1.0000 0.2204509097
C   C39       1.0  0.47650  0.23350  0.28470  1.0000 0.1895374069
C   C40       1.0  0.60110  0.39690  0.35940  1.0000 0.2609465851
C   C41       1.0  0.51920  0.18680  0.52420  1.0000 -0.4604762529
C   C42       1.0  0.55560  0.22190  0.47340  1.0000 0.2006048252
C   C43       1.0  0.47880  0.76850  0.28780  1.0000 0.2118274078
C   C44       1.0  0.65070  0.35210  0.39390  1.0000 0.4609912897
C   C45       1.0  0.43880  0.76750  0.30720  1.0000 -0.45388822
C   C46       1.0  0.53670  0.03820  0.20440  1.0000 -0.4687001341
C   C47       1.0  0.66330  0.12130  0.42310  1.0000 0.2784544022
C   C48       1.0  0.48930  0.79740  0.26220  1.0000 0.2006048252
C   C49       1.0  0.53760  0.22510  0.25900  1.0000 0.2204509097
C   C50       1.0  0.34240  0.14810  0.39170  1.0000 0.4683767302
C   C51       1.0  0.62750  0.16600  0.37280  1.0000 0.4609912897
C   C52       1.0  0.53910  0.74230  0.28040  1.0000 0.2006048252
C   C53       1.0  0.52500  0.22060  0.49900  1.0000 0.2204509097
C   C54       1.0  0.18200  0.01680  0.01860  1.0000 -0.4687001341
C   C55       1.0  0.57500  0.20470  0.25940  1.0000 -0.4604762529
C   C56       1.0  0.52650  0.25070  0.22980  1.0000 0.2118274078
C   C57       1.0  0.47710  0.31120  0.48180  1.0000 -0.45388822
C   C58       1.0  0.40860  0.07980  0.18560  1.0000 0.4609912897
C   C59       1.0  0.65840  0.13500  0.37770  1.0000 0.2784544022
C   C60       1.0  0.58790  0.76990  0.23400  1.0000 -0.4604762529
C   C61       1.0  0.46650  0.25930  0.25720  1.0000 0.1895374069
C   C62       1.0  0.53220  0.70600  0.03680  1.0000 -0.4604762529
C   C63       1.0  0.56640  0.71110  0.29120  1.0000 -0.4978075051
C   C64       1.0  0.54940  0.77030  0.25470  1.0000 0.2006048252
C   C65       1.0  0.49740  0.83680  0.99900  1.0000 -0.4687001341
C   C66       1.0  0.55370  0.26040  0.19860  1.0000 -0.4888067528
C   C67       1.0  0.42930  0.28020  0.25670  1.0000 -0.4604762529
C   C68       1.0  0.54570  0.79770  0.96070  1.0000 0.2204509097
C   C69       1.0  0.35500  0.11860  0.14370  1.0000 0.2699277261
C   C70       1.0  0.57040  0.95260  0.34300  1.0000 -0.4819852376
C   C71       1.0  0.55770  0.73190  0.97520  1.0000 0.2006048252
C   C72       1.0  0.62350  0.87320  0.41340  1.0000 0.2699277261
C   C73       1.0  0.50080  0.00190  0.33570  1.0000 -0.4687001341
C   C74       1.0  0.31710  0.98890  0.98760  1.0000 -0.4687001341
C   C75       1.0  0.34950  0.14700  0.11030  1.0000 0.4609912897
C   C76       1.0  0.38010  0.14480  0.36690  1.0000 0.2784544022
C   C77       1.0  0.06900  0.89600  0.16870  1.0000 0.4764725145
C   C78       1.0  0.11880  0.84960  0.13650  1.0000 0.2784544022
C   C79       1.0  0.01910  0.70810  0.22920  1.0000 0.2204509097
C   C80       1.0  0.95180  0.74760  0.23270  1.0000 0.2366189039
C   C81       1.0  0.95750  0.71390  0.25440  1.0000 0.2204509097
C   C82       1.0  0.05570  0.68720  0.22700  1.0000 -0.4604762529
C   C83       1.0  0.15540  0.85070  0.11170  1.0000 0.4609912897
C   C84       1.0  0.92730  0.69920  0.28160  1.0000 -0.4978075051
C   C85       1.0  0.91630  0.76950  0.23550  1.0000 -0.4687001341
C   C86       1.0  0.04400  0.75590  0.18020  1.0000 -0.4819852376
C   C87       1.0  0.09940  0.89060  0.13800  1.0000 0.2699277261
C   C88       1.0  0.01340  0.73960  0.20640  1.0000 0.1895374069
C   C89       1.0  0.21100  0.93990  0.30440  1.0000 -0.4819852376
C   C90       1.0  0.22690  0.97190  0.27870  1.0000 0.2006048252
C   C91       1.0  0.26730  0.05920  0.20470  1.0000 -0.4888067528
C   C92       1.0  0.28190  0.93000  0.25960  1.0000 -0.4687001341
C   C93       1.0  0.19670  0.06790  0.24890  1.0000 -0.4604762529
C   C94       1.0  0.21870  0.03170  0.25110  1.0000 0.2118274078
C   C95       1.0  0.25910  0.96670  0.25680  1.0000 0.2118274078
C   C96       1.0  0.25220  0.02810  0.23050  1.0000 0.2118274078
C   C97       1.0  0.95820  0.04670  0.28810  1.0000 0.2204509097
C   C98       1.0  0.22260  0.31520  0.44850  1.0000 -0.4888067528
C   C99       1.0  0.97730  0.20290  0.59430  1.0000 -0.4819852376
C   C100      1.0  0.97420  0.30610  0.56050  1.0000 0.2118274078
C   C101      1.0  0.94290  0.06260  0.32920  1.0000 -0.4819852376
C   C102      1.0  0.95650  0.07770  0.18170  1.0000 -0.4888067528
C   C103      1.0  0.69190  0.96290  0.57580  1.0000 -0.4687001341
C   C104      1.0  0.09940  0.34130  0.43190  1.0000 0.4683767302
C   C105      1.0  0.98690  0.24020  0.57320  1.0000 0.2118274078
C   C106      1.0  0.80170  0.99300  0.52230  1.0000 0.2118274078
C   C107      1.0  0.90910  0.37000  0.67420  1.0000 0.4609912897
C   C108      1.0  0.28510  0.45690  0.53950  1.0000 0.2263708289
C   C109      1.0  0.10310  0.14740  0.39740  1.0000 0.2784544022
C   C110      1.0  0.38060  0.36110  0.64270  1.0000 0.2699277261
C   C111      1.0  0.19020  0.47000  0.58290  1.0000 -0.4819852376
C   C112      1.0  0.92050  0.08440  0.68080  1.0000 0.4764725145
C   C113      1.0  0.87470  0.17420  0.62870  1.0000 0.4683767302
C   C114      1.0  0.10400  0.36890  0.39850  1.0000 0.2699277261
C   C115      1.0  0.91690  0.11890  0.65290  1.0000 0.2784544022
C   C116      1.0  0.42170  0.32310  0.58950  1.0000 0.4683767302
C   C117      1.0  0.99720  0.30250  0.52790  1.0000 0.2204509097
C   C118      1.0  0.73760  0.00810  0.53590  1.0000 0.2006048252
C   C119      1.0  0.88400  0.13030  0.41520  1.0000 0.2609465851
C   C120      1.0  0.90970  0.17200  0.36130  1.0000 0.4683767302
C   C121      1.0  0.83270  0.93600  0.55280  1.0000 -0.4888067528
C   C122      1.0  0.28170  0.47970  0.50690  1.0000 0.1837978166
C   C123      1.0  0.87540  0.13650  0.65250  1.0000 0.2609465851
C   C124      1.0  0.83790  0.43820  0.61240  1.0000 0.4876488026
C   C125      1.0  0.88440  0.16990  0.39710  1.0000 0.2609465851
C   C126      1.0  0.01320  0.23900  0.54360  1.0000 0.2118274078
C   C127      1.0  0.99440  0.02740  0.21810  1.0000 0.2118274078
C   C128      1.0  0.85620  0.12510  0.44910  1.0000 0.4876488026
C   C129      1.0  0.09700  0.43340  0.70040  1.0000 0.4683767302
C   C130      1.0  0.32460  0.43740  0.55160  1.0000 -0.4888067528
C   C131      1.0  0.87600  0.39810  0.66667  1.0000 0.2784544022
C   C132      1.0  0.82760  0.25120  0.46080  1.0000 -0.4888067528
C   C133      1.0  0.98130  0.01360  0.28340  1.0000 0.2204509097
C   C134      1.0  0.96780  0.05680  0.21950  1.0000 0.2204509097
C   C135      1.0  0.23350  0.28470  0.47650  1.0000 0.1895374069
C   C136      1.0  0.39690  0.35940  0.60110  1.0000 0.2609465851
C   C137      1.0  0.18680  0.52420  0.51920  1.0000 -0.4604762529
C   C138      1.0  0.22190  0.47340  0.55560  1.0000 0.2006048252
C   C139      1.0  0.76850  0.28780  0.47880  1.0000 0.2118274078
C   C140      1.0  0.35210  0.39390  0.65070  1.0000 0.4609912897
C   C141      1.0  0.76750  0.30720  0.43880  1.0000 -0.45388822
C   C142      1.0  0.03820  0.20440  0.53670  1.0000 -0.4687001341
C   C143      1.0  0.12130  0.42310  0.66330  1.0000 0.2784544022
C   C144      1.0  0.79740  0.26220  0.48930  1.0000 0.2006048252
C   C145      1.0  0.22510  0.25900  0.53760  1.0000 0.2204509097
C   C146      1.0  0.14810  0.39170  0.34240  1.0000 0.4683767302
C   C147      1.0  0.16600  0.37280  0.62750  1.0000 0.4609912897
C   C148      1.0  0.74230  0.28040  0.53910  1.0000 0.2006048252
C   C149      1.0  0.22060  0.49900  0.52500  1.0000 0.2204509097
C   C150      1.0  0.01680  0.01860  0.18200  1.0000 -0.4687001341
C   C151      1.0  0.20470  0.25940  0.57500  1.0000 -0.4604762529
C   C152      1.0  0.25070  0.22980  0.52650  1.0000 0.2118274078
C   C153      1.0  0.31120  0.48180  0.47710  1.0000 -0.45388822
C   C154      1.0  0.07980  0.18560  0.40860  1.0000 0.4609912897
C   C155      1.0  0.13500  0.37770  0.65840  1.0000 0.2784544022
C   C156      1.0  0.76990  0.23400  0.58790  1.0000 -0.4604762529
C   C157      1.0  0.25930  0.25720  0.46650  1.0000 0.1895374069
C   C158      1.0  0.70600  0.03680  0.53220  1.0000 -0.4604762529
C   C159      1.0  0.71110  0.29120  0.56640  1.0000 -0.4978075051
C   C160      1.0  0.77030  0.25470  0.54940  1.0000 0.2006048252
C   C161      1.0  0.83680  0.99900  0.49740  1.0000 -0.4687001341
C   C162      1.0  0.26040  0.19860  0.55370  1.0000 -0.4888067528
C   C163      1.0  0.28020  0.25670  0.42930  1.0000 -0.4604762529
C   C164      1.0  0.79770  0.96070  0.54570  1.0000 0.2204509097
C   C165      1.0  0.11860  0.14370  0.35500  1.0000 0.2699277261
C   C166      1.0  0.95260  0.34300  0.57040  1.0000 -0.4819852376
C   C167      1.0  0.73190  0.97520  0.55770  1.0000 0.2006048252
C   C168      1.0  0.87320  0.41340  0.62350  1.0000 0.2699277261
C   C169      1.0  0.00190  0.33570  0.50080  1.0000 -0.4687001341
C   C170      1.0  0.98890  0.98760  0.31710  1.0000 -0.4687001341
C   C171      1.0  0.14700  0.11030  0.34950  1.0000 0.4609912897
C   C172      1.0  0.14480  0.36690  0.38010  1.0000 0.2784544022
C   C173      1.0  0.89600  0.16870  0.06900  1.0000 0.4764725145
C   C174      1.0  0.84960  0.13650  0.11880  1.0000 0.2784544022
C   C175      1.0  0.70810  0.22920  0.01910  1.0000 0.2204509097
C   C176      1.0  0.74760  0.23270  0.95180  1.0000 0.2366189039
C   C177      1.0  0.71390  0.25440  0.95750  1.0000 0.2204509097
C   C178      1.0  0.68720  0.22700  0.05570  1.0000 -0.4604762529
C   C179      1.0  0.85070  0.11170  0.15540  1.0000 0.4609912897
C   C180      1.0  0.69920  0.28160  0.92730  1.0000 -0.4978075051
C   C181      1.0  0.76950  0.23550  0.91630  1.0000 -0.4687001341
C   C182      1.0  0.75590  0.18020  0.04400  1.0000 -0.4819852376
C   C183      1.0  0.89060  0.13800  0.09940  1.0000 0.2699277261
C   C184      1.0  0.73960  0.20640  0.01340  1.0000 0.1895374069
C   C185      1.0  0.93990  0.30440  0.21100  1.0000 -0.4819852376
C   C186      1.0  0.97190  0.27870  0.22690  1.0000 0.2006048252
C   C187      1.0  0.05920  0.20470  0.26730  1.0000 -0.4888067528
C   C188      1.0  0.93000  0.25960  0.28190  1.0000 -0.4687001341
C   C189      1.0  0.06790  0.24890  0.19670  1.0000 -0.4604762529
C   C190      1.0  0.03170  0.25110  0.21870  1.0000 0.2118274078
C   C191      1.0  0.96670  0.25680  0.25910  1.0000 0.2118274078
C   C192      1.0  0.02810  0.23050  0.25220  1.0000 0.2118274078
C   C193      1.0  0.04670  0.28810  0.95820  1.0000 0.2204509097
C   C194      1.0  0.31520  0.44850  0.22260  1.0000 -0.4888067528
C   C195      1.0  0.20290  0.59430  0.97730  1.0000 -0.4819852376
C   C196      1.0  0.30610  0.56050  0.97420  1.0000 0.2118274078
C   C197      1.0  0.06260  0.32920  0.94290  1.0000 -0.4819852376
C   C198      1.0  0.07770  0.18170  0.95650  1.0000 -0.4819852376
C   C199      1.0  0.96290  0.57580  0.69190  1.0000 -0.4687001341
C   C200      1.0  0.34130  0.43190  0.09940  1.0000 0.4683767302
C   C201      1.0  0.24020  0.57320  0.98690  1.0000 0.2118274078
C   C202      1.0  0.99300  0.52230  0.80170  1.0000 0.2118274078
C   C203      1.0  0.37000  0.67420  0.90910  1.0000 0.4609912897
C   C204      1.0  0.45690  0.53950  0.28510  1.0000 0.2263708289
C   C205      1.0  0.14740  0.39740  0.10310  1.0000 0.2784544022
C   C206      1.0  0.36110  0.64270  0.38060  1.0000 0.2699277261
C   C207      1.0  0.47000  0.58290  0.19020  1.0000 -0.4888067528
C   C208      1.0  0.08440  0.68080  0.92050  1.0000 0.4764725145
C   C209      1.0  0.17420  0.62870  0.87470  1.0000 0.4683767302
C   C210      1.0  0.36890  0.39850  0.10400  1.0000 0.2699277261
C   C211      1.0  0.11890  0.65290  0.91690  1.0000 0.2784544022
C   C212      1.0  0.32310  0.58950  0.42170  1.0000 0.4683767302
C   C213      1.0  0.30250  0.52790  0.99720  1.0000 0.2204509097
C   C214      1.0  0.00810  0.53590  0.73760  1.0000 0.2006048252
C   C215      1.0  0.13030  0.41520  0.88400  1.0000 0.2609465851
C   C216      1.0  0.17200  0.36130  0.90970  1.0000 0.4683767302
C   C217      1.0  0.93600  0.55280  0.83270  1.0000 -0.4888067528
C   C218      1.0  0.47970  0.50690  0.28170  1.0000 0.1837978166
C   C219      1.0  0.13650  0.65250  0.87540  1.0000 0.2609465851
C   C220      1.0  0.43820  0.61240  0.83790  1.0000 0.4876488026
C   C221      1.0  0.16990  0.39710  0.88440  1.0000 0.2609465851
C   C222      1.0  0.23900  0.54360  0.01320  1.0000 0.2118274078
C   C223      1.0  0.02740  0.21810  0.99440  1.0000 0.2118274078
C   C224      1.0  0.12510  0.44910  0.85620  1.0000 0.4876488026
C   C225      1.0  0.43340  0.70040  0.09700  1.0000 0.4683767302
C   C226      1.0  0.43740  0.55160  0.32460  1.0000 -0.4888067528
C   C227      1.0  0.39810  0.66667  0.87600  1.0000 0.2784544022
C   C228      1.0  0.25120  0.46080  0.82760  1.0000 -0.4888067528
C   C229      1.0  0.01360  0.28340  0.98130  1.0000 0.2204509097
C   C230      1.0  0.05680  0.21950  0.96780  1.0000 0.2204509097
C   C231      1.0  0.28470  0.47650  0.23350  1.0000 0.1895374069
C   C232      1.0  0.35940  0.60110  0.39690  1.0000 0.2609465851
C   C233      1.0  0.52420  0.51920  0.18680  1.0000 -0.4604762529
C   C234      1.0  0.47340  0.55560  0.22190  1.0000 0.2006048252
C   C235      1.0  0.28780  0.47880  0.76850  1.0000 0.2118274078
C   C236      1.0  0.39390  0.65070  0.35210  1.0000 0.4609912897
C   C237      1.0  0.30720  0.43880  0.76750  1.0000 -0.45388822
C   C238      1.0  0.20440  0.53670  0.03820  1.0000 -0.4687001341
C   C239      1.0  0.42310  0.66330  0.12130  1.0000 0.2784544022
C   C240      1.0  0.26220  0.48930  0.79740  1.0000 0.2006048252
C   C241      1.0  0.25900  0.53760  0.22510  1.0000 0.2204509097
C   C242      1.0  0.39170  0.34240  0.14810  1.0000 0.4683767302
C   C243      1.0  0.37280  0.62750  0.16600  1.0000 0.4609912897
C   C244      1.0  0.28040  0.53910  0.74230  1.0000 0.2006048252
C   C245      1.0  0.49900  0.52500  0.22060  1.0000 0.2204509097
C   C246      1.0  0.01860  0.18200  0.01680  1.0000 -0.4687001341
C   C247      1.0  0.25940  0.57500  0.20470  1.0000 -0.4604762529
C   C248      1.0  0.22980  0.52650  0.25070  1.0000 0.2118274078
C   C249      1.0  0.48180  0.47710  0.31120  1.0000 -0.45388822
C   C250      1.0  0.18560  0.40860  0.07980  1.0000 0.4609912897
C   C251      1.0  0.37770  0.65840  0.13500  1.0000 0.2784544022
C   C252      1.0  0.23400  0.58790  0.76990  1.0000 -0.4604762529
C   C253      1.0  0.25720  0.46650  0.25930  1.0000 0.1895374069
C   C254      1.0  0.03680  0.53220  0.70600  1.0000 -0.4604762529
C   C255      1.0  0.29120  0.56640  0.71110  1.0000 -0.4978075051
C   C256      1.0  0.25470  0.54940  0.77030  1.0000 0.2006048252
C   C257      1.0  0.99900  0.49740  0.83680  1.0000 -0.4687001341
C   C258      1.0  0.19860  0.55370  0.26040  1.0000 -0.4888067528
C   C259      1.0  0.25670  0.42930  0.28020  1.0000 -0.4604762529
C   C260      1.0  0.96070  0.54570  0.79770  1.0000 0.2204509097
C   C261      1.0  0.14370  0.35500  0.11860  1.0000 0.2699277261
C   C262      1.0  0.34300  0.57040  0.95260  1.0000 -0.4819852376
C   C263      1.0  0.97520  0.55770  0.73190  1.0000 0.2006048252
C   C264      1.0  0.41340  0.62350  0.87320  1.0000 0.2699277261
C   C265      1.0  0.33570  0.50080  0.00190  1.0000 -0.4687001341
C   C266      1.0  0.98760  0.31710  0.98890  1.0000 -0.4687001341
C   C267      1.0  0.11030  0.34950  0.14700  1.0000 0.4609912897
C   C268      1.0  0.36690  0.38010  0.14480  1.0000 0.2784544022
C   C269      1.0  0.16870  0.06900  0.89600  1.0000 0.4764725145
C   C270      1.0  0.13650  0.11880  0.84960  1.0000 0.2699277261
C   C271      1.0  0.22920  0.01910  0.70810  1.0000 0.2204509097
C   C272      1.0  0.23270  0.95180  0.74760  1.0000 0.2366189039
C   C273      1.0  0.25440  0.95750  0.71390  1.0000 0.2204509097
C   C274      1.0  0.22700  0.05570  0.68720  1.0000 -0.4604762529
C   C275      1.0  0.11170  0.15540  0.85070  1.0000 0.4609912897
C   C276      1.0  0.28160  0.92730  0.69920  1.0000 -0.4978075051
C   C277      1.0  0.23550  0.91630  0.76950  1.0000 -0.4687001341
C   C278      1.0  0.18020  0.04400  0.75590  1.0000 -0.4819852376
C   C279      1.0  0.13800  0.09940  0.89060  1.0000 0.2699277261
C   C280      1.0  0.20640  0.01340  0.73960  1.0000 0.1895374069
C   C281      1.0  0.30440  0.21100  0.93990  1.0000 -0.4819852376
C   C282      1.0  0.27870  0.22690  0.97190  1.0000 0.2006048252
C   C283      1.0  0.20470  0.26730  0.05920  1.0000 -0.4888067528
C   C284      1.0  0.25960  0.28190  0.93000  1.0000 -0.4687001341
C   C285      1.0  0.24890  0.19670  0.06790  1.0000 -0.4604762529
C   C286      1.0  0.25110  0.21870  0.03170  1.0000 0.2118274078
C   C287      1.0  0.25680  0.25910  0.96670  1.0000 0.2118274078
C   C288      1.0  0.23050  0.25220  0.02810  1.0000 0.2118274078
C   C289      1.0  0.71190  0.04180  0.95330  1.0000 0.2204509097
C   C290      1.0  0.55150  0.77740  0.68480  1.0000 -0.4888067528
C   C291      1.0  0.40570  0.02270  0.79710  1.0000 -0.4819852376
C   C292      1.0  0.43950  0.02580  0.69390  1.0000 0.2118274078
C   C293      1.0  0.67080  0.05710  0.93740  1.0000 -0.4819852376
C   C294      1.0  0.81830  0.04350  0.92230  1.0000 -0.4819852376
C   C295      1.0  0.42420  0.30810  0.03710  1.0000 -0.4687001341
C   C296      1.0  0.56810  0.90060  0.65870  1.0000 0.4683767302
C   C297      1.0  0.42680  0.01310  0.75980  1.0000 0.2118274078
C   C298      1.0  0.47770  0.19830  0.00700  1.0000 0.2118274078
C   C299      1.0  0.32580  0.09090  0.63000  1.0000 0.4609912897
C   C300      1.0  0.46050  0.71490  0.54310  1.0000 0.2263708289
C   C301      1.0  0.60260  0.89690  0.85260  1.0000 0.2784544022
C   C302      1.0  0.35730  0.61940  0.63890  1.0000 0.2699277261
C   C303      1.0  0.41710  0.80980  0.53000  1.0000 -0.4888067528
C   C304      1.0  0.31920  0.07950  0.91560  1.0000 0.4764725145
C   C305      1.0  0.37130  0.12530  0.82580  1.0000 0.4683767302
C   C306      1.0  0.60150  0.89600  0.63110  1.0000 0.2699277261
C   C307      1.0  0.34710  0.08310  0.88110  1.0000 0.2784544022
C   C308      1.0  0.41050  0.57830  0.67690  1.0000 0.4683767302
C   C309      1.0  0.47210  0.00280  0.69750  1.0000 0.2204509097
C   C310      1.0  0.46410  0.26240  0.99190  1.0000 0.2006048252
C   C311      1.0  0.58480  0.11600  0.86970  1.0000 0.2609465851
C   C312      1.0  0.63870  0.09030  0.82800  1.0000 0.4683767302
C   C313      1.0  0.44720  0.16730  0.06400  1.0000 -0.4888067528
C   C314      1.0  0.49310  0.71830  0.52030  1.0000 0.1837978166
C   C315      1.0  0.34750  0.12460  0.86350  1.0000 0.2609465851
C   C316      1.0  0.38760  0.16210  0.56180  1.0000 0.4876488026
C   C317      1.0  0.60290  0.11560  0.83010  1.0000 0.2609465851
C   C318      1.0  0.45640  0.98680  0.76100  1.0000 0.2118274078
C   C319      1.0  0.78190  0.00560  0.97260  1.0000 0.2118274078
C   C320      1.0  0.55090  0.14380  0.87490  1.0000 0.4876488026
C   C321      1.0  0.29960  0.90300  0.56660  1.0000 0.4683767302
C   C322      1.0  0.44840  0.67540  0.56260  1.0000 -0.4888067528
C   C323      1.0  0.33340  0.12400  0.60190  1.0000 0.2784544022
C   C324      1.0  0.53920  0.17240  0.74880  1.0000 -0.4888067528
C   C325      1.0  0.71660  0.01870  0.98640  1.0000 0.2204509097
C   C326      1.0  0.78050  0.03220  0.94320  1.0000 0.2204509097
C   C327      1.0  0.52350  0.76650  0.71530  1.0000 0.1895374069
C   C328      1.0  0.39890  0.60310  0.64060  1.0000 0.2609465851
C   C329      1.0  0.48080  0.81320  0.47580  1.0000 -0.4604762529
C   C330      1.0  0.44440  0.77810  0.52660  1.0000 0.2006048252
C   C331      1.0  0.52120  0.23150  0.71220  1.0000 0.2118274078
C   C332      1.0  0.34930  0.64790  0.60610  1.0000 0.4609912897
C   C333      1.0  0.56120  0.23250  0.69280  1.0000 -0.45388822
C   C334      1.0  0.46330  0.96180  0.79560  1.0000 -0.4687001341
C   C335      1.0  0.33670  0.87870  0.57690  1.0000 0.2784544022
C   C336      1.0  0.51070  0.20260  0.73780  1.0000 0.2006048252
C   C337      1.0  0.46240  0.77490  0.74100  1.0000 0.2204509097
C   C338      1.0  0.65760  0.85190  0.60830  1.0000 0.4683767302
C   C339      1.0  0.37250  0.83400  0.62720  1.0000 0.4609912897
C   C340      1.0  0.46090  0.25770  0.71960  1.0000 0.2006048252
C   C341      1.0  0.47500  0.77940  0.50100  1.0000 0.2204509097
C   C342      1.0  0.81800  0.98320  0.98140  1.0000 -0.4687001341
C   C343      1.0  0.42500  0.79530  0.74060  1.0000 -0.4604762529
C   C344      1.0  0.47350  0.74930  0.77020  1.0000 0.2118274078
C   C345      1.0  0.52290  0.68880  0.51820  1.0000 -0.45388822
C   C346      1.0  0.59140  0.92020  0.81440  1.0000 0.4609912897
C   C347      1.0  0.34160  0.86500  0.62230  1.0000 0.2784544022
C   C348      1.0  0.41210  0.23010  0.76600  1.0000 -0.4604762529
C   C349      1.0  0.53350  0.74070  0.74280  1.0000 0.1895374069
C   C350      1.0  0.46780  0.29400  0.96320  1.0000 -0.4604762529
C   C351      1.0  0.43360  0.28890  0.70880  1.0000 -0.4978075051
C   C352      1.0  0.45060  0.22970  0.74530  1.0000 0.2006048252
C   C353      1.0  0.50260  0.16320  0.00100  1.0000 -0.4687001341
C   C354      1.0  0.44630  0.73960  0.80140  1.0000 -0.4888067528
C   C355      1.0  0.57070  0.71980  0.74330  1.0000 -0.4604762529
C   C356      1.0  0.45430  0.20230  0.03930  1.0000 0.2204509097
C   C357      1.0  0.64500  0.88140  0.85630  1.0000 0.2699277261
C   C358      1.0  0.42960  0.04740  0.65700  1.0000 -0.4819852376
C   C359      1.0  0.44230  0.26810  0.02480  1.0000 0.2006048252
C   C360      1.0  0.37650  0.12680  0.58660  1.0000 0.2699277261
C   C361      1.0  0.49920  0.99810  0.66430  1.0000 -0.4687001341
C   C362      1.0  0.68290  0.01110  0.01240  1.0000 -0.4687001341
C   C363      1.0  0.65050  0.85300  0.88970  1.0000 0.4609912897
C   C364      1.0  0.61990  0.85520  0.63310  1.0000 0.2784544022
C   C365      1.0  0.93100  0.10400  0.83130  1.0000 0.4764725145
C   C366      1.0  0.88120  0.15040  0.86350  1.0000 0.2699277261
C   C367      1.0  0.98090  0.29190  0.77080  1.0000 0.2204509097
C   C368      1.0  0.04820  0.25240  0.76730  1.0000 0.2366189039
C   C369      1.0  0.04250  0.28610  0.74560  1.0000 0.2204509097
C   C370      1.0  0.94430  0.31280  0.77300  1.0000 -0.4604762529
C   C371      1.0  0.84460  0.14930  0.88830  1.0000 0.4609912897
C   C372      1.0  0.07270  0.30080  0.71840  1.0000 -0.4978075051
C   C373      1.0  0.08370  0.23050  0.76450  1.0000 -0.4687001341
C   C374      1.0  0.95600  0.24410  0.81980  1.0000 -0.4819852376
C   C375      1.0  0.90060  0.10940  0.86200  1.0000 0.2699277261
C   C376      1.0  0.98660  0.26040  0.79360  1.0000 0.1895374069
C   C377      1.0  0.78900  0.06010  0.69560  1.0000 -0.4819852376
C   C378      1.0  0.77310  0.02810  0.72130  1.0000 0.2006048252
C   C379      1.0  0.73270  0.94080  0.79530  1.0000 -0.4888067528
C   C380      1.0  0.71810  0.07000  0.74040  1.0000 -0.4687001341
C   C381      1.0  0.80330  0.93210  0.75110  1.0000 -0.4604762529
C   C382      1.0  0.78130  0.96830  0.74890  1.0000 0.2118274078
C   C383      1.0  0.74090  0.03330  0.74320  1.0000 0.2118274078
C   C384      1.0  0.74780  0.97190  0.76950  1.0000 0.2118274078
C   C385      1.0  0.04180  0.95330  0.71190  1.0000 0.2204509097
C   C386      1.0  0.77740  0.68480  0.55150  1.0000 -0.4888067528
C   C387      1.0  0.02270  0.79710  0.40570  1.0000 -0.4819852376
C   C388      1.0  0.02580  0.69390  0.43950  1.0000 0.2118274078
C   C389      1.0  0.05710  0.93740  0.67080  1.0000 -0.4819852376
C   C390      1.0  0.04350  0.92230  0.81830  1.0000 -0.4819852376
C   C391      1.0  0.30810  0.03710  0.42420  1.0000 -0.4687001341
C   C392      1.0  0.90060  0.65870  0.56810  1.0000 0.4683767302
C   C393      1.0  0.01310  0.75980  0.42680  1.0000 0.2118274078
C   C394      1.0  0.19830  0.00700  0.47770  1.0000 0.2118274078
C   C395      1.0  0.09090  0.63000  0.32580  1.0000 0.4609912897
C   C396      1.0  0.71490  0.54310  0.46050  1.0000 0.2263708289
C   C397      1.0  0.89690  0.85260  0.60260  1.0000 0.2784544022
C   C398      1.0  0.61940  0.63890  0.35730  1.0000 0.2699277261
C   C399      1.0  0.80980  0.53000  0.41710  1.0000 -0.4888067528
C   C400      1.0  0.07950  0.91560  0.31920  1.0000 0.4764725145
C   C401      1.0  0.12530  0.82580  0.37130  1.0000 0.4683767302
C   C402      1.0  0.89600  0.63110  0.60150  1.0000 0.2699277261
C   C403      1.0  0.08310  0.88110  0.34710  1.0000 0.2784544022
C   C404      1.0  0.57830  0.67690  0.41050  1.0000 0.4683767302
C   C405      1.0  0.00280  0.69750  0.47210  1.0000 0.2204509097
C   C406      1.0  0.26240  0.99190  0.46410  1.0000 0.2006048252
C   C407      1.0  0.11600  0.86970  0.58480  1.0000 0.2609465851
C   C408      1.0  0.09030  0.82800  0.63870  1.0000 0.4683767302
C   C409      1.0  0.16730  0.06400  0.44720  1.0000 -0.4888067528
C   C410      1.0  0.71830  0.52030  0.49310  1.0000 0.1837978166
C   C411      1.0  0.12460  0.86350  0.34750  1.0000 0.2699277261
C   C412      1.0  0.16210  0.56180  0.38760  1.0000 0.4876488026
C   C413      1.0  0.11560  0.83010  0.60290  1.0000 0.2609465851
C   C414      1.0  0.98680  0.76100  0.45640  1.0000 0.2118274078
C   C415      1.0  0.00560  0.97260  0.78190  1.0000 0.2118274078
C   C416      1.0  0.14380  0.87490  0.55090  1.0000 0.4876488026
C   C417      1.0  0.90300  0.56660  0.29960  1.0000 0.4683767302
C   C418      1.0  0.67540  0.56260  0.44840  1.0000 -0.4888067528
C   C419      1.0  0.12400  0.60190  0.33340  1.0000 0.2784544022
C   C420      1.0  0.17240  0.74880  0.53920  1.0000 -0.4888067528
C   C421      1.0  0.01870  0.98640  0.71660  1.0000 0.2204509097
C   C422      1.0  0.03220  0.94320  0.78050  1.0000 0.2204509097
C   C423      1.0  0.76650  0.71530  0.52350  1.0000 0.1895374069
C   C424      1.0  0.60310  0.64060  0.39890  1.0000 0.2609465851
C   C425      1.0  0.81320  0.47580  0.48080  1.0000 -0.4604762529
C   C426      1.0  0.77810  0.52660  0.44440  1.0000 0.2006048252
C   C427      1.0  0.23150  0.71220  0.52120  1.0000 0.2118274078
C   C428      1.0  0.64790  0.60610  0.34930  1.0000 0.4609912897
C   C429      1.0  0.23250  0.69280  0.56120  1.0000 -0.45388822
C   C430      1.0  0.96180  0.79560  0.46330  1.0000 -0.4687001341
C   C431      1.0  0.87870  0.57690  0.33670  1.0000 0.2784544022
C   C432      1.0  0.20260  0.73780  0.51070  1.0000 0.2006048252
C   C433      1.0  0.77490  0.74100  0.46240  1.0000 0.2204509097
C   C434      1.0  0.85190  0.60830  0.65760  1.0000 0.4683767302
C   C435      1.0  0.83400  0.62720  0.37250  1.0000 0.4609912897
C   C436      1.0  0.25770  0.71960  0.46090  1.0000 0.2006048252
C   C437      1.0  0.77940  0.50100  0.47500  1.0000 0.2204509097
C   C438      1.0  0.98320  0.98140  0.81800  1.0000 -0.4687001341
C   C439      1.0  0.79530  0.74060  0.42500  1.0000 -0.4604762529
C   C440      1.0  0.74930  0.77020  0.47350  1.0000 0.2118274078
C   C441      1.0  0.68880  0.51820  0.52290  1.0000 -0.45388822
C   C442      1.0  0.92020  0.81440  0.59140  1.0000 0.4609912897
C   C443      1.0  0.86500  0.62230  0.34160  1.0000 0.2784544022
C   C444      1.0  0.23010  0.76600  0.41210  1.0000 -0.4604762529
C   C445      1.0  0.74070  0.74280  0.53350  1.0000 0.1895374069
C   C446      1.0  0.29400  0.96320  0.46780  1.0000 -0.4604762529
C   C447      1.0  0.28890  0.70880  0.43360  1.0000 -0.4978075051
C   C448      1.0  0.22970  0.74530  0.45060  1.0000 0.2006048252
C   C449      1.0  0.16320  0.00100  0.50260  1.0000 -0.4687001341
C   C450      1.0  0.73960  0.80140  0.44630  1.0000 -0.4888067528
C   C451      1.0  0.71980  0.74330  0.57070  1.0000 -0.4604762529
C   C452      1.0  0.20230  0.03930  0.45430  1.0000 0.2204509097
C   C453      1.0  0.88140  0.85630  0.64500  1.0000 0.2699277261
C   C454      1.0  0.04740  0.65700  0.42960  1.0000 -0.4819852376
C   C455      1.0  0.26810  0.02480  0.44230  1.0000 0.2006048252
C   C456      1.0  0.12680  0.58660  0.37650  1.0000 0.2699277261
C   C457      1.0  0.99810  0.66430  0.49920  1.0000 -0.4687001341
C   C458      1.0  0.01110  0.01240  0.68290  1.0000 -0.4687001341
C   C459      1.0  0.85300  0.88970  0.65050  1.0000 0.4609912897
C   C460      1.0  0.85520  0.63310  0.61990  1.0000 0.2784544022
C   C461      1.0  0.10400  0.83130  0.93100  1.0000 0.4764725145
C   C462      1.0  0.15040  0.86350  0.88120  1.0000 0.2699277261
C   C463      1.0  0.29190  0.77080  0.98090  1.0000 0.2204509097
C   C464      1.0  0.25240  0.76730  0.04820  1.0000 0.2366189039
C   C465      1.0  0.28610  0.74560  0.04250  1.0000 0.2204509097
C   C466      1.0  0.31280  0.77300  0.94430  1.0000 -0.4604762529
C   C467      1.0  0.14930  0.88830  0.84460  1.0000 0.4609912897
C   C468      1.0  0.30080  0.71840  0.07270  1.0000 -0.4978075051
C   C469      1.0  0.23050  0.76450  0.08370  1.0000 -0.4687001341
C   C470      1.0  0.24410  0.81980  0.95600  1.0000 -0.4819852376
C   C471      1.0  0.10940  0.86200  0.90060  1.0000 0.2699277261
C   C472      1.0  0.26040  0.79360  0.98660  1.0000 0.1895374069
C   C473      1.0  0.06010  0.69560  0.78900  1.0000 -0.4819852376
C   C474      1.0  0.02810  0.72130  0.77310  1.0000 0.2006048252
C   C475      1.0  0.94080  0.79530  0.73270  1.0000 -0.4888067528
C   C476      1.0  0.07000  0.74040  0.71810  1.0000 -0.4687001341
C   C477      1.0  0.93210  0.75110  0.80330  1.0000 -0.4604762529
C   C478      1.0  0.96830  0.74890  0.78130  1.0000 0.2118274078
C   C479      1.0  0.03330  0.74320  0.74090  1.0000 0.2118274078
C   C480      1.0  0.97190  0.76950  0.74780  1.0000 0.2118274078
C   C481      1.0  0.95330  0.71190  0.04180  1.0000 0.2204509097
C   C482      1.0  0.68480  0.55150  0.77740  1.0000 -0.4888067528
C   C483      1.0  0.79710  0.40570  0.02270  1.0000 -0.4819852376
C   C484      1.0  0.69390  0.43950  0.02580  1.0000 0.2118274078
C   C485      1.0  0.93740  0.67080  0.05710  1.0000 -0.4819852376
C   C486      1.0  0.92230  0.81830  0.04350  1.0000 -0.4888067528
C   C487      1.0  0.03710  0.42420  0.30810  1.0000 -0.4687001341
C   C488      1.0  0.65870  0.56810  0.90060  1.0000 0.4683767302
C   C489      1.0  0.75980  0.42680  0.01310  1.0000 0.2118274078
C   C490      1.0  0.00700  0.47770  0.19830  1.0000 0.2118274078
C   C491      1.0  0.63000  0.32580  0.09090  1.0000 0.4609912897
C   C492      1.0  0.54310  0.46050  0.71490  1.0000 0.2263708289
C   C493      1.0  0.85260  0.60260  0.89690  1.0000 0.2784544022
C   C494      1.0  0.63890  0.35730  0.61940  1.0000 0.2699277261
C   C495      1.0  0.53000  0.41710  0.80980  1.0000 -0.4888067528
C   C496      1.0  0.91560  0.31920  0.07950  1.0000 0.4764725145
C   C497      1.0  0.82580  0.37130  0.12530  1.0000 0.4683767302
C   C498      1.0  0.63110  0.60150  0.89600  1.0000 0.2699277261
C   C499      1.0  0.88110  0.34710  0.08310  1.0000 0.2784544022
C   C500      1.0  0.67690  0.41050  0.57830  1.0000 0.4683767302
C   C501      1.0  0.69750  0.47210  0.00280  1.0000 0.2204509097
C   C502      1.0  0.99190  0.46410  0.26240  1.0000 0.2006048252
C   C503      1.0  0.86970  0.58480  0.11600  1.0000 0.2609465851
C   C504      1.0  0.82800  0.63870  0.09030  1.0000 0.4683767302
C   C505      1.0  0.06400  0.44720  0.16730  1.0000 -0.4888067528
C   C506      1.0  0.52030  0.49310  0.71830  1.0000 0.1837978166
C   C507      1.0  0.86350  0.34750  0.12460  1.0000 0.2699277261
C   C508      1.0  0.56180  0.38760  0.16210  1.0000 0.4876488026
C   C509      1.0  0.83010  0.60290  0.11560  1.0000 0.2609465851
C   C510      1.0  0.76100  0.45640  0.98680  1.0000 0.2118274078
C   C511      1.0  0.97260  0.78190  0.00560  1.0000 0.2118274078
C   C512      1.0  0.87490  0.55090  0.14380  1.0000 0.4876488026
C   C513      1.0  0.56660  0.29960  0.90300  1.0000 0.4683767302
C   C514      1.0  0.56260  0.44840  0.67540  1.0000 -0.4888067528
C   C515      1.0  0.60190  0.33340  0.12400  1.0000 0.2784544022
C   C516      1.0  0.74880  0.53920  0.17240  1.0000 -0.4888067528
C   C517      1.0  0.98640  0.71660  0.01870  1.0000 0.2204509097
C   C518      1.0  0.94320  0.78050  0.03220  1.0000 0.2204509097
C   C519      1.0  0.71530  0.52350  0.76650  1.0000 0.1895374069
C   C520      1.0  0.64060  0.39890  0.60310  1.0000 0.2609465851
C   C521      1.0  0.47580  0.48080  0.81320  1.0000 -0.4604762529
C   C522      1.0  0.52660  0.44440  0.77810  1.0000 0.2006048252
C   C523      1.0  0.71220  0.52120  0.23150  1.0000 0.2118274078
C   C524      1.0  0.60610  0.34930  0.64790  1.0000 0.4609912897
C   C525      1.0  0.69280  0.56120  0.23250  1.0000 -0.45388822
C   C526      1.0  0.79560  0.46330  0.96180  1.0000 -0.4687001341
C   C527      1.0  0.57690  0.33670  0.87870  1.0000 0.2784544022
C   C528      1.0  0.73780  0.51070  0.20260  1.0000 0.2006048252
C   C529      1.0  0.74100  0.46240  0.77490  1.0000 0.2204509097
C   C530      1.0  0.60830  0.65760  0.85190  1.0000 0.4683767302
C   C531      1.0  0.62720  0.37250  0.83400  1.0000 0.4609912897
C   C532      1.0  0.71960  0.46090  0.25770  1.0000 0.2006048252
C   C533      1.0  0.50100  0.47500  0.77940  1.0000 0.2204509097
C   C534      1.0  0.98140  0.81800  0.98320  1.0000 -0.4687001341
C   C535      1.0  0.74060  0.42500  0.79530  1.0000 -0.4604762529
C   C536      1.0  0.77020  0.47350  0.74930  1.0000 0.2118274078
C   C537      1.0  0.51820  0.52290  0.68880  1.0000 -0.45388822
C   C538      1.0  0.81440  0.59140  0.92020  1.0000 0.4609912897
C   C539      1.0  0.62230  0.34160  0.86500  1.0000 0.2784544022
C   C540      1.0  0.76600  0.41210  0.23010  1.0000 -0.4604762529
C   C541      1.0  0.74280  0.53350  0.74070  1.0000 0.1895374069
C   C542      1.0  0.96320  0.46780  0.29400  1.0000 -0.4604762529
C   C543      1.0  0.70880  0.43360  0.28890  1.0000 -0.4978075051
C   C544      1.0  0.74530  0.45060  0.22970  1.0000 0.2006048252
C   C545      1.0  0.00100  0.50260  0.16320  1.0000 -0.4687001341
C   C546      1.0  0.80140  0.44630  0.73960  1.0000 -0.4888067528
C   C547      1.0  0.74330  0.57070  0.71980  1.0000 -0.4604762529
C   C548      1.0  0.03930  0.45430  0.20230  1.0000 0.2204509097
C   C549      1.0  0.85630  0.64500  0.88140  1.0000 0.2699277261
C   C550      1.0  0.65700  0.42960  0.04740  1.0000 -0.4819852376
C   C551      1.0  0.02480  0.44230  0.26810  1.0000 0.2006048252
C   C552      1.0  0.58660  0.37650  0.12680  1.0000 0.2699277261
C   C553      1.0  0.66430  0.49920  0.99810  1.0000 -0.4687001341
C   C554      1.0  0.01240  0.68290  0.01110  1.0000 -0.4687001341
C   C555      1.0  0.88970  0.65050  0.85300  1.0000 0.4609912897
C   C556      1.0  0.63310  0.61990  0.85520  1.0000 0.2784544022
C   C557      1.0  0.83130  0.93100  0.10400  1.0000 0.4764725145
C   C558      1.0  0.86350  0.88120  0.15040  1.0000 0.2784544022
C   C559      1.0  0.77080  0.98090  0.29190  1.0000 0.2204509097
C   C560      1.0  0.76730  0.04820  0.25240  1.0000 0.2366189039
C   C561      1.0  0.74560  0.04250  0.28610  1.0000 0.2204509097
C   C562      1.0  0.77300  0.94430  0.31280  1.0000 -0.4604762529
C   C563      1.0  0.88830  0.84460  0.14930  1.0000 0.4609912897
C   C564      1.0  0.71840  0.07270  0.30080  1.0000 -0.4978075051
C   C565      1.0  0.76450  0.08370  0.23050  1.0000 -0.4687001341
C   C566      1.0  0.81980  0.95600  0.24410  1.0000 -0.4819852376
C   C567      1.0  0.86200  0.90060  0.10940  1.0000 0.2699277261
C   C568      1.0  0.79360  0.98660  0.26040  1.0000 0.1895374069
C   C569      1.0  0.69560  0.78900  0.06010  1.0000 -0.4819852376
C   C570      1.0  0.72130  0.77310  0.02810  1.0000 0.2006048252
C   C571      1.0  0.79530  0.73270  0.94080  1.0000 -0.4888067528
C   C572      1.0  0.74040  0.71810  0.07000  1.0000 -0.4687001341
C   C573      1.0  0.75110  0.80330  0.93210  1.0000 -0.4604762529
C   C574      1.0  0.74890  0.78130  0.96830  1.0000 0.2118274078
C   C575      1.0  0.74320  0.74090  0.03330  1.0000 0.2118274078
C   C576      1.0  0.76950  0.74780  0.97190  1.0000 0.2118274078
N   N1        1.0  0.25440  0.95020  0.06590  1.0000 -0.2697791044
N   N2        1.0  0.58150  0.96800  0.27390  1.0000 -0.2697791044
N   N3        1.0  0.56410  0.76400  0.95290  1.0000 -0.2640099723
N   N4        1.0  0.56330  0.25720  0.45440  1.0000 -0.2640099723
N   N5        1.0  0.52060  0.01680  0.26950  1.0000 -0.2697791044
N   N6        1.0  0.52480  0.79790  0.24600  1.0000 -0.2697791044
N   N7        1.0  0.49990  0.24880  0.50040  1.0000 -0.2697791044
N   N8        1.0  0.50430  0.74160  0.29790  1.0000 -0.2640099723
N   N9        1.0  0.51820  0.77210  0.01620  1.0000 -0.2640099723
N   N10       1.0  0.51250  0.21670  0.28560  1.0000 -0.2697791044
N   N11       1.0  0.49170  0.26780  0.22980  1.0000 -0.2697791044
N   N12       1.0  0.24830  0.99870  0.00460  1.0000 -0.2697791044
N   N13       1.0  0.97930  0.75920  0.20890  1.0000 -0.2831221967
N   N14       1.0  0.99100  0.69530  0.25150  1.0000 -0.2697791044
N   N15       1.0  0.20640  0.00340  0.27520  1.0000 -0.2697791044
N   N16       1.0  0.27180  0.99540  0.23400  1.0000 -0.2831221967
N   N17       1.0  0.95020  0.06590  0.25440  1.0000 -0.2697791044
N   N18       1.0  0.96800  0.27390  0.58150  1.0000 -0.2697791044
N   N19       1.0  0.76400  0.95290  0.56410  1.0000 -0.2640099723
N   N20       1.0  0.25720  0.45440  0.56330  1.0000 -0.2640099723
N   N21       1.0  0.01680  0.26950  0.52060  1.0000 -0.2697791044
N   N22       1.0  0.79790  0.24600  0.52480  1.0000 -0.2697791044
N   N23       1.0  0.24880  0.50040  0.49990  1.0000 -0.2697791044
N   N24       1.0  0.74160  0.29790  0.50430  1.0000 -0.2640099723
N   N25       1.0  0.77210  0.01620  0.51820  1.0000 -0.2640099723
N   N26       1.0  0.21670  0.28560  0.51250  1.0000 -0.2697791044
N   N27       1.0  0.26780  0.22980  0.49170  1.0000 -0.2697791044
N   N28       1.0  0.99870  0.00460  0.24830  1.0000 -0.2697791044
N   N29       1.0  0.75920  0.20890  0.97930  1.0000 -0.2831221967
N   N30       1.0  0.69530  0.25150  0.99100  1.0000 -0.2697791044
N   N31       1.0  0.00340  0.27520  0.20640  1.0000 -0.2697791044
N   N32       1.0  0.99540  0.23400  0.27180  1.0000 -0.2831221967
N   N33       1.0  0.06590  0.25440  0.95020  1.0000 -0.2697791044
N   N34       1.0  0.27390  0.58150  0.96800  1.0000 -0.2697791044
N   N35       1.0  0.95290  0.56410  0.76400  1.0000 -0.2640099723
N   N36       1.0  0.45440  0.56330  0.25720  1.0000 -0.2640099723
N   N37       1.0  0.26950  0.52060  0.01680  1.0000 -0.2697791044
N   N38       1.0  0.24600  0.52480  0.79790  1.0000 -0.2697791044
N   N39       1.0  0.50040  0.49990  0.24880  1.0000 -0.2697791044
N   N40       1.0  0.29790  0.50430  0.74160  1.0000 -0.2640099723
N   N41       1.0  0.01620  0.51820  0.77210  1.0000 -0.2640099723
N   N42       1.0  0.28560  0.51250  0.21670  1.0000 -0.2697791044
N   N43       1.0  0.22980  0.49170  0.26780  1.0000 -0.2697791044
N   N44       1.0  0.00460  0.24830  0.99870  1.0000 -0.2697791044
N   N45       1.0  0.20890  0.97930  0.75920  1.0000 -0.2831221967
N   N46       1.0  0.25150  0.99100  0.69530  1.0000 -0.2697791044
N   N47       1.0  0.27520  0.20640  0.00340  1.0000 -0.2697791044
N   N48       1.0  0.23400  0.27180  0.99540  1.0000 -0.2831221967
N   N49       1.0  0.74560  0.04980  0.93410  1.0000 -0.2697791044
N   N50       1.0  0.41850  0.03200  0.72610  1.0000 -0.2697791044
N   N51       1.0  0.43590  0.23600  0.04710  1.0000 -0.2640099723
N   N52       1.0  0.43670  0.74280  0.54560  1.0000 -0.2640099723
N   N53       1.0  0.47940  0.98320  0.73050  1.0000 -0.2697791044
N   N54       1.0  0.47520  0.20210  0.75400  1.0000 -0.2697791044
N   N55       1.0  0.50010  0.75120  0.49960  1.0000 -0.2697791044
N   N56       1.0  0.49570  0.25840  0.70210  1.0000 -0.2640099723
N   N57       1.0  0.48180  0.22790  0.98380  1.0000 -0.2640099723
N   N58       1.0  0.48750  0.78330  0.71440  1.0000 -0.2697791044
N   N59       1.0  0.50830  0.73220  0.77020  1.0000 -0.2697791044
N   N60       1.0  0.75170  0.00130  0.99540  1.0000 -0.2697791044
N   N61       1.0  0.02070  0.24080  0.79110  1.0000 -0.2831221967
N   N62       1.0  0.00900  0.30470  0.74850  1.0000 -0.2697791044
N   N63       1.0  0.79360  0.99660  0.72480  1.0000 -0.2697791044
N   N64       1.0  0.72820  0.00460  0.76600  1.0000 -0.2831221967
N   N65       1.0  0.04980  0.93410  0.74560  1.0000 -0.2697791044
N   N66       1.0  0.03200  0.72610  0.41850  1.0000 -0.2697791044
N   N67       1.0  0.23600  0.04710  0.43590  1.0000 -0.2640099723
N   N68       1.0  0.74280  0.54560  0.43670  1.0000 -0.2640099723
N   N69       1.0  0.98320  0.73050  0.47940  1.0000 -0.2697791044
N   N70       1.0  0.20210  0.75400  0.47520  1.0000 -0.2697791044
N   N71       1.0  0.75120  0.49960  0.50010  1.0000 -0.2697791044
N   N72       1.0  0.25840  0.70210  0.49570  1.0000 -0.2640099723
N   N73       1.0  0.22790  0.98380  0.48180  1.0000 -0.2640099723
N   N74       1.0  0.78330  0.71440  0.48750  1.0000 -0.2697791044
N   N75       1.0  0.73220  0.77020  0.50830  1.0000 -0.2697791044
N   N76       1.0  0.00130  0.99540  0.75170  1.0000 -0.2697791044
N   N77       1.0  0.24080  0.79110  0.02070  1.0000 -0.2831221967
N   N78       1.0  0.30470  0.74850  0.00900  1.0000 -0.2697791044
N   N79       1.0  0.99660  0.72480  0.79360  1.0000 -0.2697791044
N   N80       1.0  0.00460  0.76600  0.72820  1.0000 -0.2831221967
N   N81       1.0  0.93410  0.74560  0.04980  1.0000 -0.2697791044
N   N82       1.0  0.72610  0.41850  0.03200  1.0000 -0.2697791044
N   N83       1.0  0.04710  0.43590  0.23600  1.0000 -0.2640099723
N   N84       1.0  0.54560  0.43670  0.74280  1.0000 -0.2640099723
N   N85       1.0  0.73050  0.47940  0.98320  1.0000 -0.2697791044
N   N86       1.0  0.75400  0.47520  0.20210  1.0000 -0.2697791044
N   N87       1.0  0.49960  0.50010  0.75120  1.0000 -0.2697791044
N   N88       1.0  0.70210  0.49570  0.25840  1.0000 -0.2640099723
N   N89       1.0  0.98380  0.48180  0.22790  1.0000 -0.2640099723
N   N90       1.0  0.71440  0.48750  0.78330  1.0000 -0.2697791044
N   N91       1.0  0.77020  0.50830  0.73220  1.0000 -0.2697791044
N   N92       1.0  0.99540  0.75170  0.00130  1.0000 -0.2697791044
N   N93       1.0  0.79110  0.02070  0.24080  1.0000 -0.2831221967
N   N94       1.0  0.74850  0.00900  0.30470  1.0000 -0.2697791044
N   N95       1.0  0.72480  0.79360  0.99660  1.0000 -0.2697791044
N   N96       1.0  0.76600  0.72820  0.00460  1.0000 -0.2831221967
O   O1        1.0  0.54590  0.39890  0.28750  1.0000 -0.4978075051
O   O2        1.0  0.43252  0.82045  0.08113  1.0000 -0.5306730195
O   O3        1.0  0.65007  0.88532  0.32221  1.0000 -0.4687001341
O   O4        1.0  0.37014  0.19470  0.13406  1.0000 -0.4888067528
O   O5        1.0  0.62674  0.30403  0.36843  1.0000 -0.4978075051
O   O6        1.0  0.56700  0.80460  0.41970  1.0000 -0.5157505695
O   O7        1.0  0.73721  0.11992  0.47627  1.0000 -0.4978075051
O   O8        1.0  0.68036  0.37939  0.43955  1.0000 -0.4819852376
O   O9        1.0  0.62499  0.46191  0.33680  1.0000 -0.4687001341
O   O10       1.0  0.68539  0.05471  0.39680  1.0000 -0.5092731539
O   O11       1.0  0.66012  0.88270  0.04238  1.0000 -0.4888067528
O   O12       1.0  0.72125  0.96073  0.10512  1.0000 -0.5157505695
O   O13       1.0  0.65183  0.21271  0.39236  1.0000 -0.4604762529
O   O14       1.0  0.65885  0.89956  0.21969  1.0000 -0.4687001341
O   O15       1.0  0.58123  0.84922  0.15205  1.0000 -0.5157505695
O   O16       1.0  0.31414  0.87979  0.14287  1.0000 -0.4978075051
O   O17       1.0  0.70087  0.95496  0.39857  1.0000 -0.4819852376
O   O18       1.0  0.48709  0.87169  0.16462  1.0000 -0.4888067528
O   O19       1.0  0.38206  0.95544  0.20060  1.0000 -0.4888067528
O   O20       1.0  0.57961  0.13704  0.34855  1.0000 -0.5092731539
O   O21       1.0  0.65150  0.84780  0.47770  1.0000 -0.5306730195
O   O22       1.0  0.29635  0.11687  0.36128  1.0000 -0.4819852376
O   O23       1.0  0.47333  0.13666  0.36101  1.0000 -0.4819852376
O   O24       1.0  0.41350  0.05850  0.30160  1.0000 -0.5092731539
O   O25       1.0  0.32754  0.11947  0.06409  1.0000 -0.4819852376
O   O26       1.0  0.37020  0.04520  0.17880  1.0000 -0.4819852376
O   O27       1.0  0.36289  0.17859  0.43642  1.0000 -0.4819852376
O   O28       1.0  0.45210  0.09530  0.21510  1.0000 -0.4604762529
O   O29       1.0  0.13302  0.82576  0.06272  1.0000 -0.5306730195
O   O30       1.0  0.02941  0.85511  0.15108  1.0000 -0.5157505695
O   O31       1.0  0.20046  0.87513  0.14031  1.0000 -0.4440533691
O   O32       1.0  0.08305  0.93952  0.20143  1.0000 -0.5092731539
O   O33       1.0  0.39890  0.28750  0.54590  1.0000 -0.4978075051
O   O34       1.0  0.82045  0.08113  0.43252  1.0000 -0.5306730195
O   O35       1.0  0.88532  0.32221  0.65007  1.0000 -0.4687001341
O   O36       1.0  0.19470  0.13406  0.37014  1.0000 -0.4888067528
O   O37       1.0  0.30403  0.36843  0.62674  1.0000 -0.4978075051
O   O38       1.0  0.80460  0.41970  0.56700  1.0000 -0.5157505695
O   O39       1.0  0.11992  0.47627  0.73721  1.0000 -0.4978075051
O   O40       1.0  0.37939  0.43955  0.68036  1.0000 -0.4819852376
O   O41       1.0  0.46191  0.33680  0.62499  1.0000 -0.4687001341
O   O42       1.0  0.05471  0.39680  0.68539  1.0000 -0.5092731539
O   O43       1.0  0.88270  0.04238  0.66012  1.0000 -0.4888067528
O   O44       1.0  0.96073  0.10512  0.72125  1.0000 -0.5157505695
O   O45       1.0  0.21271  0.39236  0.65183  1.0000 -0.4604762529
O   O46       1.0  0.89956  0.21969  0.65885  1.0000 -0.4687001341
O   O47       1.0  0.84922  0.15205  0.58123  1.0000 -0.5157505695
O   O48       1.0  0.87979  0.14287  0.31414  1.0000 -0.4978075051
O   O49       1.0  0.95496  0.39857  0.70087  1.0000 -0.4819852376
O   O50       1.0  0.87169  0.16462  0.48709  1.0000 -0.4888067528
O   O51       1.0  0.95544  0.20060  0.38206  1.0000 -0.4888067528
O   O52       1.0  0.13704  0.34855  0.57961  1.0000 -0.5092731539
O   O53       1.0  0.84780  0.47770  0.65150  1.0000 -0.5306730195
O   O54       1.0  0.11687  0.36128  0.29635  1.0000 -0.4888067528
O   O55       1.0  0.13666  0.36101  0.47333  1.0000 -0.4819852376
O   O56       1.0  0.05850  0.30160  0.41350  1.0000 -0.5092731539
O   O57       1.0  0.11947  0.06409  0.32754  1.0000 -0.4819852376
O   O58       1.0  0.04520  0.17880  0.37020  1.0000 -0.4819852376
O   O59       1.0  0.17859  0.43642  0.36289  1.0000 -0.4819852376
O   O60       1.0  0.09530  0.21510  0.45210  1.0000 -0.4604762529
O   O61       1.0  0.82576  0.06272  0.13302  1.0000 -0.5306730195
O   O62       1.0  0.85511  0.15108  0.02941  1.0000 -0.5157505695
O   O63       1.0  0.87513  0.14031  0.20046  1.0000 -0.4440533691
O   O64       1.0  0.93952  0.20143  0.08305  1.0000 -0.5092731539
O   O65       1.0  0.28750  0.54590  0.39890  1.0000 -0.4978075051
O   O66       1.0  0.08113  0.43252  0.82045  1.0000 -0.5306730195
O   O67       1.0  0.32221  0.65007  0.88532  1.0000 -0.4687001341
O   O68       1.0  0.13406  0.37014  0.19470  1.0000 -0.4888067528
O   O69       1.0  0.36843  0.62674  0.30403  1.0000 -0.4978075051
O   O70       1.0  0.41970  0.56700  0.80460  1.0000 -0.5157505695
O   O71       1.0  0.47627  0.73721  0.11992  1.0000 -0.4978075051
O   O72       1.0  0.43955  0.68036  0.37939  1.0000 -0.4819852376
O   O73       1.0  0.33680  0.62499  0.46191  1.0000 -0.4687001341
O   O74       1.0  0.39680  0.68539  0.05471  1.0000 -0.5092731539
O   O75       1.0  0.04238  0.66012  0.88270  1.0000 -0.4888067528
O   O76       1.0  0.10512  0.72125  0.96073  1.0000 -0.5157505695
O   O77       1.0  0.39236  0.65183  0.21271  1.0000 -0.4604762529
O   O78       1.0  0.21969  0.65885  0.89956  1.0000 -0.4687001341
O   O79       1.0  0.15205  0.58123  0.84922  1.0000 -0.5157505695
O   O80       1.0  0.14287  0.31414  0.87979  1.0000 -0.4978075051
O   O81       1.0  0.39857  0.70087  0.95496  1.0000 -0.4819852376
O   O82       1.0  0.16462  0.48709  0.87169  1.0000 -0.4888067528
O   O83       1.0  0.20060  0.38206  0.95544  1.0000 -0.4888067528
O   O84       1.0  0.34855  0.57961  0.13704  1.0000 -0.5092731539
O   O85       1.0  0.47770  0.65150  0.84780  1.0000 -0.5306730195
O   O86       1.0  0.36128  0.29635  0.11687  1.0000 -0.4819852376
O   O87       1.0  0.36101  0.47333  0.13666  1.0000 -0.4819852376
O   O88       1.0  0.30160  0.41350  0.05850  1.0000 -0.5092731539
O   O89       1.0  0.06409  0.32754  0.11947  1.0000 -0.4819852376
O   O90       1.0  0.17880  0.37020  0.04520  1.0000 -0.4819852376
O   O91       1.0  0.43642  0.36289  0.17859  1.0000 -0.4819852376
O   O92       1.0  0.21510  0.45210  0.09530  1.0000 -0.4604762529
O   O93       1.0  0.06272  0.13302  0.82576  1.0000 -0.5306730195
O   O94       1.0  0.15108  0.02941  0.85511  1.0000 -0.5157505695
O   O95       1.0  0.14031  0.20046  0.87513  1.0000 -0.4440533691
O   O96       1.0  0.20143  0.08305  0.93952  1.0000 -0.5092731539
O   O97       1.0  0.45410  0.60110  0.71250  1.0000 -0.4978075051
O   O98       1.0  0.56748  0.17955  0.91887  1.0000 -0.5306730195
O   O99       1.0  0.34993  0.11468  0.67779  1.0000 -0.4687001341
O   O100      1.0  0.62986  0.80530  0.86594  1.0000 -0.4888067528
O   O101      1.0  0.37326  0.69597  0.63157  1.0000 -0.4978075051
O   O102      1.0  0.43300  0.19540  0.58030  1.0000 -0.5157505695
O   O103      1.0  0.26279  0.88008  0.52373  1.0000 -0.4978075051
O   O104      1.0  0.31964  0.62061  0.56045  1.0000 -0.4819852376
O   O105      1.0  0.37501  0.53809  0.66320  1.0000 -0.4687001341
O   O106      1.0  0.31461  0.94529  0.60320  1.0000 -0.5092731539
O   O107      1.0  0.33988  0.11730  0.95762  1.0000 -0.4888067528
O   O108      1.0  0.27875  0.03927  0.89488  1.0000 -0.5157505695
O   O109      1.0  0.34817  0.78729  0.60764  1.0000 -0.4604762529
O   O110      1.0  0.34115  0.10044  0.78031  1.0000 -0.4687001341
O   O111      1.0  0.41877  0.15078  0.84795  1.0000 -0.5157505695
O   O112      1.0  0.68586  0.12021  0.85713  1.0000 -0.4978075051
O   O113      1.0  0.29913  0.04504  0.60143  1.0000 -0.4819852376
O   O114      1.0  0.51291  0.12831  0.83538  1.0000 -0.4888067528
O   O115      1.0  0.61794  0.04456  0.79940  1.0000 -0.4888067528
O   O116      1.0  0.42039  0.86296  0.65145  1.0000 -0.5092731539
O   O117      1.0  0.34850  0.15220  0.52230  1.0000 -0.5306730195
O   O118      1.0  0.70365  0.88313  0.63872  1.0000 -0.4819852376
O   O119      1.0  0.52667  0.86334  0.63899  1.0000 -0.4819852376
O   O120      1.0  0.58650  0.94150  0.69840  1.0000 -0.5092731539
O   O121      1.0  0.67246  0.88053  0.93591  1.0000 -0.4819852376
O   O122      1.0  0.62980  0.95480  0.82120  1.0000 -0.4819852376
O   O123      1.0  0.63711  0.82141  0.56358  1.0000 -0.4819852376
O   O124      1.0  0.54790  0.90470  0.78490  1.0000 -0.4604762529
O   O125      1.0  0.86698  0.17424  0.93728  1.0000 -0.5306730195
O   O126      1.0  0.97059  0.14489  0.84892  1.0000 -0.5157505695
O   O127      1.0  0.79954  0.12487  0.85969  1.0000 -0.4440533691
O   O128      1.0  0.91695  0.06048  0.79857  1.0000 -0.5092731539
O   O129      1.0  0.60110  0.71250  0.45410  1.0000 -0.4978075051
O   O130      1.0  0.17955  0.91887  0.56748  1.0000 -0.5306730195
O   O131      1.0  0.11468  0.67779  0.34993  1.0000 -0.4819852376
O   O132      1.0  0.80530  0.86594  0.62986  1.0000 -0.4888067528
O   O133      1.0  0.69597  0.63157  0.37326  1.0000 -0.4978075051
O   O134      1.0  0.19540  0.58030  0.43300  1.0000 -0.5157505695
O   O135      1.0  0.88008  0.52373  0.26279  1.0000 -0.4978075051
O   O136      1.0  0.62061  0.56045  0.31964  1.0000 -0.4819852376
O   O137      1.0  0.53809  0.66320  0.37501  1.0000 -0.4687001341
O   O138      1.0  0.94529  0.60320  0.31461  1.0000 -0.5092731539
O   O139      1.0  0.11730  0.95762  0.33988  1.0000 -0.4888067528
O   O140      1.0  0.03927  0.89488  0.27875  1.0000 -0.5157505695
O   O141      1.0  0.78729  0.60764  0.34817  1.0000 -0.4604762529
O   O142      1.0  0.10044  0.78031  0.34115  1.0000 -0.4687001341
O   O143      1.0  0.15078  0.84795  0.41877  1.0000 -0.5157505695
O   O144      1.0  0.12021  0.85713  0.68586  1.0000 -0.4978075051
O   O145      1.0  0.04504  0.60143  0.29913  1.0000 -0.4819852376
O   O146      1.0  0.12831  0.83538  0.51291  1.0000 -0.4888067528
O   O147      1.0  0.04456  0.79940  0.61794  1.0000 -0.4888067528
O   O148      1.0  0.86296  0.65145  0.42039  1.0000 -0.5092731539
O   O149      1.0  0.15220  0.52230  0.34850  1.0000 -0.5306730195
O   O150      1.0  0.88313  0.63872  0.70365  1.0000 -0.4819852376
O   O151      1.0  0.86334  0.63899  0.52667  1.0000 -0.4687001341
O   O152      1.0  0.94150  0.69840  0.58650  1.0000 -0.5092731539
O   O153      1.0  0.88053  0.93591  0.67246  1.0000 -0.4819852376
O   O154      1.0  0.95480  0.82120  0.62980  1.0000 -0.4819852376
O   O155      1.0  0.82141  0.56358  0.63711  1.0000 -0.4819852376
O   O156      1.0  0.90470  0.78490  0.54790  1.0000 -0.4604762529
O   O157      1.0  0.17424  0.93728  0.86698  1.0000 -0.5306730195
O   O158      1.0  0.14489  0.84892  0.97059  1.0000 -0.5157505695
O   O159      1.0  0.12487  0.85969  0.79954  1.0000 -0.4440533691
O   O160      1.0  0.06048  0.79857  0.91695  1.0000 -0.5092731539
O   O161      1.0  0.71250  0.45410  0.60110  1.0000 -0.4978075051
O   O162      1.0  0.91887  0.56748  0.17955  1.0000 -0.5306730195
O   O163      1.0  0.67779  0.34993  0.11468  1.0000 -0.4687001341
O   O164      1.0  0.86594  0.62986  0.80530  1.0000 -0.4888067528
O   O165      1.0  0.63157  0.37326  0.69597  1.0000 -0.4978075051
O   O166      1.0  0.58030  0.43300  0.19540  1.0000 -0.5157505695
O   O167      1.0  0.52373  0.26279  0.88008  1.0000 -0.4978075051
O   O168      1.0  0.56045  0.31964  0.62061  1.0000 -0.4819852376
O   O169      1.0  0.66320  0.37501  0.53809  1.0000 -0.4687001341
O   O170      1.0  0.60320  0.31461  0.94529  1.0000 -0.5092731539
O   O171      1.0  0.95762  0.33988  0.11730  1.0000 -0.4888067528
O   O172      1.0  0.89488  0.27875  0.03927  1.0000 -0.5157505695
O   O173      1.0  0.60764  0.34817  0.78729  1.0000 -0.4604762529
O   O174      1.0  0.78031  0.34115  0.10044  1.0000 -0.4687001341
O   O175      1.0  0.84795  0.41877  0.15078  1.0000 -0.5157505695
O   O176      1.0  0.85713  0.68586  0.12021  1.0000 -0.4978075051
O   O177      1.0  0.60143  0.29913  0.04504  1.0000 -0.4819852376
O   O178      1.0  0.83538  0.51291  0.12831  1.0000 -0.4888067528
O   O179      1.0  0.79940  0.61794  0.04456  1.0000 -0.4888067528
O   O180      1.0  0.65145  0.42039  0.86296  1.0000 -0.5092731539
O   O181      1.0  0.52230  0.34850  0.15220  1.0000 -0.5306730195
O   O182      1.0  0.63872  0.70365  0.88313  1.0000 -0.4819852376
O   O183      1.0  0.63899  0.52667  0.86334  1.0000 -0.4819852376
O   O184      1.0  0.69840  0.58650  0.94150  1.0000 -0.5092731539
O   O185      1.0  0.93591  0.67246  0.88053  1.0000 -0.4819852376
O   O186      1.0  0.82120  0.62980  0.95480  1.0000 -0.4819852376
O   O187      1.0  0.56358  0.63711  0.82141  1.0000 -0.4819852376
O   O188      1.0  0.78490  0.54790  0.90470  1.0000 -0.4604762529
O   O189      1.0  0.93728  0.86698  0.17424  1.0000 -0.5306730195
O   O190      1.0  0.84892  0.97059  0.14489  1.0000 -0.5157505695
O   O191      1.0  0.85969  0.79954  0.12487  1.0000 -0.4440533691
O   O192      1.0  0.79857  0.91695  0.06048  1.0000 -0.5092731539
F   F1        1.0  0.67257  0.96099  0.15966  1.0000 -0.1424063759
F   F2        1.0  0.63781  0.09278  0.33371  1.0000 -0.1424063759
F   F3        1.0  0.70801  0.16466  0.38939  1.0000 -0.157466866
F   F4        1.0  0.55790  0.35455  0.34601  1.0000 -0.1424063759
F   F5        1.0  0.62975  0.35094  0.31101  1.0000 -0.1481723221
F   F6        1.0  0.30864  0.07637  0.12270  1.0000 -0.1481723221
F   F7        1.0  0.65362  0.82621  0.36766  1.0000 -0.157466866
F   F8        1.0  0.41929  0.19091  0.38921  1.0000 -0.1424063759
F   F9        1.0  0.44011  0.14555  0.16154  1.0000 -0.1481723221
F   F10       1.0  0.68703  0.42251  0.37833  1.0000 -0.1424063759
F   F11       1.0  0.44411  0.93421  0.14202  1.0000 -0.1481723221
F   F12       1.0  0.71096  0.89421  0.43966  1.0000 -0.1424063759
F   F13       1.0  0.36415  0.14798  0.19187  1.0000 -0.1481723221
F   F14       1.0  0.62760  0.82833  0.09489  1.0000 -0.1424063759
F   F15       1.0  0.37208  0.83322  0.15910  1.0000 -0.1481723221
F   F16       1.0  0.61437  0.08638  0.41005  1.0000 -0.1481723221
F   F17       1.0  0.63732  0.92189  0.44833  1.0000 -0.1424063759
F   F18       1.0  0.61360  0.43001  0.40775  1.0000 -0.1481723221
F   F19       1.0  0.70315  0.88538  0.15969  1.0000 -0.157466866
F   F20       1.0  0.35489  0.13221  0.31590  1.0000 -0.157466866
F   F21       1.0  0.42456  0.11698  0.41824  1.0000 -0.1481723221
F   F22       1.0  0.37292  0.86376  0.08413  1.0000 -0.1424063759
F   F23       1.0  0.38666  0.06825  0.10179  1.0000 -0.1424063759
F   F24       1.0  0.58136  0.85995  0.37165  1.0000 -0.1481723221
F   F25       1.0  0.60217  0.90390  0.08924  1.0000 -0.157466866
F   F26       1.0  0.43700  0.90724  0.21696  1.0000 -0.1424063759
F   F27       1.0  0.35684  0.05908  0.34931  1.0000 -0.1481723221
F   F28       1.0  0.67668  0.16366  0.46435  1.0000 -0.1481723221
F   F29       1.0  0.07132  0.87933  0.08840  1.0000 -0.1481723221
F   F30       1.0  0.14154  0.93546  0.15648  1.0000 -0.1481723221
F   F31       1.0  0.14193  0.85811  0.18538  1.0000 -0.157466866
F   F32       1.0  0.07747  0.80208  0.11054  1.0000 -0.1481723221
F   F33       1.0  0.96099  0.15966  0.67257  1.0000 -0.1424063759
F   F34       1.0  0.09278  0.33371  0.63781  1.0000 -0.1424063759
F   F35       1.0  0.16466  0.38939  0.70801  1.0000 -0.157466866
F   F36       1.0  0.35455  0.34601  0.55790  1.0000 -0.1424063759
F   F37       1.0  0.35094  0.31101  0.62975  1.0000 -0.1481723221
F   F38       1.0  0.07637  0.12270  0.30864  1.0000 -0.1481723221
F   F39       1.0  0.82621  0.36766  0.65362  1.0000 -0.157466866
F   F40       1.0  0.19091  0.38921  0.41929  1.0000 -0.1424063759
F   F41       1.0  0.14555  0.16154  0.44011  1.0000 -0.1481723221
F   F42       1.0  0.42251  0.37833  0.68703  1.0000 -0.1424063759
F   F43       1.0  0.93421  0.14202  0.44411  1.0000 -0.1481723221
F   F44       1.0  0.89421  0.43966  0.71096  1.0000 -0.1424063759
F   F45       1.0  0.14798  0.19187  0.36415  1.0000 -0.1481723221
F   F46       1.0  0.82833  0.09489  0.62760  1.0000 -0.1424063759
F   F47       1.0  0.83322  0.15910  0.37208  1.0000 -0.1481723221
F   F48       1.0  0.08638  0.41005  0.61437  1.0000 -0.1481723221
F   F49       1.0  0.92189  0.44833  0.63732  1.0000 -0.1424063759
F   F50       1.0  0.43001  0.40775  0.61360  1.0000 -0.1481723221
F   F51       1.0  0.88538  0.15969  0.70315  1.0000 -0.157466866
F   F52       1.0  0.13221  0.31590  0.35489  1.0000 -0.157466866
F   F53       1.0  0.11698  0.41824  0.42456  1.0000 -0.1481723221
F   F54       1.0  0.86376  0.08413  0.37292  1.0000 -0.1424063759
F   F55       1.0  0.06825  0.10179  0.38666  1.0000 -0.1424063759
F   F56       1.0  0.85995  0.37165  0.58136  1.0000 -0.1481723221
F   F57       1.0  0.90390  0.08924  0.60217  1.0000 -0.157466866
F   F58       1.0  0.90724  0.21696  0.43700  1.0000 -0.1424063759
F   F59       1.0  0.05908  0.34931  0.35684  1.0000 -0.1481723221
F   F60       1.0  0.16366  0.46435  0.67668  1.0000 -0.1481723221
F   F61       1.0  0.87933  0.08840  0.07132  1.0000 -0.1481723221
F   F62       1.0  0.93546  0.15648  0.14154  1.0000 -0.1481723221
F   F63       1.0  0.85811  0.18538  0.14193  1.0000 -0.157466866
F   F64       1.0  0.80208  0.11054  0.07747  1.0000 -0.1481723221
F   F65       1.0  0.15966  0.67257  0.96099  1.0000 -0.1424063759
F   F66       1.0  0.33371  0.63781  0.09278  1.0000 -0.1424063759
F   F67       1.0  0.38939  0.70801  0.16466  1.0000 -0.157466866
F   F68       1.0  0.34601  0.55790  0.35455  1.0000 -0.1424063759
F   F69       1.0  0.31101  0.62975  0.35094  1.0000 -0.1481723221
F   F70       1.0  0.12270  0.30864  0.07637  1.0000 -0.1481723221
F   F71       1.0  0.36766  0.65362  0.82621  1.0000 -0.157466866
F   F72       1.0  0.38921  0.41929  0.19091  1.0000 -0.1424063759
F   F73       1.0  0.16154  0.44011  0.14555  1.0000 -0.1481723221
F   F74       1.0  0.37833  0.68703  0.42251  1.0000 -0.1424063759
F   F75       1.0  0.14202  0.44411  0.93421  1.0000 -0.1481723221
F   F76       1.0  0.43966  0.71096  0.89421  1.0000 -0.1424063759
F   F77       1.0  0.19187  0.36415  0.14798  1.0000 -0.1481723221
F   F78       1.0  0.09489  0.62760  0.82833  1.0000 -0.1424063759
F   F79       1.0  0.15910  0.37208  0.83322  1.0000 -0.1481723221
F   F80       1.0  0.41005  0.61437  0.08638  1.0000 -0.1481723221
F   F81       1.0  0.44833  0.63732  0.92189  1.0000 -0.1481723221
F   F82       1.0  0.40775  0.61360  0.43001  1.0000 -0.1481723221
F   F83       1.0  0.15969  0.70315  0.88538  1.0000 -0.157466866
F   F84       1.0  0.31590  0.35489  0.13221  1.0000 -0.157466866
F   F85       1.0  0.41824  0.42456  0.11698  1.0000 -0.1481723221
F   F86       1.0  0.08413  0.37292  0.86376  1.0000 -0.1424063759
F   F87       1.0  0.10179  0.38666  0.06825  1.0000 -0.1424063759
F   F88       1.0  0.37165  0.58136  0.85995  1.0000 -0.1481723221
F   F89       1.0  0.08924  0.60217  0.90390  1.0000 -0.157466866
F   F90       1.0  0.21696  0.43700  0.90724  1.0000 -0.1424063759
F   F91       1.0  0.34931  0.35684  0.05908  1.0000 -0.1481723221
F   F92       1.0  0.46435  0.67668  0.16366  1.0000 -0.1481723221
F   F93       1.0  0.08840  0.07132  0.87933  1.0000 -0.1481723221
F   F94       1.0  0.15648  0.14154  0.93546  1.0000 -0.1481723221
F   F95       1.0  0.18538  0.14193  0.85811  1.0000 -0.157466866
F   F96       1.0  0.11054  0.07747  0.80208  1.0000 -0.1481723221
F   F97       1.0  0.32743  0.03901  0.84034  1.0000 -0.1481723221
F   F98       1.0  0.36219  0.90722  0.66629  1.0000 -0.1424063759
F   F99       1.0  0.29199  0.83534  0.61061  1.0000 -0.157466866
F   F100      1.0  0.44210  0.64545  0.65399  1.0000 -0.1424063759
F   F101      1.0  0.37025  0.64906  0.68899  1.0000 -0.1481723221
F   F102      1.0  0.69136  0.92363  0.87730  1.0000 -0.1481723221
F   F103      1.0  0.34638  0.17379  0.63234  1.0000 -0.157466866
F   F104      1.0  0.58071  0.80909  0.61079  1.0000 -0.1424063759
F   F105      1.0  0.55989  0.85445  0.83846  1.0000 -0.1481723221
F   F106      1.0  0.31297  0.57749  0.62167  1.0000 -0.1424063759
F   F107      1.0  0.55589  0.06579  0.85798  1.0000 -0.1481723221
F   F108      1.0  0.28904  0.10579  0.56034  1.0000 -0.1424063759
F   F109      1.0  0.63585  0.85202  0.80813  1.0000 -0.1481723221
F   F110      1.0  0.37240  0.17167  0.90511  1.0000 -0.1424063759
F   F111      1.0  0.62792  0.16678  0.84090  1.0000 -0.1481723221
F   F112      1.0  0.38563  0.91362  0.58995  1.0000 -0.1481723221
F   F113      1.0  0.36268  0.07811  0.55167  1.0000 -0.1481723221
F   F114      1.0  0.38640  0.56999  0.59225  1.0000 -0.1481723221
F   F115      1.0  0.29685  0.11462  0.84031  1.0000 -0.157466866
F   F116      1.0  0.64511  0.86779  0.68410  1.0000 -0.157466866
F   F117      1.0  0.57544  0.88302  0.58176  1.0000 -0.1481723221
F   F118      1.0  0.62708  0.13624  0.91587  1.0000 -0.1424063759
F   F119      1.0  0.61334  0.93175  0.89821  1.0000 -0.1424063759
F   F120      1.0  0.41864  0.14005  0.62835  1.0000 -0.1481723221
F   F121      1.0  0.39783  0.09610  0.91076  1.0000 -0.157466866
F   F122      1.0  0.56300  0.09276  0.78304  1.0000 -0.1424063759
F   F123      1.0  0.64316  0.94092  0.65069  1.0000 -0.1481723221
F   F124      1.0  0.32332  0.83634  0.53565  1.0000 -0.1481723221
F   F125      1.0  0.92868  0.12067  0.91160  1.0000 -0.1481723221
F   F126      1.0  0.85846  0.06454  0.84352  1.0000 -0.1481723221
F   F127      1.0  0.85807  0.14189  0.81462  1.0000 -0.157466866
F   F128      1.0  0.92253  0.19792  0.88946  1.0000 -0.1481723221
F   F129      1.0  0.03901  0.84034  0.32743  1.0000 -0.1481723221
F   F130      1.0  0.90722  0.66629  0.36219  1.0000 -0.1424063759
F   F131      1.0  0.83534  0.61061  0.29199  1.0000 -0.157466866
F   F132      1.0  0.64545  0.65399  0.44210  1.0000 -0.1424063759
F   F133      1.0  0.64906  0.68899  0.37025  1.0000 -0.1481723221
F   F134      1.0  0.92363  0.87730  0.69136  1.0000 -0.1481723221
F   F135      1.0  0.17379  0.63234  0.34638  1.0000 -0.157466866
F   F136      1.0  0.80909  0.61079  0.58071  1.0000 -0.1424063759
F   F137      1.0  0.85445  0.83846  0.55989  1.0000 -0.1481723221
F   F138      1.0  0.57749  0.62167  0.31297  1.0000 -0.1424063759
F   F139      1.0  0.06579  0.85798  0.55589  1.0000 -0.1481723221
F   F140      1.0  0.10579  0.56034  0.28904  1.0000 -0.1424063759
F   F141      1.0  0.85202  0.80813  0.63585  1.0000 -0.1481723221
F   F142      1.0  0.17167  0.90511  0.37240  1.0000 -0.1424063759
F   F143      1.0  0.16678  0.84090  0.62792  1.0000 -0.1481723221
F   F144      1.0  0.91362  0.58995  0.38563  1.0000 -0.1481723221
F   F145      1.0  0.07811  0.55167  0.36268  1.0000 -0.1481723221
F   F146      1.0  0.56999  0.59225  0.38640  1.0000 -0.1481723221
F   F147      1.0  0.11462  0.84031  0.29685  1.0000 -0.157466866
F   F148      1.0  0.86779  0.68410  0.64511  1.0000 -0.157466866
F   F149      1.0  0.88302  0.58176  0.57544  1.0000 -0.1481723221
F   F150      1.0  0.13624  0.91587  0.62708  1.0000 -0.1424063759
F   F151      1.0  0.93175  0.89821  0.61334  1.0000 -0.1424063759
F   F152      1.0  0.14005  0.62835  0.41864  1.0000 -0.1481723221
F   F153      1.0  0.09610  0.91076  0.39783  1.0000 -0.157466866
F   F154      1.0  0.09276  0.78304  0.56300  1.0000 -0.1424063759
F   F155      1.0  0.94092  0.65069  0.64316  1.0000 -0.1481723221
F   F156      1.0  0.83634  0.53565  0.32332  1.0000 -0.1481723221
F   F157      1.0  0.12067  0.91160  0.92868  1.0000 -0.1481723221
F   F158      1.0  0.06454  0.84352  0.85846  1.0000 -0.1481723221
F   F159      1.0  0.14189  0.81462  0.85807  1.0000 -0.157466866
F   F160      1.0  0.19792  0.88946  0.92253  1.0000 -0.1481723221
F   F161      1.0  0.84034  0.32743  0.03901  1.0000 -0.1481723221
F   F162      1.0  0.66629  0.36219  0.90722  1.0000 -0.1424063759
F   F163      1.0  0.61061  0.29199  0.83534  1.0000 -0.157466866
F   F164      1.0  0.65399  0.44210  0.64545  1.0000 -0.1424063759
F   F165      1.0  0.68899  0.37025  0.64906  1.0000 -0.1481723221
F   F166      1.0  0.87730  0.69136  0.92363  1.0000 -0.1481723221
F   F167      1.0  0.63234  0.34638  0.17379  1.0000 -0.157466866
F   F168      1.0  0.61079  0.58071  0.80909  1.0000 -0.1424063759
F   F169      1.0  0.83846  0.55989  0.85445  1.0000 -0.1481723221
F   F170      1.0  0.62167  0.31297  0.57749  1.0000 -0.1424063759
F   F171      1.0  0.85798  0.55589  0.06579  1.0000 -0.1481723221
F   F172      1.0  0.56034  0.28904  0.10579  1.0000 -0.1424063759
F   F173      1.0  0.80813  0.63585  0.85202  1.0000 -0.1481723221
F   F174      1.0  0.90511  0.37240  0.17167  1.0000 -0.1424063759
F   F175      1.0  0.84090  0.62792  0.16678  1.0000 -0.1481723221
F   F176      1.0  0.58995  0.38563  0.91362  1.0000 -0.1481723221
F   F177      1.0  0.55167  0.36268  0.07811  1.0000 -0.1424063759
F   F178      1.0  0.59225  0.38640  0.56999  1.0000 -0.1481723221
F   F179      1.0  0.84031  0.29685  0.11462  1.0000 -0.157466866
F   F180      1.0  0.68410  0.64511  0.86779  1.0000 -0.157466866
F   F181      1.0  0.58176  0.57544  0.88302  1.0000 -0.1481723221
F   F182      1.0  0.91587  0.62708  0.13624  1.0000 -0.1424063759
F   F183      1.0  0.89821  0.61334  0.93175  1.0000 -0.1424063759
F   F184      1.0  0.62835  0.41864  0.14005  1.0000 -0.1481723221
F   F185      1.0  0.91076  0.39783  0.09610  1.0000 -0.157466866
F   F186      1.0  0.78304  0.56300  0.09276  1.0000 -0.1424063759
F   F187      1.0  0.65069  0.64316  0.94092  1.0000 -0.1481723221
F   F188      1.0  0.53565  0.32332  0.83634  1.0000 -0.1481723221
F   F189      1.0  0.91160  0.92868  0.12067  1.0000 -0.1481723221
F   F190      1.0  0.84352  0.85846  0.06454  1.0000 -0.1481723221
F   F191      1.0  0.81462  0.85807  0.14189  1.0000 -0.157466866
F   F192      1.0  0.88946  0.92253  0.19792  1.0000 -0.1481723221
