# DDEC6 charges by PACMAN v1.1 (https://github.com/mtap-research/PACMAN-charge/)
data_2017[Zn][hcb]2[ASR]5
_chemical_formula_sum              "Zn2 H36 C56 N6 O4"
_cell_length_a       7.4839
_cell_length_b       12.2582
_cell_length_c       19.2218
_cell_angle_alpha    105.782
_cell_angle_beta     95.314
_cell_angle_gamma    102.941

_symmetry_space_group_name_H-M    "P 1"
_symmetry_Int_Tables_number       1

loop_
  _symmetry_equiv_pos_as_xyz
  'x, y, z'

loop_
  _atom_site_type_symbol
  _atom_site_label
  _atom_site_symmetry_multiplicity
  _atom_site_fract_x
  _atom_site_fract_y
  _atom_site_fract_z
  _atom_site_occupancy
  _atom_site_charge
Zn  Zn1       1.0  0.09398  0.32961  0.56377  1.0000 0.6190895404
Zn  Zn2       1.0  0.90602  0.67039  0.43623  1.0000 0.6190895404
H   H1        1.0  0.20870  0.47580  0.72230  1.0000 0.0896682407
H   H2        1.0  0.37850  0.65270  0.79420  1.0000 0.128911462
H   H3        1.0  0.54680  0.71800  0.61640  1.0000 0.1385182257
H   H4        1.0  0.36440  0.53730  0.55010  1.0000 0.1100088036
H   H5        1.0  0.57230  0.81350  0.85870  1.0000 0.1100088036
H   H6        1.0  0.85570  0.13050  0.85740  1.0000 0.1100088036
H   H7        1.0  0.79260  0.23890  0.77450  1.0000 0.128911462
H   H8        1.0  0.92070  0.35100  0.70570  1.0000 0.1025277119
H   H9        1.0  0.96420  0.08250  0.55970  1.0000 0.1100088036
H   H10       1.0  0.84030  0.96180  0.62320  1.0000 0.1385182257
H   H11       1.0  0.78710  0.19440  0.96640  1.0000 0.1100088036
H   H12       1.0  0.85670  0.26140  0.09120  1.0000 0.1025277119
H   H13       1.0  0.78400  0.93000  0.09570  1.0000 0.1100088036
H   H14       1.0  0.72490  0.86770  0.97160  1.0000 0.1100088036
H   H15       1.0  0.04810  0.30550  0.19630  1.0000 0.1025277119
H   H16       1.0  0.12990  0.37320  0.32260  1.0000 0.1100088036
H   H17       1.0  0.80440  0.07990  0.33770  1.0000 0.1100088036
H   H18       1.0  0.72290  0.01150  0.21210  1.0000 0.1100088036
H   H19       1.0  0.79130  0.52420  0.27770  1.0000 0.0896682407
H   H20       1.0  0.62150  0.34730  0.20580  1.0000 0.128911462
H   H21       1.0  0.45320  0.28200  0.38360  1.0000 0.1385182257
H   H22       1.0  0.63560  0.46270  0.44990  1.0000 0.1100088036
H   H23       1.0  0.42770  0.18650  0.14130  1.0000 0.1100088036
H   H24       1.0  0.14430  0.86950  0.14260  1.0000 0.1100088036
H   H25       1.0  0.20740  0.76110  0.22550  1.0000 0.128911462
H   H26       1.0  0.07930  0.64900  0.29430  1.0000 0.1025277119
H   H27       1.0  0.03580  0.91750  0.44030  1.0000 0.1100088036
H   H28       1.0  0.15970  0.03820  0.37680  1.0000 0.1385182257
H   H29       1.0  0.21290  0.80560  0.03360  1.0000 0.1100088036
H   H30       1.0  0.14330  0.73860  0.90880  1.0000 0.1025277119
H   H31       1.0  0.21600  0.07000  0.90430  1.0000 0.1100088036
H   H32       1.0  0.27510  0.13230  0.02840  1.0000 0.1100088036
H   H33       1.0  0.95190  0.69450  0.80370  1.0000 0.1025277119
H   H34       1.0  0.87010  0.62680  0.67740  1.0000 0.1100088036
H   H35       1.0  0.19560  0.92010  0.66230  1.0000 0.1100088036
H   H36       1.0  0.27710  0.98850  0.78790  1.0000 0.1100088036
C   C1        1.0  0.27710  0.52610  0.70020  1.0000 0.0307232555
C   C2        1.0  0.37880  0.63180  0.74390  1.0000 -0.2018216287
C   C3        1.0  0.48360  0.70910  0.71340  1.0000 0.0896682407
C   C4        1.0  0.47730  0.67070  0.64000  1.0000 -0.1789838855
C   C5        1.0  0.36710  0.56100  0.60050  1.0000 0.0809500109
C   C6        1.0  0.59520  0.83030  0.75770  1.0000 0.196064737
C   C7        1.0  0.62030  0.86620  0.83400  1.0000 -0.2369484787
C   C8        1.0  0.71650  0.98010  0.87290  1.0000 0.1100088036
C   C9        1.0  0.78710  0.05370  0.83340  1.0000 -0.2490992357
C   C10       1.0  0.75380  0.01090  0.75570  1.0000 0.2129414569
C   C11       1.0  0.82530  0.08570  0.71020  1.0000 0.0809500109
C   C12       1.0  0.83540  0.20470  0.73210  1.0000 -0.212856311
C   C13       1.0  0.91060  0.27080  0.68930  1.0000 0.0227901417
C   C14       1.0  0.93630  0.11700  0.60540  1.0000 0.0639220032
C   C15       1.0  0.86320  0.04260  0.64390  1.0000 -0.1789838855
C   C16       1.0  0.75030  0.02260  0.95440  1.0000 0.0639220032
C   C17       1.0  0.78880  0.14080  0.99250  1.0000 -0.1593317374
C   C18       1.0  0.82960  0.18120  0.06760  1.0000 -0.1593317374
C   C19       1.0  0.83110  0.10410  0.10870  1.0000 0.0639220032
C   C20       1.0  0.78780  0.98480  0.07020  1.0000 -0.1447452341
C   C21       1.0  0.75090  0.94770  0.99560  1.0000 -0.148636717
C   C22       1.0  0.87980  0.14870  0.19040  1.0000 0.0639220032
C   C23       1.0  0.99940  0.25880  0.22440  1.0000 -0.1708642502
C   C24       1.0  0.04700  0.30000  0.30050  1.0000 -0.1203943972
C   C25       1.0  0.97420  0.23480  0.34260  1.0000 -0.0211033948
C   C26       1.0  0.85400  0.12590  0.30930  1.0000 -0.1133323346
C   C27       1.0  0.80650  0.08450  0.23370  1.0000 -0.1593317374
C   C28       1.0  0.02700  0.28020  0.42490  1.0000 0.512277868
C   C29       1.0  0.72290  0.47390  0.29980  1.0000 0.0307232555
C   C30       1.0  0.62120  0.36820  0.25610  1.0000 -0.2018216287
C   C31       1.0  0.51640  0.29090  0.28660  1.0000 0.0896682407
C   C32       1.0  0.52270  0.32930  0.36000  1.0000 -0.1789838855
C   C33       1.0  0.63290  0.43900  0.39950  1.0000 0.0809500109
C   C34       1.0  0.40480  0.16970  0.24230  1.0000 0.196064737
C   C35       1.0  0.37970  0.13380  0.16600  1.0000 -0.2369484787
C   C36       1.0  0.28350  0.01990  0.12710  1.0000 0.1100088036
C   C37       1.0  0.21290  0.94630  0.16660  1.0000 -0.2490992357
C   C38       1.0  0.24620  0.98910  0.24430  1.0000 0.2129414569
C   C39       1.0  0.17470  0.91430  0.28980  1.0000 0.0809500109
C   C40       1.0  0.16460  0.79530  0.26790  1.0000 -0.212856311
C   C41       1.0  0.08940  0.72920  0.31070  1.0000 0.0227901417
C   C42       1.0  0.06370  0.88300  0.39460  1.0000 0.0639220032
C   C43       1.0  0.13680  0.95740  0.35610  1.0000 -0.1789838855
C   C44       1.0  0.24970  0.97740  0.04560  1.0000 0.0639220032
C   C45       1.0  0.21120  0.85920  0.00750  1.0000 -0.1593317374
C   C46       1.0  0.17040  0.81880  0.93240  1.0000 -0.1593317374
C   C47       1.0  0.16890  0.89590  0.89130  1.0000 0.0639220032
C   C48       1.0  0.21220  0.01520  0.92980  1.0000 -0.1447452341
C   C49       1.0  0.24910  0.05230  0.00440  1.0000 -0.148636717
C   C50       1.0  0.12020  0.85130  0.80960  1.0000 0.0639220032
C   C51       1.0  0.00060  0.74120  0.77560  1.0000 -0.1708642502
C   C52       1.0  0.95300  0.70000  0.69950  1.0000 -0.1203943972
C   C53       1.0  0.02580  0.76520  0.65740  1.0000 -0.0211033948
C   C54       1.0  0.14600  0.87410  0.69070  1.0000 -0.1133323346
C   C55       1.0  0.19350  0.91550  0.76630  1.0000 -0.1593317374
C   C56       1.0  0.97300  0.71980  0.57510  1.0000 0.512277868
N   N1        1.0  0.26680  0.48830  0.62850  1.0000 -0.22025739
N   N2        1.0  0.66500  0.90070  0.71890  1.0000 -0.3042718802
N   N3        1.0  0.97000  0.23070  0.62680  1.0000 -0.22025739
N   N4        1.0  0.73320  0.51170  0.37150  1.0000 -0.22025739
N   N5        1.0  0.33500  0.09930  0.28110  1.0000 -0.3042718802
N   N6        1.0  0.03000  0.76930  0.37320  1.0000 -0.22025739
O   O1        1.0  0.11900  0.38130  0.45510  1.0000 -0.530151907
O   O2        1.0  0.98060  0.21380  0.46130  1.0000 -0.5126473342
O   O3        1.0  0.88100  0.61870  0.54490  1.0000 -0.530151907
O   O4        1.0  0.01940  0.78620  0.53870  1.0000 -0.5126473342
