# DDEC6 charges by PACMAN v1.1 (https://github.com/mtap-research/PACMAN-charge/)
data_2017[Ag][hcb]2[ASR]6
_chemical_formula_sum              "Ag6 H126 C162 N18 O36"
_cell_length_a       14.2578
_cell_length_b       16.886
_cell_length_c       22.826
_cell_angle_alpha    76.329
_cell_angle_beta     86.767
_cell_angle_gamma    76.943

_symmetry_space_group_name_H-M    "P 1"
_symmetry_Int_Tables_number       1

loop_
  _symmetry_equiv_pos_as_xyz
  'x, y, z'

loop_
  _atom_site_type_symbol
  _atom_site_label
  _atom_site_symmetry_multiplicity
  _atom_site_fract_x
  _atom_site_fract_y
  _atom_site_fract_z
  _atom_site_occupancy
  _atom_site_charge
Ag  Ag1       1.0  0.84071  0.73745  0.45894  1.0000 0.22584602
Ag  Ag2       1.0  0.17637  0.38228  0.79472  1.0000 0.2366374261
Ag  Ag3       1.0  0.47063  0.08614  0.12088  1.0000 0.2230613953
Ag  Ag4       1.0  0.15929  0.26255  0.54106  1.0000 0.22584602
Ag  Ag5       1.0  0.82363  0.61772  0.20528  1.0000 0.2366374261
Ag  Ag6       1.0  0.52937  0.91386  0.87912  1.0000 0.2230613953
H   H1        1.0  0.96220  0.70420  0.34340  1.0000 0.0910763374
H   H2        1.0  0.01160  0.77070  0.24970  1.0000 0.1177513922
H   H3        1.0  0.90760  0.99200  0.29570  1.0000 0.139818748
H   H4        1.0  0.86110  0.91830  0.38780  1.0000 0.1003371993
H   H5        1.0  0.00800  0.96890  0.08800  1.0000 0.1078441329
H   H6        1.0  0.11640  0.95230  0.11120  1.0000 0.1078441329
H   H7        1.0  0.24060  0.31380  0.93660  1.0000 0.1003371993
H   H8        1.0  0.23890  0.36060  0.02490  1.0000 0.1311476167
H   H9        1.0  0.05340  0.57160  0.94360  1.0000 0.1311476167
H   H10       1.0  0.05170  0.51520  0.85990  1.0000 0.1003371993
H   H11       1.0  0.06840  0.62490  0.11060  1.0000 0.1003371993
H   H12       1.0  0.18390  0.60350  0.10720  1.0000 0.1177513922
H   H13       1.0  0.13310  0.22880  0.88780  1.0000 0.1003371993
H   H14       1.0  0.15600  0.08670  0.91320  1.0000 0.1311476167
H   H15       1.0  0.29420  0.08120  0.75460  1.0000 0.1311476167
H   H16       1.0  0.26980  0.22240  0.73420  1.0000 0.1003371993
H   H17       1.0  0.16080  0.84390  0.88420  1.0000 0.1177513922
H   H18       1.0  0.26690  0.82420  0.91180  1.0000 0.1003371993
H   H19       1.0  0.13060  0.94530  0.99790  1.0000 0.1177513922
H   H20       1.0  0.06840  0.76010  0.13180  1.0000 0.1078441329
H   H21       1.0  0.17950  0.70980  0.97400  1.0000 0.1177513922
H   H22       1.0  0.15510  0.57380  0.72130  1.0000 0.1003371993
H   H23       1.0  0.20980  0.65400  0.63590  1.0000 0.139818748
H   H24       1.0  0.35360  0.44180  0.59010  1.0000 0.1177513922
H   H25       1.0  0.29890  0.36600  0.67940  1.0000 0.0910763374
H   H26       1.0  0.34070  0.65450  0.43290  1.0000 0.1003371993
H   H27       1.0  0.44790  0.62980  0.45970  1.0000 0.1003371993
H   H28       1.0  0.44350  0.93500  0.22950  1.0000 0.1003371993
H   H29       1.0  0.46680  0.79090  0.25570  1.0000 0.1311476167
H   H30       1.0  0.61520  0.78460  0.09970  1.0000 0.1177513922
H   H31       1.0  0.58480  0.92700  0.07800  1.0000 0.0910763374
H   H32       1.0  0.47670  0.54330  0.22310  1.0000 0.1177513922
H   H33       1.0  0.58430  0.52650  0.24770  1.0000 0.1003371993
H   H34       1.0  0.30280  0.21410  0.17410  1.0000 0.1003371993
H   H35       1.0  0.27540  0.28630  0.24980  1.0000 0.139818748
H   H36       1.0  0.53270  0.16030  0.32000  1.0000 0.1311476167
H   H37       1.0  0.55470  0.09080  0.24210  1.0000 0.1003371993
H   H38       1.0  0.40130  0.31130  0.44040  1.0000 0.1003371993
H   H39       1.0  0.51610  0.29460  0.44380  1.0000 0.1177513922
H   H40       1.0  0.50410  0.40660  0.30700  1.0000 0.1177513922
H   H41       1.0  0.44960  0.63780  0.33990  1.0000 0.1177513922
H   H42       1.0  0.40220  0.44170  0.46970  1.0000 0.1177513922
H   H43       1.0  0.47800  0.26350  0.04380  1.0000 0.1003371993
H   H44       1.0  0.54560  0.33560  0.95880  1.0000 0.139818748
H   H45       1.0  0.67770  0.11660  0.92350  1.0000 0.1311476167
H   H46       1.0  0.61600  0.04980  0.01170  1.0000 0.0910763374
H   H47       1.0  0.67930  0.31970  0.76060  1.0000 0.1003371993
H   H48       1.0  0.78600  0.29600  0.78800  1.0000 0.1078441329
H   H49       1.0  0.93200  0.76250  0.57300  1.0000 0.1003371993
H   H50       1.0  0.90270  0.83070  0.65180  1.0000 0.1311476167
H   H51       1.0  0.63080  0.92470  0.59170  1.0000 0.1311476167
H   H52       1.0  0.66690  0.85220  0.51610  1.0000 0.1003371993
H   H53       1.0  0.74360  0.96910  0.77820  1.0000 0.1003371993
H   H54       1.0  0.85780  0.95610  0.78400  1.0000 0.1177513922
H   H55       1.0  0.79360  0.58570  0.56200  1.0000 0.1078441329
H   H56       1.0  0.81320  0.44280  0.58590  1.0000 0.1311476167
H   H57       1.0  0.94860  0.43680  0.42600  1.0000 0.1311476167
H   H58       1.0  0.92730  0.57850  0.40680  1.0000 0.0910763374
H   H59       1.0  0.80460  0.20340  0.55370  1.0000 0.1177513922
H   H60       1.0  0.91450  0.18020  0.57550  1.0000 0.1003371993
H   H61       1.0  0.78080  0.29790  0.66750  1.0000 0.1177513922
H   H62       1.0  0.74650  0.10380  0.80480  1.0000 0.1177513922
H   H63       1.0  0.84480  0.06190  0.64280  1.0000 0.1177513922
H   H64       1.0  0.03780  0.29580  0.65660  1.0000 0.0910763374
H   H65       1.0  0.98840  0.22930  0.75030  1.0000 0.1177513922
H   H66       1.0  0.09240  0.00800  0.70430  1.0000 0.139818748
H   H67       1.0  0.13890  0.08170  0.61220  1.0000 0.1003371993
H   H68       1.0  0.99200  0.03110  0.91200  1.0000 0.1078441329
H   H69       1.0  0.88360  0.04770  0.88880  1.0000 0.1078441329
H   H70       1.0  0.75940  0.68620  0.06340  1.0000 0.1003371993
H   H71       1.0  0.76110  0.63940  0.97510  1.0000 0.1311476167
H   H72       1.0  0.94660  0.42840  0.05640  1.0000 0.1311476167
H   H73       1.0  0.94830  0.48480  0.14010  1.0000 0.1003371993
H   H74       1.0  0.93160  0.37510  0.88940  1.0000 0.1003371993
H   H75       1.0  0.81610  0.39650  0.89280  1.0000 0.1177513922
H   H76       1.0  0.86690  0.77120  0.11220  1.0000 0.1003371993
H   H77       1.0  0.84400  0.91330  0.08680  1.0000 0.1311476167
H   H78       1.0  0.70580  0.91880  0.24540  1.0000 0.1311476167
H   H79       1.0  0.73020  0.77760  0.26580  1.0000 0.1003371993
H   H80       1.0  0.83920  0.15610  0.11580  1.0000 0.1177513922
H   H81       1.0  0.73310  0.17580  0.08820  1.0000 0.1003371993
H   H82       1.0  0.86940  0.05470  0.00210  1.0000 0.1177513922
H   H83       1.0  0.93160  0.23990  0.86820  1.0000 0.1078441329
H   H84       1.0  0.82050  0.29020  0.02600  1.0000 0.1177513922
H   H85       1.0  0.84490  0.42620  0.27870  1.0000 0.1003371993
H   H86       1.0  0.79020  0.34600  0.36410  1.0000 0.139818748
H   H87       1.0  0.64640  0.55820  0.40990  1.0000 0.1177513922
H   H88       1.0  0.70110  0.63400  0.32060  1.0000 0.0910763374
H   H89       1.0  0.65930  0.34550  0.56710  1.0000 0.1003371993
H   H90       1.0  0.55210  0.37020  0.54030  1.0000 0.1003371993
H   H91       1.0  0.55650  0.06500  0.77050  1.0000 0.1003371993
H   H92       1.0  0.53320  0.20910  0.74430  1.0000 0.1311476167
H   H93       1.0  0.38480  0.21540  0.90030  1.0000 0.1177513922
H   H94       1.0  0.41520  0.07300  0.92200  1.0000 0.0910763374
H   H95       1.0  0.52330  0.45670  0.77690  1.0000 0.1177513922
H   H96       1.0  0.41570  0.47350  0.75230  1.0000 0.1003371993
H   H97       1.0  0.69720  0.78590  0.82590  1.0000 0.1003371993
H   H98       1.0  0.72460  0.71370  0.75020  1.0000 0.139818748
H   H99       1.0  0.46730  0.83970  0.68000  1.0000 0.1311476167
H   H100      1.0  0.44530  0.90920  0.75790  1.0000 0.1003371993
H   H101      1.0  0.59870  0.68870  0.55960  1.0000 0.1003371993
H   H102      1.0  0.48390  0.70540  0.55620  1.0000 0.1177513922
H   H103      1.0  0.49590  0.59340  0.69300  1.0000 0.1177513922
H   H104      1.0  0.55040  0.36220  0.66010  1.0000 0.1177513922
H   H105      1.0  0.59780  0.55830  0.53030  1.0000 0.1177513922
H   H106      1.0  0.52200  0.73650  0.95620  1.0000 0.1003371993
H   H107      1.0  0.45440  0.66440  0.04120  1.0000 0.139818748
H   H108      1.0  0.32230  0.88340  0.07650  1.0000 0.1311476167
H   H109      1.0  0.38400  0.95020  0.98830  1.0000 0.0910763374
H   H110      1.0  0.32070  0.68030  0.23940  1.0000 0.1003371993
H   H111      1.0  0.21400  0.70400  0.21200  1.0000 0.1078441329
H   H112      1.0  0.06800  0.23750  0.42700  1.0000 0.1003371993
H   H113      1.0  0.09730  0.16930  0.34820  1.0000 0.1311476167
H   H114      1.0  0.36920  0.07530  0.40830  1.0000 0.1311476167
H   H115      1.0  0.33310  0.14780  0.48390  1.0000 0.1003371993
H   H116      1.0  0.25640  0.03090  0.22180  1.0000 0.1003371993
H   H117      1.0  0.14220  0.04390  0.21600  1.0000 0.1177513922
H   H118      1.0  0.20640  0.41430  0.43800  1.0000 0.1078441329
H   H119      1.0  0.18680  0.55720  0.41410  1.0000 0.1311476167
H   H120      1.0  0.05140  0.56320  0.57400  1.0000 0.1311476167
H   H121      1.0  0.07270  0.42150  0.59320  1.0000 0.0910763374
H   H122      1.0  0.19540  0.79660  0.44630  1.0000 0.1177513922
H   H123      1.0  0.08550  0.81980  0.42450  1.0000 0.1003371993
H   H124      1.0  0.21920  0.70210  0.33250  1.0000 0.1177513922
H   H125      1.0  0.25350  0.89620  0.19520  1.0000 0.1177513922
H   H126      1.0  0.15520  0.93810  0.35720  1.0000 0.1177513922
C   C1        1.0  0.95100  0.76350  0.33333  1.0000 0.0401391014
C   C2        1.0  0.98130  0.80270  0.27740  1.0000 -0.1691630469
C   C3        1.0  0.96710  0.88820  0.26250  1.0000 0.0017966853
C   C4        1.0  0.92000  0.93270  0.30460  1.0000 -0.1691630469
C   C5        1.0  0.89220  0.88820  0.35920  1.0000 0.0507216868
C   C6        1.0  0.99580  0.93570  0.20250  1.0000 0.4907295581
C   C7        1.0  0.06280  0.92530  0.10770  1.0000 -0.0887314403
C   C8        1.0  0.20190  0.36710  0.93810  1.0000 0.0589069924
C   C9        1.0  0.20220  0.39470  0.99100  1.0000 -0.1608568326
C   C10       1.0  0.14760  0.47300  0.99270  1.0000 -0.0031611318
C   C11       1.0  0.09220  0.51790  0.94320  1.0000 -0.1608568326
C   C12       1.0  0.09280  0.48490  0.89280  1.0000 0.0507216868
C   C13       1.0  0.15170  0.50670  0.04630  1.0000 0.4907295581
C   C14       1.0  0.12430  0.63010  0.08350  1.0000 -0.0834652898
C   C15       1.0  0.16650  0.19810  0.86020  1.0000 0.0507216868
C   C16       1.0  0.17960  0.11350  0.87570  1.0000 -0.1691630469
C   C17       1.0  0.22750  0.06660  0.83650  1.0000 -0.0179102668
C   C18       1.0  0.26070  0.11050  0.78290  1.0000 -0.1608568326
C   C19       1.0  0.24550  0.19440  0.77100  1.0000 0.0246878206
C   C20       1.0  0.24040  0.97560  0.84840  1.0000 0.4822977509
C   C21       1.0  0.20000  0.85650  0.91380  1.0000 -0.0834652898
C   C22       1.0  0.15980  0.83240  0.97620  1.0000 0.1003371993
C   C23       1.0  0.12860  0.88810  0.01260  1.0000 -0.2289262746
C   C24       1.0  0.09420  0.86130  0.07050  1.0000 0.1003371993
C   C25       1.0  0.09170  0.77820  0.09220  1.0000 -0.2289262746
C   C26       1.0  0.12300  0.72070  0.05670  1.0000 0.1078441329
C   C27       1.0  0.15740  0.74860  0.99860  1.0000 -0.2227051636
C   C28       1.0  0.19770  0.54680  0.69500  1.0000 0.0319259558
C   C29       1.0  0.22840  0.59480  0.64370  1.0000 -0.1608568326
C   C30       1.0  0.28660  0.55660  0.60340  1.0000 -0.0031611318
C   C31       1.0  0.31360  0.47010  0.61690  1.0000 -0.1691630469
C   C32       1.0  0.28100  0.42530  0.67050  1.0000 0.0589069924
C   C33       1.0  0.31920  0.60920  0.54720  1.0000 0.4907295581
C   C34       1.0  0.39240  0.60720  0.45240  1.0000 -0.0834652898
C   C35       1.0  0.47730  0.90370  0.20240  1.0000 0.0589069924
C   C36       1.0  0.49160  0.81770  0.21870  1.0000 -0.1691630469
C   C37       1.0  0.54250  0.77170  0.18030  1.0000 -0.0031611318
C   C38       1.0  0.57840  0.81430  0.12680  1.0000 -0.1691630469
C   C39       1.0  0.55990  0.89870  0.11440  1.0000 0.0319259558
C   C40       1.0  0.55930  0.67950  0.19180  1.0000 0.4822977509
C   C41       1.0  0.51680  0.55590  0.25230  1.0000 -0.0887314403
C   C42       1.0  0.35090  0.20310  0.20390  1.0000 0.0507216868
C   C43       1.0  0.33390  0.24630  0.24900  1.0000 -0.1608568326
C   C44       1.0  0.40180  0.23120  0.29280  1.0000 -0.0031611318
C   C45       1.0  0.48440  0.17270  0.29010  1.0000 -0.1608568326
C   C46       1.0  0.49710  0.13160  0.24350  1.0000 0.0662395782
C   C47       1.0  0.38610  0.27810  0.34180  1.0000 0.4907295581
C   C48       1.0  0.46010  0.31850  0.41640  1.0000 -0.0988845924
C   C49       1.0  0.45540  0.40930  0.39260  1.0000 0.1003371993
C   C50       1.0  0.48390  0.44250  0.33390  1.0000 -0.2097401927
C   C51       1.0  0.48300  0.52600  0.31450  1.0000 0.1078441329
C   C52       1.0  0.45130  0.57980  0.35330  1.0000 -0.2387130019
C   C53       1.0  0.42200  0.54730  0.41240  1.0000 0.1003371993
C   C54       1.0  0.42370  0.46330  0.43020  1.0000 -0.2097401927
C   C55       1.0  0.52040  0.23270  0.01940  1.0000 0.0401391014
C   C56       1.0  0.55960  0.27620  0.96830  1.0000 -0.153291347
C   C57       1.0  0.61780  0.23380  0.93220  1.0000 0.0017966853
C   C58       1.0  0.63760  0.14830  0.94830  1.0000 -0.177369582
C   C59       1.0  0.59920  0.10910  0.00040  1.0000 0.0401391014
C   C60       1.0  0.65570  0.28140  0.87580  1.0000 0.4907295581
C   C61       1.0  0.73040  0.27300  0.78140  1.0000 -0.0834652898
C   C62       1.0  0.86980  0.79610  0.57670  1.0000 0.0819032914
C   C63       1.0  0.85320  0.83690  0.62390  1.0000 -0.1691630469
C   C64       1.0  0.76400  0.88610  0.62930  1.0000 -0.0054860314
C   C65       1.0  0.69360  0.89170  0.58870  1.0000 -0.1608568326
C   C66       1.0  0.71590  0.84860  0.54370  1.0000 0.0319259558
C   C67       1.0  0.73950  0.93280  0.67820  1.0000 0.4907295581
C   C68       1.0  0.80330  0.97680  0.75530  1.0000 -0.0887314403
C   C69       1.0  0.82570  0.55490  0.53410  1.0000 0.0401391014
C   C70       1.0  0.83670  0.46990  0.54850  1.0000 -0.177369582
C   C71       1.0  0.88200  0.42380  0.50840  1.0000 0.0017966853
C   C72       1.0  0.91650  0.46630  0.45460  1.0000 -0.1691630469
C   C73       1.0  0.90330  0.55050  0.44370  1.0000 0.0319259558
C   C74       1.0  0.89410  0.33080  0.51900  1.0000 0.4822977509
C   C75       1.0  0.84930  0.21280  0.58180  1.0000 -0.0834652898
C   C76       1.0  0.81770  0.18480  0.64540  1.0000 0.1078441329
C   C77       1.0  0.78580  0.23970  0.68280  1.0000 -0.2387130019
C   C78       1.0  0.76060  0.20910  0.74340  1.0000 0.1003371993
C   C79       1.0  0.76500  0.12420  0.76440  1.0000 -0.2227051636
C   C80       1.0  0.79560  0.06870  0.72790  1.0000 0.1003371993
C   C81       1.0  0.82270  0.09960  0.66810  1.0000 -0.2227051636
C   C82       1.0  0.04900  0.23650  0.66667  1.0000 0.0401391014
C   C83       1.0  0.01870  0.19730  0.72260  1.0000 -0.1691630469
C   C84       1.0  0.03290  0.11180  0.73750  1.0000 0.0017966853
C   C85       1.0  0.08000  0.06730  0.69540  1.0000 -0.1691630469
C   C86       1.0  0.10780  0.11180  0.64080  1.0000 0.0507216868
C   C87       1.0  0.00420  0.06430  0.79750  1.0000 0.4907295581
C   C88       1.0  0.93720  0.07470  0.89230  1.0000 -0.0887314403
C   C89       1.0  0.79810  0.63290  0.06190  1.0000 0.0589069924
C   C90       1.0  0.79780  0.60530  0.00900  1.0000 -0.1608568326
C   C91       1.0  0.85240  0.52700  0.00730  1.0000 -0.0031611318
C   C92       1.0  0.90780  0.48210  0.05680  1.0000 -0.1608568326
C   C93       1.0  0.90720  0.51510  0.10720  1.0000 0.0507216868
C   C94       1.0  0.84830  0.49330  0.95370  1.0000 0.4907295581
C   C95       1.0  0.87570  0.36990  0.91650  1.0000 -0.0834652898
C   C96       1.0  0.83350  0.80190  0.13980  1.0000 0.0507216868
C   C97       1.0  0.82040  0.88650  0.12430  1.0000 -0.1691630469
C   C98       1.0  0.77250  0.93340  0.16350  1.0000 -0.0179102668
C   C99       1.0  0.73930  0.88950  0.21710  1.0000 -0.1608568326
C   C100      1.0  0.75450  0.80560  0.22900  1.0000 0.0246878206
C   C101      1.0  0.75960  0.02440  0.15160  1.0000 0.4822977509
C   C102      1.0  0.80000  0.14350  0.08620  1.0000 -0.0834652898
C   C103      1.0  0.84020  0.16760  0.02380  1.0000 0.1003371993
C   C104      1.0  0.87140  0.11190  0.98740  1.0000 -0.2289262746
C   C105      1.0  0.90580  0.13870  0.92950  1.0000 0.1003371993
C   C106      1.0  0.90830  0.22180  0.90780  1.0000 -0.2289262746
C   C107      1.0  0.87700  0.27930  0.94330  1.0000 0.1078441329
C   C108      1.0  0.84260  0.25140  0.00140  1.0000 -0.2097401927
C   C109      1.0  0.80230  0.45320  0.30500  1.0000 0.0319259558
C   C110      1.0  0.77160  0.40520  0.35630  1.0000 -0.1608568326
C   C111      1.0  0.71340  0.44340  0.39660  1.0000 -0.0031611318
C   C112      1.0  0.68640  0.52990  0.38310  1.0000 -0.1691630469
C   C113      1.0  0.71900  0.57470  0.32950  1.0000 0.0589069924
C   C114      1.0  0.68080  0.39080  0.45280  1.0000 0.4907295581
C   C115      1.0  0.60760  0.39280  0.54760  1.0000 -0.0834652898
C   C116      1.0  0.52270  0.09630  0.79760  1.0000 0.0589069924
C   C117      1.0  0.50840  0.18230  0.78130  1.0000 -0.1691630469
C   C118      1.0  0.45750  0.22830  0.81970  1.0000 -0.0031611318
C   C119      1.0  0.42160  0.18570  0.87320  1.0000 -0.1691630469
C   C120      1.0  0.44010  0.10130  0.88560  1.0000 0.0319259558
C   C121      1.0  0.44070  0.32050  0.80820  1.0000 0.4822977509
C   C122      1.0  0.48320  0.44410  0.74770  1.0000 -0.0887314403
C   C123      1.0  0.64910  0.79690  0.79610  1.0000 0.0507216868
C   C124      1.0  0.66610  0.75370  0.75100  1.0000 -0.1608568326
C   C125      1.0  0.59820  0.76880  0.70720  1.0000 -0.0031611318
C   C126      1.0  0.51560  0.82730  0.70990  1.0000 -0.1608568326
C   C127      1.0  0.50290  0.86840  0.75650  1.0000 0.0662395782
C   C128      1.0  0.61390  0.72190  0.65820  1.0000 0.4907295581
C   C129      1.0  0.53990  0.68150  0.58360  1.0000 -0.0988845924
C   C130      1.0  0.54460  0.59070  0.60740  1.0000 0.1003371993
C   C131      1.0  0.51610  0.55750  0.66610  1.0000 -0.2097401927
C   C132      1.0  0.51700  0.47400  0.68550  1.0000 0.1078441329
C   C133      1.0  0.54870  0.42020  0.64670  1.0000 -0.2387130019
C   C134      1.0  0.57800  0.45270  0.58760  1.0000 0.1003371993
C   C135      1.0  0.57630  0.53670  0.56980  1.0000 -0.2097401927
C   C136      1.0  0.47960  0.76730  0.98060  1.0000 0.0401391014
C   C137      1.0  0.44040  0.72380  0.03170  1.0000 -0.153291347
C   C138      1.0  0.38220  0.76620  0.06780  1.0000 0.0017966853
C   C139      1.0  0.36240  0.85170  0.05170  1.0000 -0.177369582
C   C140      1.0  0.40080  0.89090  0.99960  1.0000 0.0401391014
C   C141      1.0  0.34430  0.71860  0.12420  1.0000 0.4907295581
C   C142      1.0  0.26960  0.72700  0.21860  1.0000 -0.0887314403
C   C143      1.0  0.13020  0.20390  0.42330  1.0000 0.0819032914
C   C144      1.0  0.14680  0.16310  0.37610  1.0000 -0.1691630469
C   C145      1.0  0.23600  0.11390  0.37070  1.0000 -0.0054860314
C   C146      1.0  0.30640  0.10830  0.41130  1.0000 -0.1608568326
C   C147      1.0  0.28410  0.15140  0.45630  1.0000 0.0319259558
C   C148      1.0  0.26050  0.06720  0.32180  1.0000 0.4907295581
C   C149      1.0  0.19670  0.02320  0.24470  1.0000 -0.0887314403
C   C150      1.0  0.17430  0.44510  0.46590  1.0000 0.0401391014
C   C151      1.0  0.16330  0.53010  0.45150  1.0000 -0.177369582
C   C152      1.0  0.11800  0.57620  0.49160  1.0000 0.0017966853
C   C153      1.0  0.08350  0.53370  0.54540  1.0000 -0.1691630469
C   C154      1.0  0.09670  0.44950  0.55630  1.0000 0.0319259558
C   C155      1.0  0.10590  0.66920  0.48100  1.0000 0.4822977509
C   C156      1.0  0.15070  0.78720  0.41820  1.0000 -0.0887314403
C   C157      1.0  0.18230  0.81520  0.35460  1.0000 0.1078441329
C   C158      1.0  0.21420  0.76030  0.31720  1.0000 -0.2387130019
C   C159      1.0  0.23940  0.79090  0.25660  1.0000 0.1003371993
C   C160      1.0  0.23500  0.87580  0.23560  1.0000 -0.2227051636
C   C161      1.0  0.20440  0.93130  0.27210  1.0000 0.1003371993
C   C162      1.0  0.17730  0.90040  0.33190  1.0000 -0.2289262746
N   N1        1.0  0.90690  0.80500  0.37370  1.0000 -0.2012822353
N   N2        1.0  0.15090  0.41070  0.88960  1.0000 -0.2097401927
N   N3        1.0  0.19740  0.24100  0.80860  1.0000 -0.2097401927
N   N4        1.0  0.22570  0.46220  0.70980  1.0000 -0.2012822353
N   N5        1.0  0.50840  0.94480  0.15060  1.0000 -0.2012822353
N   N6        1.0  0.43120  0.14700  0.20020  1.0000 -0.2012822353
N   N7        1.0  0.53970  0.14910  0.03580  1.0000 -0.1907175803
N   N8        1.0  0.80420  0.80170  0.53710  1.0000 -0.2012822353
N   N9        1.0  0.85830  0.59720  0.48180  1.0000 -0.2097401927
N   N10       1.0  0.09310  0.19500  0.62630  1.0000 -0.2012822353
N   N11       1.0  0.84910  0.58930  0.11040  1.0000 -0.2097401927
N   N12       1.0  0.80260  0.75900  0.19140  1.0000 -0.2097401927
N   N13       1.0  0.77430  0.53780  0.29020  1.0000 -0.2012822353
N   N14       1.0  0.49160  0.05520  0.84940  1.0000 -0.2012822353
N   N15       1.0  0.56880  0.85300  0.79980  1.0000 -0.2012822353
N   N16       1.0  0.46030  0.85090  0.96420  1.0000 -0.1907175803
N   N17       1.0  0.19580  0.19830  0.46290  1.0000 -0.2012822353
N   N18       1.0  0.14170  0.40280  0.51820  1.0000 -0.2097401927
O   O1        1.0  0.98390  0.01050  0.18900  1.0000 -0.4665348107
O   O2        1.0  0.03450  0.88470  0.16669  1.0000 -0.2387130019
O   O3        1.0  0.18140  0.46370  0.09490  1.0000 -0.4881664588
O   O4        1.0  0.12050  0.58940  0.03460  1.0000 -0.2387130019
O   O5        1.0  0.28330  0.93270  0.81600  1.0000 -0.4881664588
O   O6        1.0  0.19830  0.94500  0.89980  1.0000 -0.2289262746
O   O7        1.0  0.30890  0.68370  0.53830  1.0000 -0.4596218043
O   O8        1.0  0.35830  0.56310  0.50870  1.0000 -0.2387130019
O   O9        1.0  0.61450  0.63830  0.16200  1.0000 -0.4881664588
O   O10       1.0  0.51080  0.64580  0.23950  1.0000 -0.2289262746
O   O11       1.0  0.30950  0.31730  0.35410  1.0000 -0.4596218043
O   O12       1.0  0.46860  0.27220  0.36910  1.0000 -0.2227051636
O   O13       1.0  0.65050  0.35500  0.86440  1.0000 -0.4395622932
O   O14       1.0  0.69480  0.23160  0.83891  1.0000 -0.2289262746
O   O15       1.0  0.66040  0.96950  0.68800  1.0000 -0.4596218043
O   O16       1.0  0.81760  0.92850  0.70980  1.0000 -0.2289262746
O   O17       1.0  0.93660  0.29020  0.48590  1.0000 -0.4750958705
O   O18       1.0  0.85000  0.29950  0.56990  1.0000 -0.2227051636
O   O19       1.0  0.01610  0.98950  0.81100  1.0000 -0.4665348107
O   O20       1.0  0.96550  0.11530  0.83331  1.0000 -0.2289262746
O   O21       1.0  0.81860  0.53630  0.90510  1.0000 -0.4881664588
O   O22       1.0  0.87950  0.41060  0.96540  1.0000 -0.2387130019
O   O23       1.0  0.71670  0.06730  0.18400  1.0000 -0.4881664588
O   O24       1.0  0.80170  0.05500  0.10020  1.0000 -0.2289262746
O   O25       1.0  0.69110  0.31630  0.46170  1.0000 -0.4596218043
O   O26       1.0  0.64170  0.43690  0.49130  1.0000 -0.2387130019
O   O27       1.0  0.38550  0.36170  0.83800  1.0000 -0.4881664588
O   O28       1.0  0.48920  0.35420  0.76050  1.0000 -0.2289262746
O   O29       1.0  0.69050  0.68270  0.64590  1.0000 -0.4596218043
O   O30       1.0  0.53140  0.72780  0.63090  1.0000 -0.2227051636
O   O31       1.0  0.34950  0.64500  0.13560  1.0000 -0.4395622932
O   O32       1.0  0.30520  0.76840  0.16109  1.0000 -0.2289262746
O   O33       1.0  0.33960  0.03050  0.31200  1.0000 -0.4596218043
O   O34       1.0  0.18240  0.07150  0.29020  1.0000 -0.2289262746
O   O35       1.0  0.06340  0.70980  0.51410  1.0000 -0.4750958705
O   O36       1.0  0.15000  0.70050  0.43010  1.0000 -0.2227051636
