# DDEC6 charges by PACMAN v1.1 (https://github.com/mtap-research/PACMAN-charge/)
data_2017[IrHf][she]3[ASR]1
_chemical_formula_sum              "Hf24 H144 Ir6 C288 N24 Cl12 O80"
_cell_length_a       33.1867
_cell_length_b       33.1867
_cell_length_c       33.1867
_cell_angle_alpha    109.471
_cell_angle_beta     109.471
_cell_angle_gamma    109.471

_symmetry_space_group_name_H-M    "P 1"
_symmetry_Int_Tables_number       1

loop_
  _symmetry_equiv_pos_as_xyz
  'x, y, z'

loop_
  _atom_site_type_symbol
  _atom_site_label
  _atom_site_symmetry_multiplicity
  _atom_site_fract_x
  _atom_site_fract_y
  _atom_site_fract_z
  _atom_site_occupancy
  _atom_site_charge
Hf  Hf1       1.0  0.41442  0.47865  0.47865  1.0000 1.6601580454
Hf  Hf2       1.0  0.47865  0.00000  0.06423  1.0000 1.6601580454
Hf  Hf3       1.0  0.00000  0.93577  0.52135  1.0000 1.6601580454
Hf  Hf4       1.0  0.93577  0.41442  0.93577  1.0000 1.6601580454
Hf  Hf5       1.0  0.00000  0.47865  0.06423  1.0000 1.6601580454
Hf  Hf6       1.0  0.58558  0.06423  0.06423  1.0000 1.6533854677
Hf  Hf7       1.0  0.00000  0.06423  0.47865  1.0000 1.6601580454
Hf  Hf8       1.0  0.93577  0.93577  0.41442  1.0000 1.6601580454
Hf  Hf9       1.0  0.00000  0.52135  0.93577  1.0000 1.6601580454
Hf  Hf10      1.0  0.47865  0.06423  0.00000  1.0000 1.6601580454
Hf  Hf11      1.0  0.47865  0.41442  0.47865  1.0000 1.6601580454
Hf  Hf12      1.0  0.47865  0.47865  0.41442  1.0000 1.6601580454
Hf  Hf13      1.0  0.06423  0.06423  0.58558  1.0000 1.6601580454
Hf  Hf14      1.0  0.52135  0.00000  0.93577  1.0000 1.6601580454
Hf  Hf15      1.0  0.93577  0.52135  0.00000  1.0000 1.672784753
Hf  Hf16      1.0  0.93577  0.00000  0.52135  1.0000 1.6601580454
Hf  Hf17      1.0  0.06423  0.58558  0.06423  1.0000 1.6601580454
Hf  Hf18      1.0  0.52135  0.93577  0.00000  1.0000 1.6533854677
Hf  Hf19      1.0  0.06423  0.00000  0.47865  1.0000 1.6601580454
Hf  Hf20      1.0  0.52135  0.58558  0.52135  1.0000 1.6601580454
Hf  Hf21      1.0  0.41442  0.93577  0.93577  1.0000 1.6533854677
Hf  Hf22      1.0  0.58558  0.52135  0.52135  1.0000 1.6601580454
Hf  Hf23      1.0  0.06423  0.47865  0.00000  1.0000 1.6601580454
Hf  Hf24      1.0  0.52135  0.52135  0.58558  1.0000 1.6601580454
H   H1        1.0  0.37130  0.59490  0.70940  1.0000 0.1292041613
H   H2        1.0  0.59490  0.88550  0.22360  1.0000 0.1292041613
H   H3        1.0  0.88550  0.66190  0.29060  1.0000 0.1292041613
H   H4        1.0  0.66190  0.37130  0.77640  1.0000 0.1292041613
H   H5        1.0  0.11450  0.70940  0.33810  1.0000 0.1292041613
H   H6        1.0  0.62870  0.33810  0.22360  1.0000 0.1292041613
H   H7        1.0  0.88550  0.22360  0.59490  1.0000 0.1292041613
H   H8        1.0  0.77640  0.66190  0.37130  1.0000 0.1292041613
H   H9        1.0  0.11450  0.40510  0.77640  1.0000 0.1292041613
H   H10       1.0  0.70940  0.33810  0.11450  1.0000 0.1292041613
H   H11       1.0  0.70940  0.37130  0.59490  1.0000 0.1292041613
H   H12       1.0  0.59490  0.70940  0.37130  1.0000 0.1292041613
H   H13       1.0  0.33810  0.22360  0.62870  1.0000 0.1292041613
H   H14       1.0  0.29060  0.88550  0.66190  1.0000 0.1292041613
H   H15       1.0  0.66190  0.29060  0.88550  1.0000 0.1292041613
H   H16       1.0  0.77640  0.11450  0.40510  1.0000 0.1292041613
H   H17       1.0  0.22360  0.62870  0.33810  1.0000 0.1292041613
H   H18       1.0  0.40510  0.77640  0.11450  1.0000 0.1292041613
H   H19       1.0  0.33810  0.11450  0.70940  1.0000 0.1292041613
H   H20       1.0  0.40510  0.62870  0.29060  1.0000 0.1292041613
H   H21       1.0  0.37130  0.77640  0.66190  1.0000 0.1292041613
H   H22       1.0  0.62870  0.29060  0.40510  1.0000 0.1292041613
H   H23       1.0  0.22360  0.59490  0.88550  1.0000 0.1292041613
H   H24       1.0  0.29060  0.40510  0.62870  1.0000 0.1292041613
H   H25       1.0  0.62870  0.40510  0.29060  1.0000 0.1292041613
H   H26       1.0  0.40510  0.11450  0.77640  1.0000 0.1292041613
H   H27       1.0  0.11450  0.33810  0.70940  1.0000 0.1292041613
H   H28       1.0  0.33810  0.62870  0.22360  1.0000 0.1292041613
H   H29       1.0  0.88550  0.29060  0.66190  1.0000 0.1292041613
H   H30       1.0  0.37130  0.66190  0.77640  1.0000 0.1292041613
H   H31       1.0  0.11450  0.77640  0.40510  1.0000 0.1292041613
H   H32       1.0  0.22360  0.33810  0.62870  1.0000 0.1292041613
H   H33       1.0  0.88550  0.59490  0.22360  1.0000 0.1292041613
H   H34       1.0  0.29060  0.66190  0.88550  1.0000 0.1292041613
H   H35       1.0  0.29060  0.62870  0.40510  1.0000 0.1292041613
H   H36       1.0  0.40510  0.29060  0.62870  1.0000 0.1292041613
H   H37       1.0  0.66190  0.77640  0.37130  1.0000 0.1292041613
H   H38       1.0  0.70940  0.11450  0.33810  1.0000 0.1292041613
H   H39       1.0  0.33810  0.70940  0.11450  1.0000 0.1292041613
H   H40       1.0  0.22360  0.88550  0.59490  1.0000 0.1292041613
H   H41       1.0  0.77640  0.37130  0.66190  1.0000 0.1292041613
H   H42       1.0  0.59490  0.22360  0.88550  1.0000 0.1292041613
H   H43       1.0  0.66190  0.88550  0.29060  1.0000 0.1292041613
H   H44       1.0  0.59490  0.37130  0.70940  1.0000 0.1292041613
H   H45       1.0  0.62870  0.22360  0.33810  1.0000 0.1292041613
H   H46       1.0  0.37130  0.70940  0.59490  1.0000 0.1292041613
H   H47       1.0  0.77640  0.40510  0.11450  1.0000 0.1292041613
H   H48       1.0  0.70940  0.59490  0.37130  1.0000 0.1292041613
H   H49       1.0  0.40390  0.52080  0.71570  1.0000 0.1228649689
H   H50       1.0  0.52080  0.80510  0.11690  1.0000 0.1228649689
H   H51       1.0  0.80510  0.68820  0.28430  1.0000 0.1228649689
H   H52       1.0  0.68820  0.40390  0.88310  1.0000 0.1228649689
H   H53       1.0  0.19490  0.71570  0.31180  1.0000 0.1228649689
H   H54       1.0  0.59610  0.31180  0.11690  1.0000 0.1228649689
H   H55       1.0  0.80510  0.11690  0.52080  1.0000 0.1228649689
H   H56       1.0  0.88310  0.68820  0.40390  1.0000 0.1228649689
H   H57       1.0  0.19490  0.47920  0.88310  1.0000 0.1228649689
H   H58       1.0  0.71570  0.31180  0.19490  1.0000 0.1228649689
H   H59       1.0  0.71570  0.40390  0.52080  1.0000 0.1228649689
H   H60       1.0  0.52080  0.71570  0.40390  1.0000 0.1228649689
H   H61       1.0  0.31180  0.11690  0.59610  1.0000 0.1228649689
H   H62       1.0  0.28430  0.80510  0.68820  1.0000 0.1228649689
H   H63       1.0  0.68820  0.28430  0.80510  1.0000 0.1228649689
H   H64       1.0  0.88310  0.19490  0.47920  1.0000 0.1228649689
H   H65       1.0  0.11690  0.59610  0.31180  1.0000 0.1228649689
H   H66       1.0  0.47920  0.88310  0.19490  1.0000 0.1228649689
H   H67       1.0  0.31180  0.19490  0.71570  1.0000 0.1228649689
H   H68       1.0  0.47920  0.59610  0.28430  1.0000 0.1228649689
H   H69       1.0  0.40390  0.88310  0.68820  1.0000 0.1228649689
H   H70       1.0  0.59610  0.28430  0.47920  1.0000 0.1228649689
H   H71       1.0  0.11690  0.52080  0.80510  1.0000 0.1228649689
H   H72       1.0  0.28430  0.47920  0.59610  1.0000 0.1228649689
H   H73       1.0  0.59610  0.47920  0.28430  1.0000 0.1228649689
H   H74       1.0  0.47920  0.19490  0.88310  1.0000 0.1228649689
H   H75       1.0  0.19490  0.31180  0.71570  1.0000 0.1228649689
H   H76       1.0  0.31180  0.59610  0.11690  1.0000 0.1228649689
H   H77       1.0  0.80510  0.28430  0.68820  1.0000 0.1228649689
H   H78       1.0  0.40390  0.68820  0.88310  1.0000 0.1228649689
H   H79       1.0  0.19490  0.88310  0.47920  1.0000 0.1228649689
H   H80       1.0  0.11690  0.31180  0.59610  1.0000 0.1228649689
H   H81       1.0  0.80510  0.52080  0.11690  1.0000 0.1228649689
H   H82       1.0  0.28430  0.68820  0.80510  1.0000 0.1228649689
H   H83       1.0  0.28430  0.59610  0.47920  1.0000 0.1228649689
H   H84       1.0  0.47920  0.28430  0.59610  1.0000 0.1228649689
H   H85       1.0  0.68820  0.88310  0.40390  1.0000 0.1228649689
H   H86       1.0  0.71570  0.19490  0.31180  1.0000 0.1228649689
H   H87       1.0  0.31180  0.71570  0.19490  1.0000 0.1228649689
H   H88       1.0  0.11690  0.80510  0.52080  1.0000 0.1228649689
H   H89       1.0  0.88310  0.40390  0.68820  1.0000 0.1228649689
H   H90       1.0  0.52080  0.11690  0.80510  1.0000 0.1228649689
H   H91       1.0  0.68820  0.80510  0.28430  1.0000 0.1228649689
H   H92       1.0  0.52080  0.40390  0.71570  1.0000 0.1228649689
H   H93       1.0  0.59610  0.11690  0.31180  1.0000 0.1228649689
H   H94       1.0  0.40390  0.71570  0.52080  1.0000 0.1228649689
H   H95       1.0  0.88310  0.47920  0.19490  1.0000 0.1228649689
H   H96       1.0  0.71570  0.52080  0.40390  1.0000 0.1228649689
H   H97       1.0  0.44660  0.51660  0.67180  1.0000 0.1292041613
H   H98       1.0  0.51660  0.84480  0.07000  1.0000 0.1292041613
H   H99       1.0  0.84480  0.77480  0.32820  1.0000 0.1292041613
H   H100      1.0  0.77480  0.44660  0.93000  1.0000 0.1292041613
H   H101      1.0  0.15520  0.67180  0.22520  1.0000 0.1292041613
H   H102      1.0  0.55340  0.22520  0.07000  1.0000 0.1292041613
H   H103      1.0  0.84480  0.07000  0.51660  1.0000 0.1292041613
H   H104      1.0  0.93000  0.77480  0.44660  1.0000 0.1292041613
H   H105      1.0  0.15520  0.48340  0.93000  1.0000 0.1292041613
H   H106      1.0  0.67180  0.22520  0.15520  1.0000 0.1292041613
H   H107      1.0  0.67180  0.44660  0.51660  1.0000 0.1292041613
H   H108      1.0  0.51660  0.67180  0.44660  1.0000 0.1292041613
H   H109      1.0  0.22520  0.07000  0.55340  1.0000 0.1292041613
H   H110      1.0  0.32820  0.84480  0.77480  1.0000 0.1292041613
H   H111      1.0  0.77480  0.32820  0.84480  1.0000 0.1292041613
H   H112      1.0  0.93000  0.15520  0.48340  1.0000 0.1292041613
H   H113      1.0  0.07000  0.55340  0.22520  1.0000 0.1292041613
H   H114      1.0  0.48340  0.93000  0.15520  1.0000 0.1292041613
H   H115      1.0  0.22520  0.15520  0.67180  1.0000 0.1292041613
H   H116      1.0  0.48340  0.55340  0.32820  1.0000 0.1292041613
H   H117      1.0  0.44660  0.93000  0.77480  1.0000 0.1292041613
H   H118      1.0  0.55340  0.32820  0.48340  1.0000 0.1292041613
H   H119      1.0  0.07000  0.51660  0.84480  1.0000 0.1292041613
H   H120      1.0  0.32820  0.48340  0.55340  1.0000 0.1292041613
H   H121      1.0  0.55340  0.48340  0.32820  1.0000 0.1292041613
H   H122      1.0  0.48340  0.15520  0.93000  1.0000 0.1292041613
H   H123      1.0  0.15520  0.22520  0.67180  1.0000 0.1292041613
H   H124      1.0  0.22520  0.55340  0.07000  1.0000 0.1292041613
H   H125      1.0  0.84480  0.32820  0.77480  1.0000 0.1292041613
H   H126      1.0  0.44660  0.77480  0.93000  1.0000 0.1292041613
H   H127      1.0  0.15520  0.93000  0.48340  1.0000 0.1292041613
H   H128      1.0  0.07000  0.22520  0.55340  1.0000 0.1292041613
H   H129      1.0  0.84480  0.51660  0.07000  1.0000 0.1292041613
H   H130      1.0  0.32820  0.77480  0.84480  1.0000 0.1292041613
H   H131      1.0  0.32820  0.55340  0.48340  1.0000 0.1292041613
H   H132      1.0  0.48340  0.32820  0.55340  1.0000 0.1292041613
H   H133      1.0  0.77480  0.93000  0.44660  1.0000 0.1292041613
H   H134      1.0  0.67180  0.15520  0.22520  1.0000 0.1292041613
H   H135      1.0  0.22520  0.67180  0.15520  1.0000 0.1292041613
H   H136      1.0  0.07000  0.84480  0.51660  1.0000 0.1292041613
H   H137      1.0  0.93000  0.44660  0.77480  1.0000 0.1292041613
H   H138      1.0  0.51660  0.07000  0.84480  1.0000 0.1292041613
H   H139      1.0  0.77480  0.84480  0.32820  1.0000 0.1292041613
H   H140      1.0  0.51660  0.44660  0.67180  1.0000 0.1292041613
H   H141      1.0  0.55340  0.07000  0.22520  1.0000 0.1292041613
H   H142      1.0  0.44660  0.67180  0.51660  1.0000 0.1292041613
H   H143      1.0  0.93000  0.48340  0.15520  1.0000 0.1292041613
H   H144      1.0  0.67180  0.51660  0.44660  1.0000 0.1292041613
Ir  Ir1       1.0  0.25000  0.50000  0.75000  1.0000 0.894925244
Ir  Ir2       1.0  0.50000  0.75000  0.25000  1.0000 0.894925244
Ir  Ir3       1.0  0.75000  0.50000  0.25000  1.0000 0.8959558679
Ir  Ir4       1.0  0.50000  0.25000  0.75000  1.0000 0.8959558679
Ir  Ir5       1.0  0.25000  0.75000  0.50000  1.0000 0.894925244
Ir  Ir6       1.0  0.75000  0.25000  0.50000  1.0000 0.8959558679
C   C1        1.0  0.31920  0.54360  0.71800  1.0000 0.1646313405
C   C2        1.0  0.54360  0.82560  0.22440  1.0000 0.1646313405
C   C3        1.0  0.82560  0.60120  0.28200  1.0000 0.1646313405
C   C4        1.0  0.60120  0.31920  0.77560  1.0000 0.1646313405
C   C5        1.0  0.17440  0.71800  0.39880  1.0000 0.1646313405
C   C6        1.0  0.68080  0.39880  0.22440  1.0000 0.1646313405
C   C7        1.0  0.82560  0.22440  0.54360  1.0000 0.1646313405
C   C8        1.0  0.77560  0.60120  0.31920  1.0000 0.1646313405
C   C9        1.0  0.17440  0.45640  0.77560  1.0000 0.1646313405
C   C10       1.0  0.71800  0.39880  0.17440  1.0000 0.1646313405
C   C11       1.0  0.71800  0.31920  0.54360  1.0000 0.1646313405
C   C12       1.0  0.54360  0.71800  0.31920  1.0000 0.1646313405
C   C13       1.0  0.39880  0.22440  0.68080  1.0000 0.1646313405
C   C14       1.0  0.28200  0.82560  0.60120  1.0000 0.1646313405
C   C15       1.0  0.60120  0.28200  0.82560  1.0000 0.1646313405
C   C16       1.0  0.77560  0.17440  0.45640  1.0000 0.1646313405
C   C17       1.0  0.22440  0.68080  0.39880  1.0000 0.1646313405
C   C18       1.0  0.45640  0.77560  0.17440  1.0000 0.1646313405
C   C19       1.0  0.39880  0.17440  0.71800  1.0000 0.1646313405
C   C20       1.0  0.45640  0.68080  0.28200  1.0000 0.1646313405
C   C21       1.0  0.31920  0.77560  0.60120  1.0000 0.1646313405
C   C22       1.0  0.68080  0.28200  0.45640  1.0000 0.1646313405
C   C23       1.0  0.22440  0.54360  0.82560  1.0000 0.1646313405
C   C24       1.0  0.28200  0.45640  0.68080  1.0000 0.1646313405
C   C25       1.0  0.68080  0.45640  0.28200  1.0000 0.1646313405
C   C26       1.0  0.45640  0.17440  0.77560  1.0000 0.1646313405
C   C27       1.0  0.17440  0.39880  0.71800  1.0000 0.1646313405
C   C28       1.0  0.39880  0.68080  0.22440  1.0000 0.1646313405
C   C29       1.0  0.82560  0.28200  0.60120  1.0000 0.1646313405
C   C30       1.0  0.31920  0.60120  0.77560  1.0000 0.1646313405
C   C31       1.0  0.17440  0.77560  0.45640  1.0000 0.1646313405
C   C32       1.0  0.22440  0.39880  0.68080  1.0000 0.1646313405
C   C33       1.0  0.82560  0.54360  0.22440  1.0000 0.1646313405
C   C34       1.0  0.28200  0.60120  0.82560  1.0000 0.1646313405
C   C35       1.0  0.28200  0.68080  0.45640  1.0000 0.1646313405
C   C36       1.0  0.45640  0.28200  0.68080  1.0000 0.1646313405
C   C37       1.0  0.60120  0.77560  0.31920  1.0000 0.1646313405
C   C38       1.0  0.71800  0.17440  0.39880  1.0000 0.1646313405
C   C39       1.0  0.39880  0.71800  0.17440  1.0000 0.1646313405
C   C40       1.0  0.22440  0.82560  0.54360  1.0000 0.1646313405
C   C41       1.0  0.77560  0.31920  0.60120  1.0000 0.1646313405
C   C42       1.0  0.54360  0.22440  0.82560  1.0000 0.1646313405
C   C43       1.0  0.60120  0.82560  0.28200  1.0000 0.1646313405
C   C44       1.0  0.54360  0.31920  0.71800  1.0000 0.1646313405
C   C45       1.0  0.68080  0.22440  0.39880  1.0000 0.1646313405
C   C46       1.0  0.31920  0.71800  0.54360  1.0000 0.1646313405
C   C47       1.0  0.77560  0.45640  0.17440  1.0000 0.1646313405
C   C48       1.0  0.71800  0.54360  0.31920  1.0000 0.1646313405
C   C49       1.0  0.35300  0.59010  0.72570  1.0000 -0.1967648825
C   C50       1.0  0.59010  0.86440  0.23710  1.0000 -0.1967648825
C   C51       1.0  0.86440  0.62730  0.27430  1.0000 -0.1967648825
C   C52       1.0  0.62730  0.35300  0.76290  1.0000 -0.1967648825
C   C53       1.0  0.13560  0.72570  0.37270  1.0000 -0.1967648825
C   C54       1.0  0.64700  0.37270  0.23710  1.0000 -0.1967648825
C   C55       1.0  0.86440  0.23710  0.59010  1.0000 -0.1967648825
C   C56       1.0  0.76290  0.62730  0.35300  1.0000 -0.1967648825
C   C57       1.0  0.13560  0.40990  0.76290  1.0000 -0.1967648825
C   C58       1.0  0.72570  0.37270  0.13560  1.0000 -0.1967648825
C   C59       1.0  0.72570  0.35300  0.59010  1.0000 -0.1967648825
C   C60       1.0  0.59010  0.72570  0.35300  1.0000 -0.1967648825
C   C61       1.0  0.37270  0.23710  0.64700  1.0000 -0.1967648825
C   C62       1.0  0.27430  0.86440  0.62730  1.0000 -0.1967648825
C   C63       1.0  0.62730  0.27430  0.86440  1.0000 -0.1967648825
C   C64       1.0  0.76290  0.13560  0.40990  1.0000 -0.1967648825
C   C65       1.0  0.23710  0.64700  0.37270  1.0000 -0.1967648825
C   C66       1.0  0.40990  0.76290  0.13560  1.0000 -0.1967648825
C   C67       1.0  0.37270  0.13560  0.72570  1.0000 -0.1967648825
C   C68       1.0  0.40990  0.64700  0.27430  1.0000 -0.1967648825
C   C69       1.0  0.35300  0.76290  0.62730  1.0000 -0.1967648825
C   C70       1.0  0.64700  0.27430  0.40990  1.0000 -0.1967648825
C   C71       1.0  0.23710  0.59010  0.86440  1.0000 -0.1967648825
C   C72       1.0  0.27430  0.40990  0.64700  1.0000 -0.1967648825
C   C73       1.0  0.64700  0.40990  0.27430  1.0000 -0.1967648825
C   C74       1.0  0.40990  0.13560  0.76290  1.0000 -0.1967648825
C   C75       1.0  0.13560  0.37270  0.72570  1.0000 -0.1967648825
C   C76       1.0  0.37270  0.64700  0.23710  1.0000 -0.1967648825
C   C77       1.0  0.86440  0.27430  0.62730  1.0000 -0.1967648825
C   C78       1.0  0.35300  0.62730  0.76290  1.0000 -0.1967648825
C   C79       1.0  0.13560  0.76290  0.40990  1.0000 -0.1967648825
C   C80       1.0  0.23710  0.37270  0.64700  1.0000 -0.1967648825
C   C81       1.0  0.86440  0.59010  0.23710  1.0000 -0.1967648825
C   C82       1.0  0.27430  0.62730  0.86440  1.0000 -0.1967648825
C   C83       1.0  0.27430  0.64700  0.40990  1.0000 -0.1967648825
C   C84       1.0  0.40990  0.27430  0.64700  1.0000 -0.1967648825
C   C85       1.0  0.62730  0.76290  0.35300  1.0000 -0.1967648825
C   C86       1.0  0.72570  0.13560  0.37270  1.0000 -0.1967648825
C   C87       1.0  0.37270  0.72570  0.13560  1.0000 -0.1967648825
C   C88       1.0  0.23710  0.86440  0.59010  1.0000 -0.1967648825
C   C89       1.0  0.76290  0.35300  0.62730  1.0000 -0.1967648825
C   C90       1.0  0.59010  0.23710  0.86440  1.0000 -0.1967648825
C   C91       1.0  0.62730  0.86440  0.27430  1.0000 -0.1967648825
C   C92       1.0  0.59010  0.35300  0.72570  1.0000 -0.1967648825
C   C93       1.0  0.64700  0.23710  0.37270  1.0000 -0.1967648825
C   C94       1.0  0.35300  0.72570  0.59010  1.0000 -0.1967648825
C   C95       1.0  0.76290  0.40990  0.13560  1.0000 -0.1967648825
C   C96       1.0  0.72570  0.59010  0.35300  1.0000 -0.1967648825
C   C97       1.0  0.31270  0.50000  0.68730  1.0000 -0.0728958872
C   C98       1.0  0.50000  0.81270  0.18730  1.0000 -0.0728958872
C   C99       1.0  0.81270  0.62540  0.31270  1.0000 -0.0728958872
C   C100      1.0  0.62540  0.31270  0.81270  1.0000 -0.0728958872
C   C101      1.0  0.18730  0.68730  0.37460  1.0000 -0.0728958872
C   C102      1.0  0.68730  0.37460  0.18730  1.0000 -0.0728958872
C   C103      1.0  0.81270  0.18730  0.50000  1.0000 -0.0728958872
C   C104      1.0  0.18730  0.50000  0.81270  1.0000 -0.0728958872
C   C105      1.0  0.68730  0.31270  0.50000  1.0000 -0.0728958872
C   C106      1.0  0.50000  0.68730  0.31270  1.0000 -0.0728958872
C   C107      1.0  0.37460  0.18730  0.68730  1.0000 -0.0728958872
C   C108      1.0  0.31270  0.81270  0.62540  1.0000 -0.0728958872
C   C109      1.0  0.68730  0.50000  0.31270  1.0000 -0.0728958872
C   C110      1.0  0.50000  0.18730  0.81270  1.0000 -0.0728958872
C   C111      1.0  0.18730  0.37460  0.68730  1.0000 -0.0728958872
C   C112      1.0  0.37460  0.68730  0.18730  1.0000 -0.0728958872
C   C113      1.0  0.81270  0.31270  0.62540  1.0000 -0.0728958872
C   C114      1.0  0.31270  0.62540  0.81270  1.0000 -0.0728958872
C   C115      1.0  0.18730  0.81270  0.50000  1.0000 -0.0728958872
C   C116      1.0  0.81270  0.50000  0.18730  1.0000 -0.0728958872
C   C117      1.0  0.31270  0.68730  0.50000  1.0000 -0.0728958872
C   C118      1.0  0.50000  0.31270  0.68730  1.0000 -0.0728958872
C   C119      1.0  0.62540  0.81270  0.31270  1.0000 -0.0728958872
C   C120      1.0  0.68730  0.18730  0.37460  1.0000 -0.0728958872
C   C121      1.0  0.34070  0.50000  0.65930  1.0000 0.0847928854
C   C122      1.0  0.50000  0.84070  0.15930  1.0000 0.0847928854
C   C123      1.0  0.84070  0.68140  0.34070  1.0000 0.0847928854
C   C124      1.0  0.68140  0.34070  0.84070  1.0000 0.0847928854
C   C125      1.0  0.15930  0.65930  0.31860  1.0000 0.0847928854
C   C126      1.0  0.65930  0.31860  0.15930  1.0000 0.0847928854
C   C127      1.0  0.84070  0.15930  0.50000  1.0000 0.0847928854
C   C128      1.0  0.15930  0.50000  0.84070  1.0000 0.0847928854
C   C129      1.0  0.65930  0.34070  0.50000  1.0000 0.0847928854
C   C130      1.0  0.50000  0.65930  0.34070  1.0000 0.0847928854
C   C131      1.0  0.31860  0.15930  0.65930  1.0000 0.0847928854
C   C132      1.0  0.34070  0.84070  0.68140  1.0000 0.0847928854
C   C133      1.0  0.65930  0.50000  0.34070  1.0000 0.0847928854
C   C134      1.0  0.50000  0.15930  0.84070  1.0000 0.0847928854
C   C135      1.0  0.15930  0.31860  0.65930  1.0000 0.0847928854
C   C136      1.0  0.31860  0.65930  0.15930  1.0000 0.0847928854
C   C137      1.0  0.84070  0.34070  0.68140  1.0000 0.0847928854
C   C138      1.0  0.34070  0.68140  0.84070  1.0000 0.0847928854
C   C139      1.0  0.15930  0.84070  0.50000  1.0000 0.0847928854
C   C140      1.0  0.84070  0.50000  0.15930  1.0000 0.0847928854
C   C141      1.0  0.34070  0.65930  0.50000  1.0000 0.0847928854
C   C142      1.0  0.50000  0.34070  0.65930  1.0000 0.0847928854
C   C143      1.0  0.68140  0.84070  0.34070  1.0000 0.0847928854
C   C144      1.0  0.65930  0.15930  0.31860  1.0000 0.0847928854
C   C145      1.0  0.38790  0.51160  0.68190  1.0000 -0.1483734301
C   C146      1.0  0.51160  0.82970  0.12370  1.0000 -0.1483734301
C   C147      1.0  0.82970  0.70600  0.31810  1.0000 -0.1483734301
C   C148      1.0  0.70600  0.38790  0.87630  1.0000 -0.1483734301
C   C149      1.0  0.17030  0.68190  0.29400  1.0000 -0.1483734301
C   C150      1.0  0.61210  0.29400  0.12370  1.0000 -0.1483734301
C   C151      1.0  0.82970  0.12370  0.51160  1.0000 -0.1483734301
C   C152      1.0  0.87630  0.70600  0.38790  1.0000 -0.1483734301
C   C153      1.0  0.17030  0.48840  0.87630  1.0000 -0.1483734301
C   C154      1.0  0.68190  0.29400  0.17030  1.0000 -0.1483734301
C   C155      1.0  0.68190  0.38790  0.51160  1.0000 -0.1483734301
C   C156      1.0  0.51160  0.68190  0.38790  1.0000 -0.1483734301
C   C157      1.0  0.29400  0.12370  0.61210  1.0000 -0.1483734301
C   C158      1.0  0.31810  0.82970  0.70600  1.0000 -0.1483734301
C   C159      1.0  0.70600  0.31810  0.82970  1.0000 -0.1483734301
C   C160      1.0  0.87630  0.17030  0.48840  1.0000 -0.1483734301
C   C161      1.0  0.12370  0.61210  0.29400  1.0000 -0.1483734301
C   C162      1.0  0.48840  0.87630  0.17030  1.0000 -0.1483734301
C   C163      1.0  0.29400  0.17030  0.68190  1.0000 -0.1483734301
C   C164      1.0  0.48840  0.61210  0.31810  1.0000 -0.1483734301
C   C165      1.0  0.38790  0.87630  0.70600  1.0000 -0.1483734301
C   C166      1.0  0.61210  0.31810  0.48840  1.0000 -0.1483734301
C   C167      1.0  0.12370  0.51160  0.82970  1.0000 -0.1483734301
C   C168      1.0  0.31810  0.48840  0.61210  1.0000 -0.1483734301
C   C169      1.0  0.61210  0.48840  0.31810  1.0000 -0.1483734301
C   C170      1.0  0.48840  0.17030  0.87630  1.0000 -0.1483734301
C   C171      1.0  0.17030  0.29400  0.68190  1.0000 -0.1483734301
C   C172      1.0  0.29400  0.61210  0.12370  1.0000 -0.1483734301
C   C173      1.0  0.82970  0.31810  0.70600  1.0000 -0.1483734301
C   C174      1.0  0.38790  0.70600  0.87630  1.0000 -0.1483734301
C   C175      1.0  0.17030  0.87630  0.48840  1.0000 -0.1483734301
C   C176      1.0  0.12370  0.29400  0.61210  1.0000 -0.1483734301
C   C177      1.0  0.82970  0.51160  0.12370  1.0000 -0.1483734301
C   C178      1.0  0.31810  0.70600  0.82970  1.0000 -0.1483734301
C   C179      1.0  0.31810  0.61210  0.48840  1.0000 -0.1483734301
C   C180      1.0  0.48840  0.31810  0.61210  1.0000 -0.1483734301
C   C181      1.0  0.70600  0.87630  0.38790  1.0000 -0.1483734301
C   C182      1.0  0.68190  0.17030  0.29400  1.0000 -0.1483734301
C   C183      1.0  0.29400  0.68190  0.17030  1.0000 -0.1483734301
C   C184      1.0  0.12370  0.82970  0.51160  1.0000 -0.1483734301
C   C185      1.0  0.87630  0.38790  0.70600  1.0000 -0.1483734301
C   C186      1.0  0.51160  0.12370  0.82970  1.0000 -0.1483734301
C   C187      1.0  0.70600  0.82970  0.31810  1.0000 -0.1483734301
C   C188      1.0  0.51160  0.38790  0.68190  1.0000 -0.1483734301
C   C189      1.0  0.61210  0.12370  0.29400  1.0000 -0.1483734301
C   C190      1.0  0.38790  0.68190  0.51160  1.0000 -0.1483734301
C   C191      1.0  0.87630  0.48840  0.17030  1.0000 -0.1483734301
C   C192      1.0  0.68190  0.51160  0.38790  1.0000 -0.1483734301
C   C193      1.0  0.41370  0.51030  0.65620  1.0000 -0.0897021309
C   C194      1.0  0.51030  0.85410  0.09660  1.0000 -0.0897021309
C   C195      1.0  0.85410  0.75750  0.34380  1.0000 -0.0897021309
C   C196      1.0  0.75750  0.41370  0.90340  1.0000 -0.0897021309
C   C197      1.0  0.14590  0.65620  0.24250  1.0000 -0.0897021309
C   C198      1.0  0.58630  0.24250  0.09660  1.0000 -0.0897021309
C   C199      1.0  0.85410  0.09660  0.51030  1.0000 -0.0897021309
C   C200      1.0  0.90340  0.75750  0.41370  1.0000 -0.0897021309
C   C201      1.0  0.14590  0.48970  0.90340  1.0000 -0.0897021309
C   C202      1.0  0.65620  0.24250  0.14590  1.0000 -0.0897021309
C   C203      1.0  0.65620  0.41370  0.51030  1.0000 -0.0897021309
C   C204      1.0  0.51030  0.65620  0.41370  1.0000 -0.0897021309
C   C205      1.0  0.24250  0.09660  0.58630  1.0000 -0.0897021309
C   C206      1.0  0.34380  0.85410  0.75750  1.0000 -0.0897021309
C   C207      1.0  0.75750  0.34380  0.85410  1.0000 -0.0897021309
C   C208      1.0  0.90340  0.14590  0.48970  1.0000 -0.0897021309
C   C209      1.0  0.09660  0.58630  0.24250  1.0000 -0.0897021309
C   C210      1.0  0.48970  0.90340  0.14590  1.0000 -0.0897021309
C   C211      1.0  0.24250  0.14590  0.65620  1.0000 -0.0897021309
C   C212      1.0  0.48970  0.58630  0.34380  1.0000 -0.0897021309
C   C213      1.0  0.41370  0.90340  0.75750  1.0000 -0.0897021309
C   C214      1.0  0.58630  0.34380  0.48970  1.0000 -0.0897021309
C   C215      1.0  0.09660  0.51030  0.85410  1.0000 -0.0897021309
C   C216      1.0  0.34380  0.48970  0.58630  1.0000 -0.0897021309
C   C217      1.0  0.58630  0.48970  0.34380  1.0000 -0.0897021309
C   C218      1.0  0.48970  0.14590  0.90340  1.0000 -0.0897021309
C   C219      1.0  0.14590  0.24250  0.65620  1.0000 -0.0897021309
C   C220      1.0  0.24250  0.58630  0.09660  1.0000 -0.0897021309
C   C221      1.0  0.85410  0.34380  0.75750  1.0000 -0.0897021309
C   C222      1.0  0.41370  0.75750  0.90340  1.0000 -0.0897021309
C   C223      1.0  0.14590  0.90340  0.48970  1.0000 -0.0897021309
C   C224      1.0  0.09660  0.24250  0.58630  1.0000 -0.0897021309
C   C225      1.0  0.85410  0.51030  0.09660  1.0000 -0.0897021309
C   C226      1.0  0.34380  0.75750  0.85410  1.0000 -0.0897021309
C   C227      1.0  0.34380  0.58630  0.48970  1.0000 -0.0897021309
C   C228      1.0  0.48970  0.34380  0.58630  1.0000 -0.0897021309
C   C229      1.0  0.75750  0.90340  0.41370  1.0000 -0.0897021309
C   C230      1.0  0.65620  0.14590  0.24250  1.0000 -0.0897021309
C   C231      1.0  0.24250  0.65620  0.14590  1.0000 -0.0897021309
C   C232      1.0  0.09660  0.85410  0.51030  1.0000 -0.0897021309
C   C233      1.0  0.90340  0.41370  0.75750  1.0000 -0.0897021309
C   C234      1.0  0.51030  0.09660  0.85410  1.0000 -0.0897021309
C   C235      1.0  0.75750  0.85410  0.34380  1.0000 -0.0897021309
C   C236      1.0  0.51030  0.41370  0.65620  1.0000 -0.0897021309
C   C237      1.0  0.58630  0.09660  0.24250  1.0000 -0.0897021309
C   C238      1.0  0.41370  0.65620  0.51030  1.0000 -0.0897021309
C   C239      1.0  0.90340  0.48970  0.14590  1.0000 -0.0897021309
C   C240      1.0  0.65620  0.51030  0.41370  1.0000 -0.0897021309
C   C241      1.0  0.39130  0.50000  0.60870  1.0000 -0.0269472082
C   C242      1.0  0.50000  0.89130  0.10870  1.0000 -0.0269472082
C   C243      1.0  0.89130  0.78260  0.39130  1.0000 -0.0269472082
C   C244      1.0  0.78260  0.39130  0.89130  1.0000 -0.0269472082
C   C245      1.0  0.10870  0.60870  0.21740  1.0000 -0.0269472082
C   C246      1.0  0.60870  0.21740  0.10870  1.0000 -0.0269472082
C   C247      1.0  0.89130  0.10870  0.50000  1.0000 -0.0269472082
C   C248      1.0  0.10870  0.50000  0.89130  1.0000 -0.0269472082
C   C249      1.0  0.60870  0.39130  0.50000  1.0000 -0.0269472082
C   C250      1.0  0.50000  0.60870  0.39130  1.0000 -0.0269472082
C   C251      1.0  0.21740  0.10870  0.60870  1.0000 -0.0269472082
C   C252      1.0  0.39130  0.89130  0.78260  1.0000 -0.0269472082
C   C253      1.0  0.60870  0.50000  0.39130  1.0000 -0.0269472082
C   C254      1.0  0.50000  0.10870  0.89130  1.0000 -0.0269472082
C   C255      1.0  0.10870  0.21740  0.60870  1.0000 -0.0269472082
C   C256      1.0  0.21740  0.60870  0.10870  1.0000 -0.0269472082
C   C257      1.0  0.89130  0.39130  0.78260  1.0000 -0.0269472082
C   C258      1.0  0.39130  0.78260  0.89130  1.0000 -0.0269472082
C   C259      1.0  0.10870  0.89130  0.50000  1.0000 -0.0269472082
C   C260      1.0  0.89130  0.50000  0.10870  1.0000 -0.0269472082
C   C261      1.0  0.39130  0.60870  0.50000  1.0000 -0.0269472082
C   C262      1.0  0.50000  0.39130  0.60870  1.0000 -0.0269472082
C   C263      1.0  0.78260  0.89130  0.39130  1.0000 -0.0269472082
C   C264      1.0  0.60870  0.10870  0.21740  1.0000 -0.0269472082
C   C265      1.0  0.41970  0.50000  0.58030  1.0000 0.5656509472
C   C266      1.0  0.50000  0.91970  0.08030  1.0000 0.5638193561
C   C267      1.0  0.91970  0.83940  0.41970  1.0000 0.5656509472
C   C268      1.0  0.83940  0.41970  0.91970  1.0000 0.5656509472
C   C269      1.0  0.08030  0.58030  0.16060  1.0000 0.5656509472
C   C270      1.0  0.58030  0.16060  0.08030  1.0000 0.5638193561
C   C271      1.0  0.91970  0.08030  0.50000  1.0000 0.5656509472
C   C272      1.0  0.08030  0.50000  0.91970  1.0000 0.5656509472
C   C273      1.0  0.58030  0.41970  0.50000  1.0000 0.5656509472
C   C274      1.0  0.50000  0.58030  0.41970  1.0000 0.5656509472
C   C275      1.0  0.16060  0.08030  0.58030  1.0000 0.5656509472
C   C276      1.0  0.41970  0.91970  0.83940  1.0000 0.5656509472
C   C277      1.0  0.58030  0.50000  0.41970  1.0000 0.5656509472
C   C278      1.0  0.50000  0.08030  0.91970  1.0000 0.5656509472
C   C279      1.0  0.08030  0.16060  0.58030  1.0000 0.5656509472
C   C280      1.0  0.16060  0.58030  0.08030  1.0000 0.5656509472
C   C281      1.0  0.91970  0.41970  0.83940  1.0000 0.5656509472
C   C282      1.0  0.41970  0.83940  0.91970  1.0000 0.5656509472
C   C283      1.0  0.08030  0.91970  0.50000  1.0000 0.5656509472
C   C284      1.0  0.91970  0.50000  0.08030  1.0000 0.5656509472
C   C285      1.0  0.41970  0.58030  0.50000  1.0000 0.5656509472
C   C286      1.0  0.50000  0.41970  0.58030  1.0000 0.5656509472
C   C287      1.0  0.83940  0.91970  0.41970  1.0000 0.5656509472
C   C288      1.0  0.58030  0.08030  0.16060  1.0000 0.5638193561
N   N1        1.0  0.30010  0.55220  0.74790  1.0000 -0.2276576064
N   N2        1.0  0.55220  0.80430  0.25210  1.0000 -0.2276576064
N   N3        1.0  0.80430  0.55220  0.25210  1.0000 -0.2276576064
N   N4        1.0  0.55220  0.30010  0.74790  1.0000 -0.2276576064
N   N5        1.0  0.19570  0.74790  0.44780  1.0000 -0.2276576064
N   N6        1.0  0.69990  0.44780  0.25210  1.0000 -0.2276576064
N   N7        1.0  0.80430  0.25210  0.55220  1.0000 -0.2276576064
N   N8        1.0  0.74790  0.55220  0.30010  1.0000 -0.2276576064
N   N9        1.0  0.19570  0.44780  0.74790  1.0000 -0.2276576064
N   N10       1.0  0.74790  0.44780  0.19570  1.0000 -0.2276576064
N   N11       1.0  0.74790  0.30010  0.55220  1.0000 -0.2276576064
N   N12       1.0  0.55220  0.74790  0.30010  1.0000 -0.2276576064
N   N13       1.0  0.44780  0.25210  0.69990  1.0000 -0.2276576064
N   N14       1.0  0.25210  0.80430  0.55220  1.0000 -0.2276576064
N   N15       1.0  0.55220  0.25210  0.80430  1.0000 -0.2276576064
N   N16       1.0  0.74790  0.19570  0.44780  1.0000 -0.2276576064
N   N17       1.0  0.25210  0.69990  0.44780  1.0000 -0.2276576064
N   N18       1.0  0.44780  0.74790  0.19570  1.0000 -0.2276576064
N   N19       1.0  0.44780  0.19570  0.74790  1.0000 -0.2276576064
N   N20       1.0  0.44780  0.69990  0.25210  1.0000 -0.2276576064
N   N21       1.0  0.30010  0.74790  0.55220  1.0000 -0.2276576064
N   N22       1.0  0.69990  0.25210  0.44780  1.0000 -0.2276576064
N   N23       1.0  0.25210  0.55220  0.80430  1.0000 -0.2276576064
N   N24       1.0  0.25210  0.44780  0.69990  1.0000 -0.2276576064
Cl  Cl1       1.0  0.31430  0.50000  0.81430  1.0000 -0.4782919712
Cl  Cl2       1.0  0.50000  0.68570  0.18570  1.0000 -0.4782919712
Cl  Cl3       1.0  0.68570  0.50000  0.18570  1.0000 -0.4782919712
Cl  Cl4       1.0  0.50000  0.31430  0.81430  1.0000 -0.4782919712
Cl  Cl5       1.0  0.31430  0.81430  0.50000  1.0000 -0.4782919712
Cl  Cl6       1.0  0.68570  0.18570  0.50000  1.0000 -0.4782919712
Cl  Cl7       1.0  0.81430  0.50000  0.31430  1.0000 -0.4782919712
Cl  Cl8       1.0  0.81430  0.31430  0.50000  1.0000 -0.4782919712
Cl  Cl9       1.0  0.50000  0.81430  0.31430  1.0000 -0.4782919712
Cl  Cl10      1.0  0.50000  0.18570  0.68570  1.0000 -0.4782919712
Cl  Cl11      1.0  0.18570  0.68570  0.50000  1.0000 -0.4782919712
Cl  Cl12      1.0  0.18570  0.50000  0.68570  1.0000 -0.4782919712
O   O1        1.0  0.39450  0.48760  0.53790  1.0000 -0.5207989006
O   O2        1.0  0.48760  0.94970  0.09310  1.0000 -0.5207989006
O   O3        1.0  0.94970  0.85660  0.46210  1.0000 -0.5207989006
O   O4        1.0  0.85660  0.39450  0.90690  1.0000 -0.5207989006
O   O5        1.0  0.05030  0.53790  0.14340  1.0000 -0.5207989006
O   O6        1.0  0.60550  0.14340  0.09310  1.0000 -0.5207989006
O   O7        1.0  0.94970  0.09310  0.48760  1.0000 -0.5207989006
O   O8        1.0  0.90690  0.85660  0.39450  1.0000 -0.5207989006
O   O9        1.0  0.05030  0.51240  0.90690  1.0000 -0.5207989006
O   O10       1.0  0.53790  0.14340  0.05030  1.0000 -0.5207989006
O   O11       1.0  0.53790  0.39450  0.48760  1.0000 -0.5207989006
O   O12       1.0  0.48760  0.53790  0.39450  1.0000 -0.5207989006
O   O13       1.0  0.14340  0.09310  0.60550  1.0000 -0.5207989006
O   O14       1.0  0.46210  0.94970  0.85660  1.0000 -0.5207989006
O   O15       1.0  0.85660  0.46210  0.94970  1.0000 -0.5207989006
O   O16       1.0  0.90690  0.05030  0.51240  1.0000 -0.5207989006
O   O17       1.0  0.09310  0.60550  0.14340  1.0000 -0.5207989006
O   O18       1.0  0.51240  0.90690  0.05030  1.0000 -0.5207989006
O   O19       1.0  0.14340  0.05030  0.53790  1.0000 -0.5207989006
O   O20       1.0  0.51240  0.60550  0.46210  1.0000 -0.5207989006
O   O21       1.0  0.39450  0.90690  0.85660  1.0000 -0.5207989006
O   O22       1.0  0.60550  0.46210  0.51240  1.0000 -0.5207989006
O   O23       1.0  0.09310  0.48760  0.94970  1.0000 -0.5207989006
O   O24       1.0  0.46210  0.51240  0.60550  1.0000 -0.5207989006
O   O25       1.0  0.60550  0.51240  0.46210  1.0000 -0.5207989006
O   O26       1.0  0.51240  0.05030  0.90690  1.0000 -0.5207989006
O   O27       1.0  0.05030  0.14340  0.53790  1.0000 -0.5207989006
O   O28       1.0  0.14340  0.60550  0.09310  1.0000 -0.5207989006
O   O29       1.0  0.94970  0.46210  0.85660  1.0000 -0.5207989006
O   O30       1.0  0.39450  0.85660  0.90690  1.0000 -0.5207989006
O   O31       1.0  0.05030  0.90690  0.51240  1.0000 -0.5207989006
O   O32       1.0  0.09310  0.14340  0.60550  1.0000 -0.5207989006
O   O33       1.0  0.94970  0.48760  0.09310  1.0000 -0.5207989006
O   O34       1.0  0.46210  0.85660  0.94970  1.0000 -0.5207989006
O   O35       1.0  0.46210  0.60550  0.51240  1.0000 -0.5207989006
O   O36       1.0  0.51240  0.46210  0.60550  1.0000 -0.5207989006
O   O37       1.0  0.85660  0.90690  0.39450  1.0000 -0.5207989006
O   O38       1.0  0.53790  0.05030  0.14340  1.0000 -0.5207989006
O   O39       1.0  0.14340  0.53790  0.05030  1.0000 -0.5207989006
O   O40       1.0  0.09310  0.94970  0.48760  1.0000 -0.5207989006
O   O41       1.0  0.90690  0.39450  0.85660  1.0000 -0.5207989006
O   O42       1.0  0.48760  0.09310  0.94970  1.0000 -0.5207989006
O   O43       1.0  0.85660  0.94970  0.46210  1.0000 -0.5207989006
O   O44       1.0  0.48760  0.39450  0.53790  1.0000 -0.5207989006
O   O45       1.0  0.60550  0.09310  0.14340  1.0000 -0.5207989006
O   O46       1.0  0.39450  0.53790  0.48760  1.0000 -0.5207989006
O   O47       1.0  0.90690  0.51240  0.05030  1.0000 -0.5207989006
O   O48       1.0  0.53790  0.48760  0.39450  1.0000 -0.5207989006
O   O49       1.0  0.48440  0.54780  0.54780  1.0000 -0.8663689951
O   O50       1.0  0.54780  0.00000  0.06340  1.0000 -0.8618506915
O   O51       1.0  0.00000  0.93660  0.45220  1.0000 -0.8663689951
O   O52       1.0  0.93660  0.48440  0.93660  1.0000 -0.8663689951
O   O53       1.0  0.00000  0.54780  0.06340  1.0000 -0.8663689951
O   O54       1.0  0.51560  0.06340  0.06340  1.0000 -0.8618506915
O   O55       1.0  0.00000  0.06340  0.54780  1.0000 -0.8663689951
O   O56       1.0  0.93660  0.93660  0.48440  1.0000 -0.8663689951
O   O57       1.0  0.00000  0.45220  0.93660  1.0000 -0.8663689951
O   O58       1.0  0.54780  0.06340  0.00000  1.0000 -0.8618506915
O   O59       1.0  0.54780  0.48440  0.54780  1.0000 -0.8663689951
O   O60       1.0  0.54780  0.54780  0.48440  1.0000 -0.8663689951
O   O61       1.0  0.06340  0.06340  0.51560  1.0000 -0.8663689951
O   O62       1.0  0.45220  0.00000  0.93660  1.0000 -0.8618506915
O   O63       1.0  0.93660  0.45220  0.00000  1.0000 -0.8663689951
O   O64       1.0  0.93660  0.00000  0.45220  1.0000 -0.8663689951
O   O65       1.0  0.06340  0.51560  0.06340  1.0000 -0.8663689951
O   O66       1.0  0.45220  0.93660  0.00000  1.0000 -0.8618506915
O   O67       1.0  0.06340  0.00000  0.54780  1.0000 -0.8663689951
O   O68       1.0  0.45220  0.51560  0.45220  1.0000 -0.8663689951
O   O69       1.0  0.48440  0.93660  0.93660  1.0000 -0.8618506915
O   O70       1.0  0.51560  0.45220  0.45220  1.0000 -0.8663689951
O   O71       1.0  0.06340  0.54780  0.00000  1.0000 -0.8663689951
O   O72       1.0  0.45220  0.45220  0.51560  1.0000 -0.8663689951
O   O73       1.0  0.42880  0.42880  0.42880  1.0000 -0.8476712333
O   O74       1.0  0.42880  0.00000  0.00000  1.0000 -0.8476712333
O   O75       1.0  0.00000  0.00000  0.57120  1.0000 -0.8476712333
O   O76       1.0  0.00000  0.42880  0.00000  1.0000 -0.8476712333
O   O77       1.0  0.57120  0.00000  0.00000  1.0000 -0.8476712333
O   O78       1.0  0.00000  0.00000  0.42880  1.0000 -0.8476712333
O   O79       1.0  0.00000  0.57120  0.00000  1.0000 -0.8476712333
O   O80       1.0  0.57120  0.57120  0.57120  1.0000 -0.8476712333
