# DDEC6 charges by PACMAN v1.1 (https://github.com/mtap-research/PACMAN-charge/)
data_2017[NiNb][pcu]3[ASR]2
_chemical_formula_sum              "Nb2 Ni2 H16 C16 N8 F12"
_cell_length_a       10.5435
_cell_length_b       10.5435
_cell_length_c       10.5435
_cell_angle_alpha    124.07
_cell_angle_beta     124.07
_cell_angle_gamma    83.0846

_symmetry_space_group_name_H-M    "P 1"
_symmetry_Int_Tables_number       1

loop_
  _symmetry_equiv_pos_as_xyz
  'x, y, z'

loop_
  _atom_site_type_symbol
  _atom_site_label
  _atom_site_symmetry_multiplicity
  _atom_site_fract_x
  _atom_site_fract_y
  _atom_site_fract_z
  _atom_site_occupancy
  _atom_site_charge
Nb  Nb1       1.0  0.00000  0.00000  0.00000  1.0000 2.3751549129
Nb  Nb2       1.0  0.50000  0.50000  0.00000  1.0000 2.3743121033
Ni  Ni1       1.0  0.25000  0.25000  0.00000  1.0000 0.6691970532
Ni  Ni2       1.0  0.75000  0.75000  0.00000  1.0000 0.6691970532
H   H1        1.0  0.23890  0.38620  0.33470  1.0000 0.1315422361
H   H2        1.0  0.38620  0.05150  0.14730  1.0000 0.1315422361
H   H3        1.0  0.90420  0.23890  0.85270  1.0000 0.1315422361
H   H4        1.0  0.26110  0.59580  0.14730  1.0000 0.1315422361
H   H5        1.0  0.44850  0.11380  0.85270  1.0000 0.1315422361
H   H6        1.0  0.05150  0.90420  0.66530  1.0000 0.1315422361
H   H7        1.0  0.59580  0.44850  0.33470  1.0000 0.1315422361
H   H8        1.0  0.11380  0.26110  0.66530  1.0000 0.1315422361
H   H9        1.0  0.76110  0.61380  0.66530  1.0000 0.1315422361
H   H10       1.0  0.61380  0.94850  0.85270  1.0000 0.1315422361
H   H11       1.0  0.09580  0.76110  0.14730  1.0000 0.1315422361
H   H12       1.0  0.73890  0.40420  0.85270  1.0000 0.1315422361
H   H13       1.0  0.55150  0.88620  0.14730  1.0000 0.1315422361
H   H14       1.0  0.94850  0.09580  0.33470  1.0000 0.1315422361
H   H15       1.0  0.40420  0.55150  0.66530  1.0000 0.1315422361
H   H16       1.0  0.88620  0.73890  0.33470  1.0000 0.1315422361
C   C1        1.0  0.34580  0.43210  0.40050  1.0000 0.0421182175
C   C2        1.0  0.43210  0.03160  0.08630  1.0000 0.0421182175
C   C3        1.0  0.94530  0.34580  0.91370  1.0000 0.0421182175
C   C4        1.0  0.15420  0.55470  0.08630  1.0000 0.0421182175
C   C5        1.0  0.46840  0.06790  0.91370  1.0000 0.0421182175
C   C6        1.0  0.03160  0.94530  0.59950  1.0000 0.0421182175
C   C7        1.0  0.55470  0.46840  0.40050  1.0000 0.0421182175
C   C8        1.0  0.06790  0.15420  0.59950  1.0000 0.0421182175
C   C9        1.0  0.65420  0.56790  0.59950  1.0000 0.0421182175
C   C10       1.0  0.56790  0.96840  0.91370  1.0000 0.0421182175
C   C11       1.0  0.05470  0.65420  0.08630  1.0000 0.0421182175
C   C12       1.0  0.84580  0.44530  0.91370  1.0000 0.0421182175
C   C13       1.0  0.53160  0.93210  0.08630  1.0000 0.0421182175
C   C14       1.0  0.96840  0.05470  0.40050  1.0000 0.0421182175
C   C15       1.0  0.44530  0.53160  0.59950  1.0000 0.0421182175
C   C16       1.0  0.93210  0.84580  0.40050  1.0000 0.0421182175
N   N1        1.0  0.40180  0.40180  0.30360  1.0000 -0.1875049486
N   N2        1.0  0.40180  0.09820  0.00000  1.0000 -0.1875049486
N   N3        1.0  0.09820  0.40180  0.00000  1.0000 -0.1875049486
N   N4        1.0  0.09820  0.09820  0.69640  1.0000 -0.1875049486
N   N5        1.0  0.59820  0.59820  0.69640  1.0000 -0.1875049486
N   N6        1.0  0.59820  0.90180  0.00000  1.0000 -0.1875049486
N   N7        1.0  0.90180  0.59820  0.00000  1.0000 -0.1875049486
N   N8        1.0  0.90180  0.90180  0.30360  1.0000 -0.1875049486
F   F1        1.0  0.12230  0.12230  0.00000  1.0000 -0.609452724
F   F2        1.0  0.37770  0.37770  0.00000  1.0000 -0.609452724
F   F3        1.0  0.87770  0.87770  0.00000  1.0000 -0.609452724
F   F4        1.0  0.62230  0.62230  0.00000  1.0000 -0.609452724
F   F5        1.0  0.01930  0.19200  0.21130  1.0000 -0.616072237
F   F6        1.0  0.19200  0.98070  0.17270  1.0000 -0.616072237
F   F7        1.0  0.80800  0.01930  0.82730  1.0000 -0.616072237
F   F8        1.0  0.48070  0.69200  0.17270  1.0000 -0.616072237
F   F9        1.0  0.51930  0.30800  0.82730  1.0000 -0.616072237
F   F10       1.0  0.98070  0.80800  0.78870  1.0000 -0.616072237
F   F11       1.0  0.69200  0.51930  0.21130  1.0000 -0.616072237
F   F12       1.0  0.30800  0.48070  0.78870  1.0000 -0.616072237
