# DDEC6 charges by PACMAN v1.1 (https://github.com/mtap-research/PACMAN-charge/)
data_2017[Eu][nan]3[ASR]9
_chemical_formula_sum              "Eu8 H88 C168 O64"
_cell_length_a       25.3505
_cell_length_b       25.3505
_cell_length_c       25.3505
_cell_angle_alpha    91.7073
_cell_angle_beta     91.7073
_cell_angle_gamma    160.121

_symmetry_space_group_name_H-M    "P 1"
_symmetry_Int_Tables_number       1

loop_
  _symmetry_equiv_pos_as_xyz
  'x, y, z'

loop_
  _atom_site_type_symbol
  _atom_site_label
  _atom_site_symmetry_multiplicity
  _atom_site_fract_x
  _atom_site_fract_y
  _atom_site_fract_z
  _atom_site_occupancy
  _atom_site_charge
Eu  Eu1       1.0  0.40720  0.19456  0.20666  1.0000 1.9936393183
Eu  Eu2       1.0  0.98790  0.20054  0.79334  1.0000 1.9936393183
Eu  Eu3       1.0  0.45054  0.15720  0.71264  1.0000 1.996332733
Eu  Eu4       1.0  0.44456  0.73790  0.28736  1.0000 1.996332733
Eu  Eu5       1.0  0.84280  0.55544  0.29334  1.0000 1.9936393183
Eu  Eu6       1.0  0.26210  0.54946  0.70666  1.0000 1.996332733
Eu  Eu7       1.0  0.79946  0.59280  0.78736  1.0000 1.9936393183
Eu  Eu8       1.0  0.80544  0.01210  0.21264  1.0000 1.996332733
H   H1        1.0  0.56690  0.59940  0.10850  1.0000 0.1280405752
H   H2        1.0  0.81340  0.82120  0.08800  1.0000 0.1167623536
H   H3        1.0  0.94660  0.86870  0.10430  1.0000 0.1167623536
H   H4        1.0  0.83150  0.69170  0.14080  1.0000 0.1167623536
H   H5        1.0  0.16010  0.20440  0.16310  1.0000 0.1390594059
H   H6        1.0  0.34690  0.46950  0.29140  1.0000 0.1390594059
H   H7        1.0  0.60840  0.60550  0.23250  1.0000 0.1520799232
H   H8        1.0  0.61490  0.78690  0.47580  1.0000 0.1167623536
H   H9        1.0  0.55760  0.64500  0.47260  1.0000 0.1097148396
H   H10       1.0  0.55760  0.59550  0.39510  1.0000 0.1280405752
H   H11       1.0  0.67170  0.88080  0.40130  1.0000 0.1280405752
H   H12       1.0  0.49090  0.45840  0.89150  1.0000 0.1280405752
H   H13       1.0  0.73320  0.72540  0.91200  1.0000 0.1167623536
H   H14       1.0  0.76440  0.84230  0.89570  1.0000 0.1167623536
H   H15       1.0  0.55090  0.69070  0.85920  1.0000 0.1167623536
H   H16       1.0  0.04130  0.99700  0.83690  1.0000 0.1390594059
H   H17       1.0  0.17810  0.05550  0.70860  1.0000 0.1390594059
H   H18       1.0  0.37300  0.37590  0.76750  1.0000 0.1520799232
H   H19       1.0  0.31110  0.13910  0.52420  1.0000 0.1167623536
H   H20       1.0  0.17240  0.08500  0.52740  1.0000 0.1097148396
H   H21       1.0  0.20040  0.16250  0.60490  1.0000 0.1280405752
H   H22       1.0  0.47950  0.27040  0.59870  1.0000 0.1280405752
H   H23       1.0  0.70840  0.31690  0.46750  1.0000 0.1280405752
H   H24       1.0  0.97540  0.56340  0.49220  1.0000 0.1167623536
H   H25       1.0  0.09230  0.69660  0.57790  1.0000 0.1167623536
H   H26       1.0  0.94070  0.58150  0.63980  1.0000 0.1167623536
H   H27       1.0  0.24700  0.91010  0.45570  1.0000 0.1390594059
H   H28       1.0  0.30550  0.09690  0.37740  1.0000 0.1390594059
H   H29       1.0  0.62590  0.35840  0.50290  1.0000 0.1520799232
H   H30       1.0  0.38910  0.36490  0.32800  1.0000 0.1167623536
H   H31       1.0  0.33500  0.30760  0.41260  1.0000 0.1097148396
H   H32       1.0  0.41250  0.30760  0.46210  1.0000 0.1280405752
H   H33       1.0  0.52040  0.42170  0.29090  1.0000 0.1280405752
H   H34       1.0  0.84940  0.24090  0.53250  1.0000 0.1280405752
H   H35       1.0  0.07120  0.48320  0.50780  1.0000 0.1167623536
H   H36       1.0  0.11870  0.51440  0.42210  1.0000 0.1167623536
H   H37       1.0  0.94170  0.30090  0.36020  1.0000 0.1167623536
H   H38       1.0  0.45440  0.79130  0.54430  1.0000 0.1390594059
H   H39       1.0  0.71950  0.92810  0.62260  1.0000 0.1390594059
H   H40       1.0  0.85550  0.12300  0.49710  1.0000 0.1520799232
H   H41       1.0  0.03690  0.06110  0.67200  1.0000 0.1167623536
H   H42       1.0  0.89500  0.92240  0.58740  1.0000 0.1097148396
H   H43       1.0  0.84550  0.95040  0.53790  1.0000 0.1280405752
H   H44       1.0  0.13080  0.22950  0.70910  1.0000 0.1280405752
H   H45       1.0  0.68310  0.15060  0.39150  1.0000 0.1280405752
H   H46       1.0  0.43660  0.92880  0.41200  1.0000 0.1167623536
H   H47       1.0  0.30340  0.88130  0.39570  1.0000 0.1167623536
H   H48       1.0  0.41850  0.05830  0.35920  1.0000 0.1167623536
H   H49       1.0  0.08990  0.54560  0.33690  1.0000 0.1390594059
H   H50       1.0  0.90310  0.28050  0.20860  1.0000 0.1390594059
H   H51       1.0  0.64160  0.14450  0.26750  1.0000 0.1520799232
H   H52       1.0  0.63510  0.96310  0.02420  1.0000 0.1167623536
H   H53       1.0  0.69240  0.10500  0.02740  1.0000 0.1097148396
H   H54       1.0  0.69240  0.15450  0.10490  1.0000 0.1280405752
H   H55       1.0  0.57830  0.86920  0.09870  1.0000 0.1280405752
H   H56       1.0  0.75910  0.29160  0.60850  1.0000 0.1280405752
H   H57       1.0  0.51680  0.02460  0.58800  1.0000 0.1167623536
H   H58       1.0  0.48560  0.90770  0.60430  1.0000 0.1167623536
H   H59       1.0  0.69910  0.05930  0.64080  1.0000 0.1167623536
H   H60       1.0  0.20870  0.75300  0.66310  1.0000 0.1390594059
H   H61       1.0  0.07190  0.69450  0.79140  1.0000 0.1390594059
H   H62       1.0  0.87700  0.37410  0.73250  1.0000 0.1520799232
H   H63       1.0  0.93890  0.61090  0.97580  1.0000 0.1167623536
H   H64       1.0  0.07760  0.66500  0.97260  1.0000 0.1097148396
H   H65       1.0  0.04960  0.58750  0.89510  1.0000 0.1280405752
H   H66       1.0  0.77050  0.47960  0.90130  1.0000 0.1280405752
H   H67       1.0  0.54160  0.43310  0.03250  1.0000 0.1280405752
H   H68       1.0  0.27460  0.18660  0.00780  1.0000 0.1167623536
H   H69       1.0  0.15770  0.05340  0.92210  1.0000 0.1167623536
H   H70       1.0  0.30930  0.16850  0.86020  1.0000 0.1167623536
H   H71       1.0  0.00300  0.83990  0.04430  1.0000 0.1390594059
H   H72       1.0  0.94450  0.65310  0.12260  1.0000 0.1390594059
H   H73       1.0  0.62410  0.39160  0.99710  1.0000 0.1520799232
H   H74       1.0  0.86090  0.38510  0.17200  1.0000 0.1167623536
H   H75       1.0  0.91500  0.44240  0.08740  1.0000 0.1097148396
H   H76       1.0  0.83750  0.44240  0.03790  1.0000 0.1280405752
H   H77       1.0  0.72960  0.32830  0.20910  1.0000 0.1280405752
H   H78       1.0  0.40060  0.50910  0.96750  1.0000 0.1280405752
H   H79       1.0  0.17880  0.26680  0.99220  1.0000 0.1167623536
H   H80       1.0  0.13130  0.23560  0.07790  1.0000 0.1167623536
H   H81       1.0  0.30830  0.44910  0.13980  1.0000 0.1167623536
H   H82       1.0  0.79560  0.95870  0.95570  1.0000 0.1390594059
H   H83       1.0  0.53050  0.82190  0.87740  1.0000 0.1390594059
H   H84       1.0  0.39450  0.62700  0.00290  1.0000 0.1520799232
H   H85       1.0  0.21310  0.68890  0.82800  1.0000 0.1167623536
H   H86       1.0  0.35500  0.82760  0.91260  1.0000 0.1097148396
H   H87       1.0  0.40450  0.79960  0.96210  1.0000 0.1280405752
H   H88       1.0  0.11920  0.52050  0.79090  1.0000 0.1280405752
C   C1        1.0  0.55589  0.42224  0.17093  1.0000 0.5952774865
C   C2        1.0  0.62698  0.53540  0.14838  1.0000 -0.1197361536
C   C3        1.0  0.55160  0.51240  0.13880  1.0000 0.2243634147
C   C4        1.0  0.62070  0.61850  0.11540  1.0000 -0.2068123071
C   C5        1.0  0.76680  0.74980  0.10300  1.0000 -0.0604784097
C   C6        1.0  0.84610  0.77810  0.11260  1.0000 -0.1110731027
C   C7        1.0  0.77690  0.67190  0.13480  1.0000 -0.0820183108
C   C8        1.0  0.38949  0.40480  0.19069  1.0000 0.2685282324
C   C9        1.0  0.24553  0.29462  0.18915  1.0000 -0.2311526257
C   C10       1.0  0.23011  0.31950  0.22621  1.0000 0.0285403883
C   C11       1.0  0.08386  0.21473  0.22039  1.0000 0.5710577723
C   C12       1.0  0.35644  0.45149  0.26653  1.0000 -0.2375327553
C   C13       1.0  0.49486  0.55450  0.26916  1.0000 0.2685282324
C   C14       1.0  0.51298  0.53320  0.23098  1.0000 -0.3130142855
C   C15       1.0  0.61560  0.76790  0.44430  1.0000 -0.1197361536
C   C16       1.0  0.58160  0.68350  0.44230  1.0000 -0.0820183108
C   C17       1.0  0.58230  0.65460  0.39630  1.0000 -0.2021461631
C   C18       1.0  0.61970  0.71310  0.35200  1.0000 0.2299524379
C   C19       1.0  0.65647  0.80142  0.35289  1.0000 -0.1197361536
C   C20       1.0  0.65110  0.82540  0.39990  1.0000 -0.0982594359
C   C21       1.0  0.70761  0.87601  0.30622  1.0000 0.6371096429
C   C22       1.0  0.25131  0.38496  0.82907  1.0000 0.5952774865
C   C23       1.0  0.38702  0.47860  0.85162  1.0000 -0.1197361536
C   C24       1.0  0.37360  0.41280  0.86120  1.0000 0.2243634147
C   C25       1.0  0.50310  0.50530  0.88460  1.0000 -0.2068123071
C   C26       1.0  0.64680  0.66380  0.89700  1.0000 -0.0604784097
C   C27       1.0  0.66550  0.73350  0.88740  1.0000 -0.1110731027
C   C28       1.0  0.53710  0.64210  0.86520  1.0000 -0.0855689365
C   C29       1.0  0.21411  0.19880  0.80931  1.0000 0.2685282324
C   C30       1.0  0.10547  0.05638  0.81085  1.0000 -0.2311526257
C   C31       1.0  0.09329  0.00390  0.77379  1.0000 0.0285403883
C   C32       1.0  0.99434  0.86347  0.77961  1.0000 0.5710577723
C   C33       1.0  0.18496  0.08991  0.73347  1.0000 -0.2375327553
C   C34       1.0  0.28534  0.22570  0.73084  1.0000 0.2685282324
C   C35       1.0  0.30222  0.28200  0.76902  1.0000 -0.3130142855
C   C36       1.0  0.32360  0.17130  0.55570  1.0000 -0.1197361536
C   C37       1.0  0.24120  0.13930  0.55770  1.0000 -0.0820183108
C   C38       1.0  0.25830  0.18600  0.60370  1.0000 -0.2021461631
C   C39       1.0  0.36110  0.26770  0.64800  1.0000 0.2299524379
C   C40       1.0  0.44853  0.30358  0.64711  1.0000 -0.1197361536
C   C41       1.0  0.42550  0.25120  0.60010  1.0000 -0.0982594359
C   C42       1.0  0.56979  0.40139  0.69378  1.0000 0.6371096429
C   C43       1.0  0.63496  0.30589  0.63365  1.0000 0.5952774865
C   C44       1.0  0.72860  0.37698  0.59158  1.0000 -0.1197361536
C   C45       1.0  0.66280  0.30160  0.53920  1.0000 0.2243634147
C   C46       1.0  0.75530  0.37070  0.50220  1.0000 -0.2068123071
C   C47       1.0  0.91380  0.51680  0.51700  1.0000 -0.0604784097
C   C48       1.0  0.98350  0.59610  0.56800  1.0000 -0.1110731027
C   C49       1.0  0.89210  0.52690  0.60500  1.0000 -0.0855689365
C   C50       1.0  0.44880  0.13949  0.48469  1.0000 0.2685282324
C   C51       1.0  0.30638  0.99553  0.45091  1.0000 -0.2311526257
C   C52       1.0  0.25390  0.98011  0.41061  1.0000 0.0285403883
C   C53       1.0  0.11347  0.83386  0.36913  1.0000 0.5710577723
C   C54       1.0  0.33991  0.10644  0.40495  1.0000 -0.2375327553
C   C55       1.0  0.47570  0.24486  0.44036  1.0000 0.2685282324
C   C56       1.0  0.53200  0.26298  0.47978  1.0000 -0.3130142855
C   C57       1.0  0.42130  0.36560  0.34770  1.0000 -0.1197361536
C   C58       1.0  0.38930  0.33160  0.39810  1.0000 -0.0820183108
C   C59       1.0  0.43600  0.33230  0.42770  1.0000 -0.2021461631
C   C60       1.0  0.51770  0.36970  0.40660  1.0000 0.2299524379
C   C61       1.0  0.55358  0.40647  0.35505  1.0000 -0.1197361536
C   C62       1.0  0.50120  0.40110  0.32570  1.0000 -0.0982594359
C   C63       1.0  0.65139  0.45761  0.33160  1.0000 0.6371096429
C   C64       1.0  0.67224  0.00131  0.36635  1.0000 0.5952774865
C   C65       1.0  0.78540  0.13702  0.40842  1.0000 -0.1197361536
C   C66       1.0  0.76240  0.12360  0.46080  1.0000 0.2243634147
C   C67       1.0  0.86850  0.25310  0.49780  1.0000 -0.2068123071
C   C68       1.0  0.99980  0.39680  0.48300  1.0000 -0.0604784097
C   C69       1.0  0.02810  0.41550  0.43200  1.0000 -0.1110731027
C   C70       1.0  0.92190  0.28710  0.39500  1.0000 -0.0855689365
C   C71       1.0  0.65480  0.96411  0.51531  1.0000 0.2685282324
C   C72       1.0  0.54462  0.85547  0.54909  1.0000 -0.2311526257
C   C73       1.0  0.56950  0.84329  0.58939  1.0000 0.0285403883
C   C74       1.0  0.46473  0.74434  0.63087  1.0000 0.5710577723
C   C75       1.0  0.70149  0.93496  0.59505  1.0000 -0.2375327553
C   C76       1.0  0.80450  0.03534  0.55964  1.0000 0.2685282324
C   C77       1.0  0.78320  0.05222  0.52022  1.0000 -0.3130142855
C   C78       1.0  0.01790  0.07360  0.65230  1.0000 -0.1197361536
C   C79       1.0  0.93350  0.99120  0.60190  1.0000 -0.0820183108
C   C80       1.0  0.90460  0.00830  0.57230  1.0000 -0.2021461631
C   C81       1.0  0.96310  0.11110  0.59340  1.0000 0.2299524379
C   C82       1.0  0.05142  0.19853  0.64495  1.0000 -0.1197361536
C   C83       1.0  0.07540  0.17550  0.67430  1.0000 -0.0982594359
C   C84       1.0  0.12601  0.31979  0.66840  1.0000 0.6371096429
C   C85       1.0  0.69411  0.32776  0.32907  1.0000 0.5952774865
C   C86       1.0  0.62302  0.21460  0.35162  1.0000 -0.1197361536
C   C87       1.0  0.69840  0.23760  0.36120  1.0000 0.2243634147
C   C88       1.0  0.62930  0.13150  0.38460  1.0000 -0.2068123071
C   C89       1.0  0.48320  0.00020  0.39700  1.0000 -0.0604784097
C   C90       1.0  0.40390  0.97190  0.38740  1.0000 -0.1110731027
C   C91       1.0  0.47310  0.07810  0.36520  1.0000 -0.0855689365
C   C92       1.0  0.86051  0.34520  0.30931  1.0000 0.2685282324
C   C93       1.0  0.00447  0.45538  0.31085  1.0000 -0.2311526257
C   C94       1.0  0.01989  0.43050  0.27379  1.0000 0.0285403883
C   C95       1.0  0.16614  0.53527  0.27961  1.0000 0.5710577723
C   C96       1.0  0.89356  0.29851  0.23347  1.0000 -0.2375327553
C   C97       1.0  0.75514  0.19550  0.23084  1.0000 0.2685282324
C   C98       1.0  0.73702  0.21680  0.26902  1.0000 -0.3130142855
C   C99       1.0  0.63440  0.98210  0.05570  1.0000 -0.1197361536
C   C100      1.0  0.66840  0.06650  0.05770  1.0000 -0.0820183108
C   C101      1.0  0.66770  0.09540  0.10370  1.0000 -0.2021461631
C   C102      1.0  0.63030  0.03690  0.14800  1.0000 0.2299524379
C   C103      1.0  0.59353  0.94858  0.14711  1.0000 -0.1197361536
C   C104      1.0  0.59890  0.92460  0.10010  1.0000 -0.0982594359
C   C105      1.0  0.54239  0.87399  0.19378  1.0000 0.6371096429
C   C106      1.0  0.99869  0.36504  0.67093  1.0000 0.5952774865
C   C107      1.0  0.86298  0.27140  0.64838  1.0000 -0.1197361536
C   C108      1.0  0.87640  0.33720  0.63880  1.0000 0.2243634147
C   C109      1.0  0.74690  0.24470  0.61540  1.0000 -0.2068123071
C   C110      1.0  0.60320  0.08620  0.60300  1.0000 -0.0604784097
C   C111      1.0  0.58450  0.01650  0.61260  1.0000 -0.1110731027
C   C112      1.0  0.71290  0.10790  0.63480  1.0000 -0.0820183108
C   C113      1.0  0.03589  0.55120  0.69069  1.0000 0.2685282324
C   C114      1.0  0.14453  0.69362  0.68915  1.0000 -0.2311526257
C   C115      1.0  0.15671  0.74610  0.72621  1.0000 0.0285403883
C   C116      1.0  0.25566  0.88653  0.72039  1.0000 0.5710577723
C   C117      1.0  0.06504  0.66009  0.76653  1.0000 -0.2375327553
C   C118      1.0  0.96466  0.52430  0.76916  1.0000 0.2685282324
C   C119      1.0  0.94778  0.46800  0.73098  1.0000 -0.3130142855
C   C120      1.0  0.92640  0.57870  0.94430  1.0000 -0.1197361536
C   C121      1.0  0.00880  0.61070  0.94230  1.0000 -0.0820183108
C   C122      1.0  0.99170  0.56400  0.89630  1.0000 -0.2021461631
C   C123      1.0  0.88890  0.48230  0.85200  1.0000 0.2299524379
C   C124      1.0  0.80147  0.44642  0.85289  1.0000 -0.1197361536
C   C125      1.0  0.82450  0.49880  0.89990  1.0000 -0.0982594359
C   C126      1.0  0.68021  0.34861  0.80622  1.0000 0.6371096429
C   C127      1.0  0.61504  0.44411  0.86635  1.0000 0.5952774865
C   C128      1.0  0.52140  0.37302  0.90842  1.0000 -0.1197361536
C   C129      1.0  0.58720  0.44840  0.96080  1.0000 0.2243634147
C   C130      1.0  0.49470  0.37930  0.99780  1.0000 -0.2068123071
C   C131      1.0  0.33620  0.23320  0.98300  1.0000 -0.0604784097
C   C132      1.0  0.26650  0.15390  0.93200  1.0000 -0.1110731027
C   C133      1.0  0.35790  0.22310  0.89500  1.0000 -0.0820183108
C   C134      1.0  0.80120  0.61051  0.01531  1.0000 0.2685282324
C   C135      1.0  0.94362  0.75447  0.04909  1.0000 -0.2311526257
C   C136      1.0  0.99610  0.76989  0.08939  1.0000 0.0285403883
C   C137      1.0  0.13653  0.91614  0.13087  1.0000 0.5710577723
C   C138      1.0  0.91009  0.64356  0.09505  1.0000 -0.2375327553
C   C139      1.0  0.77430  0.50514  0.05964  1.0000 0.2685282324
C   C140      1.0  0.71800  0.48702  0.02022  1.0000 -0.3130142855
C   C141      1.0  0.82870  0.38440  0.15230  1.0000 -0.1197361536
C   C142      1.0  0.86070  0.41840  0.10190  1.0000 -0.0820183108
C   C143      1.0  0.81400  0.41770  0.07230  1.0000 -0.2021461631
C   C144      1.0  0.73230  0.38030  0.09340  1.0000 0.2299524379
C   C145      1.0  0.69642  0.34353  0.14495  1.0000 -0.1197361536
C   C146      1.0  0.74880  0.34890  0.17430  1.0000 -0.0982594359
C   C147      1.0  0.59861  0.29239  0.16840  1.0000 0.6371096429
C   C148      1.0  0.57776  0.74869  0.13365  1.0000 0.5952774865
C   C149      1.0  0.46460  0.61298  0.09158  1.0000 -0.1197361536
C   C150      1.0  0.48760  0.62640  0.03920  1.0000 0.2243634147
C   C151      1.0  0.38150  0.49690  0.00220  1.0000 -0.2068123071
C   C152      1.0  0.25020  0.35320  0.01700  1.0000 -0.0604784097
C   C153      1.0  0.22190  0.33450  0.06800  1.0000 -0.1110731027
C   C154      1.0  0.32810  0.46290  0.10500  1.0000 -0.0855689365
C   C155      1.0  0.59520  0.78589  0.98469  1.0000 0.2685282324
C   C156      1.0  0.70538  0.89453  0.95091  1.0000 -0.2311526257
C   C157      1.0  0.68050  0.90671  0.91061  1.0000 0.0285403883
C   C158      1.0  0.78527  0.00566  0.86913  1.0000 0.5710577723
C   C159      1.0  0.54851  0.81504  0.90495  1.0000 -0.2375327553
C   C160      1.0  0.44550  0.71466  0.94036  1.0000 0.2685282324
C   C161      1.0  0.46680  0.69778  0.97978  1.0000 -0.3130142855
C   C162      1.0  0.23210  0.67640  0.84770  1.0000 -0.1197361536
C   C163      1.0  0.31650  0.75880  0.89810  1.0000 -0.0820183108
C   C164      1.0  0.34540  0.74170  0.92770  1.0000 -0.2021461631
C   C165      1.0  0.28690  0.63890  0.90660  1.0000 0.2299524379
C   C166      1.0  0.19858  0.55147  0.85505  1.0000 -0.1197361536
C   C167      1.0  0.17460  0.57450  0.82570  1.0000 -0.0982594359
C   C168      1.0  0.12399  0.43021  0.83160  1.0000 0.6371096429
O   O1        1.0  0.61678  0.43449  0.16607  1.0000 -0.6214545983
O   O2        1.0  0.44000  0.31948  0.19408  1.0000 -0.6214545983
O   O3        1.0  0.40068  0.37839  0.15047  1.0000 -0.2068123071
O   O4        1.0  0.62813  0.68884  0.30697  1.0000 -0.2068123071
O   O5        1.0  0.96388  0.08651  0.18759  1.0000 -0.6315004843
O   O6        1.0  0.08533  0.25875  0.24688  1.0000 -0.6434423643
O   O7        1.0  0.80257  0.94358  0.28155  1.0000 -0.5473726708
O   O8        1.0  0.65700  0.87441  0.29521  1.0000 -0.739622766
O   O9        1.0  0.26842  0.45071  0.83393  1.0000 -0.6214545983
O   O10       1.0  0.12540  0.24592  0.80592  1.0000 -0.6214545983
O   O11       1.0  0.22792  0.25021  0.84953  1.0000 -0.2068123071
O   O12       1.0  0.38187  0.32116  0.69303  1.0000 -0.2068123071
O   O13       1.0  0.89892  0.77629  0.81241  1.0000 -0.6315004843
O   O14       1.0  0.01187  0.83845  0.75312  1.0000 -0.6434423643
O   O15       1.0  0.66203  0.52102  0.71845  1.0000 -0.5473726708
O   O16       1.0  0.57920  0.36179  0.70479  1.0000 -0.739622766
O   O17       1.0  0.70071  0.36678  0.68229  1.0000 -0.6315004843
O   O18       1.0  0.49592  0.19000  0.62052  1.0000 -0.6214545983
O   O19       1.0  0.50021  0.15068  0.52229  1.0000 -0.2068123071
O   O20       1.0  0.57116  0.37813  0.43929  1.0000 -0.2068123071
O   O21       1.0  0.02629  0.71388  0.37737  1.0000 -0.6315004843
O   O22       1.0  0.08845  0.83533  0.32658  1.0000 -0.6434423643
O   O23       1.0  0.77102  0.55257  0.35899  1.0000 -0.5473726708
O   O24       1.0  0.61179  0.40700  0.28259  1.0000 -0.739622766
O   O25       1.0  0.68449  0.01842  0.31771  1.0000 -0.6315004843
O   O26       1.0  0.56948  0.87540  0.37948  1.0000 -0.6214545983
O   O27       1.0  0.62839  0.97792  0.47771  1.0000 -0.2068123071
O   O28       1.0  0.93884  0.13187  0.56071  1.0000 -0.2068123071
O   O29       1.0  0.33651  0.64892  0.62263  1.0000 -0.6315004843
O   O30       1.0  0.50875  0.76187  0.67342  1.0000 -0.6434423643
O   O31       1.0  0.19358  0.41203  0.64101  1.0000 -0.5473726708
O   O32       1.0  0.12441  0.32920  0.71741  1.0000 -0.739622766
O   O33       1.0  0.63322  0.31551  0.33393  1.0000 -0.6214545983
O   O34       1.0  0.81000  0.43052  0.30592  1.0000 -0.6214545983
O   O35       1.0  0.84932  0.37161  0.34953  1.0000 -0.2068123071
O   O36       1.0  0.62187  0.06116  0.19303  1.0000 -0.2068123071
O   O37       1.0  0.28612  0.66349  0.31241  1.0000 -0.6315004843
O   O38       1.0  0.16467  0.49125  0.25312  1.0000 -0.6434423643
O   O39       1.0  0.44743  0.80642  0.21845  1.0000 -0.5473726708
O   O40       1.0  0.59300  0.87559  0.20479  1.0000 -0.739622766
O   O41       1.0  0.98158  0.29929  0.66607  1.0000 -0.6315004843
O   O42       1.0  0.12460  0.50408  0.69408  1.0000 -0.6214545983
O   O43       1.0  0.02208  0.49979  0.65047  1.0000 -0.2068123071
O   O44       1.0  0.86813  0.42884  0.80697  1.0000 -0.2068123071
O   O45       1.0  0.35108  0.97371  0.68759  1.0000 -0.6315004843
O   O46       1.0  0.23813  0.91155  0.74688  1.0000 -0.6434423643
O   O47       1.0  0.58797  0.22898  0.78155  1.0000 -0.5473726708
O   O48       1.0  0.67080  0.38821  0.79521  1.0000 -0.739622766
O   O49       1.0  0.54929  0.38322  0.81771  1.0000 -0.6214545983
O   O50       1.0  0.75408  0.56000  0.87948  1.0000 -0.6214545983
O   O51       1.0  0.74979  0.59932  0.97771  1.0000 -0.2068123071
O   O52       1.0  0.67884  0.37187  0.06071  1.0000 -0.2068123071
O   O53       1.0  0.22371  0.03612  0.12263  1.0000 -0.6315004843
O   O54       1.0  0.16155  0.91467  0.17342  1.0000 -0.6434423643
O   O55       1.0  0.47898  0.19743  0.14101  1.0000 -0.5473726708
O   O56       1.0  0.63821  0.34300  0.21741  1.0000 -0.739622766
O   O57       1.0  0.56551  0.73158  0.18229  1.0000 -0.6315004843
O   O58       1.0  0.68052  0.87460  0.12052  1.0000 -0.6214545983
O   O59       1.0  0.62161  0.77208  0.02229  1.0000 -0.2068123071
O   O60       1.0  0.31116  0.61813  0.93929  1.0000 -0.2068123071
O   O61       1.0  0.91349  0.10108  0.87737  1.0000 -0.6315004843
O   O62       1.0  0.74125  0.98813  0.82658  1.0000 -0.6434423643
O   O63       1.0  0.05642  0.33797  0.85899  1.0000 -0.5473726708
O   O64       1.0  0.12559  0.42080  0.78259  1.0000 -0.739622766
