# DDEC6 charges by PACMAN v1.1 (https://github.com/mtap-research/PACMAN-charge/)
data_2017[Mn][acs]3[ASR]1
_chemical_formula_sum              "Mn3 H32 C68 N6 O13"
_cell_length_a       13.5376
_cell_length_b       13.5376
_cell_length_c       11.8142
_cell_angle_alpha    90
_cell_angle_beta     90
_cell_angle_gamma    120

_symmetry_space_group_name_H-M    "P 1"
_symmetry_Int_Tables_number       1

loop_
  _symmetry_equiv_pos_as_xyz
  'x, y, z'

loop_
  _atom_site_type_symbol
  _atom_site_label
  _atom_site_symmetry_multiplicity
  _atom_site_fract_x
  _atom_site_fract_y
  _atom_site_fract_z
  _atom_site_occupancy
  _atom_site_charge
Mn  Mn1       1.0  0.15210  0.00000  0.00000  1.0000 1.0842750463
Mn  Mn2       1.0  0.84790  0.84790  0.00000  1.0000 1.0842750463
Mn  Mn3       1.0  0.00000  0.15210  0.00000  1.0000 1.0842750463
H   H1        1.0  0.84050  0.61560  0.24940  1.0000 0.1230528307
H   H2        1.0  0.83730  0.48880  0.38530  1.0000 0.1230528307
H   H3        1.0  0.77510  0.15950  0.24940  1.0000 0.1230528307
H   H4        1.0  0.65150  0.16270  0.38530  1.0000 0.1230528307
H   H5        1.0  0.38440  0.22490  0.24940  1.0000 0.1230528307
H   H6        1.0  0.51120  0.34850  0.38530  1.0000 0.1230528307
H   H7        1.0  0.84050  0.61560  0.75060  1.0000 0.1230528307
H   H8        1.0  0.83730  0.48880  0.61470  1.0000 0.1230528307
H   H9        1.0  0.77510  0.15950  0.75060  1.0000 0.1230528307
H   H10       1.0  0.65150  0.16270  0.61470  1.0000 0.1230528307
H   H11       1.0  0.38440  0.22490  0.75060  1.0000 0.1230528307
H   H12       1.0  0.51120  0.34850  0.61470  1.0000 0.1230528307
H   H13       1.0  0.22490  0.38440  0.75060  1.0000 0.1230528307
H   H14       1.0  0.34850  0.51120  0.61470  1.0000 0.1230528307
H   H15       1.0  0.61560  0.84050  0.75060  1.0000 0.1230528307
H   H16       1.0  0.48880  0.83730  0.61470  1.0000 0.1230528307
H   H17       1.0  0.15950  0.77510  0.75060  1.0000 0.1230528307
H   H18       1.0  0.16270  0.65150  0.61470  1.0000 0.1230528307
H   H19       1.0  0.22490  0.38440  0.24940  1.0000 0.1230528307
H   H20       1.0  0.34850  0.51120  0.38530  1.0000 0.1230528307
H   H21       1.0  0.61560  0.84050  0.24940  1.0000 0.1230528307
H   H22       1.0  0.48880  0.83730  0.38530  1.0000 0.1230528307
H   H23       1.0  0.15950  0.77510  0.24940  1.0000 0.1230528307
H   H24       1.0  0.16270  0.65150  0.38530  1.0000 0.1230528307
H   H25       1.0  0.00000  0.19250  0.30370  1.0000 0.1505843344
H   H26       1.0  0.19250  0.00000  0.30370  1.0000 0.1505843344
H   H27       1.0  0.80750  0.80750  0.30370  1.0000 0.1505843344
H   H28       1.0  0.00000  0.19250  0.69630  1.0000 0.1505843344
H   H29       1.0  0.19250  0.00000  0.69630  1.0000 0.1505843344
H   H30       1.0  0.80750  0.80750  0.69630  1.0000 0.1505843344
H   H31       1.0  0.00000  0.00000  0.31800  1.0000 0.1372833642
H   H32       1.0  0.00000  0.00000  0.68200  1.0000 0.1372833642
C   C1        1.0  0.90900  0.62290  0.27400  1.0000 -0.098309006
C   C2        1.0  0.90600  0.54200  0.35200  1.0000 -0.1529350139
C   C3        1.0  0.71390  0.09100  0.27400  1.0000 -0.098309006
C   C4        1.0  0.63600  0.09400  0.35200  1.0000 -0.1529350139
C   C5        1.0  0.37710  0.28610  0.27400  1.0000 -0.098309006
C   C6        1.0  0.45800  0.36400  0.35200  1.0000 -0.1529350139
C   C7        1.0  0.90900  0.62290  0.72600  1.0000 -0.098309006
C   C8        1.0  0.90600  0.54200  0.64800  1.0000 -0.1529350139
C   C9        1.0  0.71390  0.09100  0.72600  1.0000 -0.098309006
C   C10       1.0  0.63600  0.09400  0.64800  1.0000 -0.1529350139
C   C11       1.0  0.37710  0.28610  0.72600  1.0000 -0.098309006
C   C12       1.0  0.45800  0.36400  0.64800  1.0000 -0.1529350139
C   C13       1.0  0.28610  0.37710  0.72600  1.0000 -0.098309006
C   C14       1.0  0.36400  0.45800  0.64800  1.0000 -0.1529350139
C   C15       1.0  0.62290  0.90900  0.72600  1.0000 -0.098309006
C   C16       1.0  0.54200  0.90600  0.64800  1.0000 -0.1529350139
C   C17       1.0  0.09100  0.71390  0.72600  1.0000 -0.098309006
C   C18       1.0  0.09400  0.63600  0.64800  1.0000 -0.1529350139
C   C19       1.0  0.28610  0.37710  0.27400  1.0000 -0.098309006
C   C20       1.0  0.36400  0.45800  0.35200  1.0000 -0.1529350139
C   C21       1.0  0.62290  0.90900  0.27400  1.0000 -0.098309006
C   C22       1.0  0.54200  0.90600  0.35200  1.0000 -0.1529350139
C   C23       1.0  0.09100  0.71390  0.27400  1.0000 -0.098309006
C   C24       1.0  0.09400  0.63600  0.35200  1.0000 -0.1529350139
C   C25       1.0  0.00000  0.79350  0.15720  1.0000 0.5976455006
C   C26       1.0  0.00000  0.70470  0.23680  1.0000 -0.0013703764
C   C27       1.0  0.00000  0.54270  0.37500  1.0000 0.0554518916
C   C28       1.0  0.00000  0.44730  0.43890  1.0000 0.1372833642
C   C29       1.0  0.00000  0.27700  0.43830  1.0000 0.1505843344
C   C30       1.0  0.00000  0.19280  0.38240  1.0000 -0.1900416222
C   C31       1.0  0.00000  0.10310  0.44320  1.0000 0.0367919895
C   C32       1.0  0.79350  0.00000  0.15720  1.0000 0.5976455006
C   C33       1.0  0.70470  0.00000  0.23680  1.0000 -0.0013703764
C   C34       1.0  0.54270  0.00000  0.37500  1.0000 0.0554518916
C   C35       1.0  0.44730  0.00000  0.43890  1.0000 0.1372833642
C   C36       1.0  0.27700  0.00000  0.43830  1.0000 0.1505843344
C   C37       1.0  0.19280  0.00000  0.38240  1.0000 -0.1900416222
C   C38       1.0  0.10310  0.00000  0.44320  1.0000 0.0367919895
C   C39       1.0  0.20650  0.20650  0.15720  1.0000 0.5976455006
C   C40       1.0  0.29530  0.29530  0.23680  1.0000 -0.0013703764
C   C41       1.0  0.45730  0.45730  0.37500  1.0000 0.0554518916
C   C42       1.0  0.55270  0.55270  0.43890  1.0000 0.1372833642
C   C43       1.0  0.72300  0.72300  0.43830  1.0000 0.1505843344
C   C44       1.0  0.80720  0.80720  0.38240  1.0000 -0.1900416222
C   C45       1.0  0.89690  0.89690  0.44320  1.0000 0.0367919895
C   C46       1.0  0.00000  0.79350  0.84280  1.0000 0.5976455006
C   C47       1.0  0.00000  0.70470  0.76320  1.0000 -0.0013703764
C   C48       1.0  0.00000  0.54270  0.62500  1.0000 0.0554518916
C   C49       1.0  0.00000  0.44730  0.56110  1.0000 0.1372833642
C   C50       1.0  0.00000  0.27700  0.56170  1.0000 0.1505843344
C   C51       1.0  0.00000  0.19280  0.61760  1.0000 -0.1900416222
C   C52       1.0  0.00000  0.10310  0.55680  1.0000 0.0367919895
C   C53       1.0  0.79350  0.00000  0.84280  1.0000 0.5976455006
C   C54       1.0  0.70470  0.00000  0.76320  1.0000 -0.0013703764
C   C55       1.0  0.54270  0.00000  0.62500  1.0000 0.0554518916
C   C56       1.0  0.44730  0.00000  0.56110  1.0000 0.1372833642
C   C57       1.0  0.27700  0.00000  0.56170  1.0000 0.1505843344
C   C58       1.0  0.19280  0.00000  0.61760  1.0000 -0.1900416222
C   C59       1.0  0.10310  0.00000  0.55680  1.0000 0.0367919895
C   C60       1.0  0.20650  0.20650  0.84280  1.0000 0.5976455006
C   C61       1.0  0.29530  0.29530  0.76320  1.0000 -0.0013703764
C   C62       1.0  0.45730  0.45730  0.62500  1.0000 0.0554518916
C   C63       1.0  0.55270  0.55270  0.56110  1.0000 0.1372833642
C   C64       1.0  0.72300  0.72300  0.56170  1.0000 0.1505843344
C   C65       1.0  0.80720  0.80720  0.61760  1.0000 -0.1900416222
C   C66       1.0  0.89690  0.89690  0.55680  1.0000 0.0367919895
C   C67       1.0  0.00000  0.00000  0.40100  1.0000 -0.1237674859
C   C68       1.0  0.00000  0.00000  0.59900  1.0000 -0.1237674859
N   N1        1.0  0.00000  0.36580  0.37940  1.0000 -0.2816534049
N   N2        1.0  0.36580  0.00000  0.37940  1.0000 -0.2816534049
N   N3        1.0  0.63420  0.63420  0.37940  1.0000 -0.2816534049
N   N4        1.0  0.00000  0.36580  0.62060  1.0000 -0.2816534049
N   N5        1.0  0.36580  0.00000  0.62060  1.0000 -0.2816534049
N   N6        1.0  0.63420  0.63420  0.62060  1.0000 -0.2816534049
O   O1        1.0  0.09320  0.87200  0.12450  1.0000 -0.526552951
O   O2        1.0  0.77880  0.90680  0.12450  1.0000 -0.526552951
O   O3        1.0  0.12800  0.22120  0.12450  1.0000 -0.526552951
O   O4        1.0  0.09320  0.87200  0.87550  1.0000 -0.526552951
O   O5        1.0  0.77880  0.90680  0.87550  1.0000 -0.526552951
O   O6        1.0  0.12800  0.22120  0.87550  1.0000 -0.526552951
O   O7        1.0  0.22120  0.12800  0.87550  1.0000 -0.526552951
O   O8        1.0  0.87200  0.09320  0.87550  1.0000 -0.526552951
O   O9        1.0  0.90680  0.77880  0.87550  1.0000 -0.526552951
O   O10       1.0  0.22120  0.12800  0.12450  1.0000 -0.526552951
O   O11       1.0  0.87200  0.09320  0.12450  1.0000 -0.526552951
O   O12       1.0  0.90680  0.77880  0.12450  1.0000 -0.526552951
O   O13       1.0  0.00000  0.00000  0.00000  1.0000 -0.8312172499
