# DDEC6 charges by PACMAN v1.1 (https://github.com/mtap-research/PACMAN-charge/)
data_2017[Cd][kgd]2[ASR]5
_chemical_formula_sum              "Cd12 H120 C216 O72"
_cell_length_a       32.943
_cell_length_b       25.9387
_cell_length_c       23.6116
_cell_angle_alpha    83.1979
_cell_angle_beta     51.4291
_cell_angle_gamma    45.373

_symmetry_space_group_name_H-M    "P 1"
_symmetry_Int_Tables_number       1

loop_
  _symmetry_equiv_pos_as_xyz
  'x, y, z'

loop_
  _atom_site_type_symbol
  _atom_site_label
  _atom_site_symmetry_multiplicity
  _atom_site_fract_x
  _atom_site_fract_y
  _atom_site_fract_z
  _atom_site_occupancy
  _atom_site_charge
Cd  Cd1       1.0  0.61779  0.22503  0.00761  1.0000 1.0017117593
Cd  Cd2       1.0  0.00761  0.14957  0.61779  1.0000 1.0017117593
Cd  Cd3       1.0  0.63221  0.02497  0.24239  1.0000 1.0017117593
Cd  Cd4       1.0  0.24239  0.10043  0.63221  1.0000 1.0017117593
Cd  Cd5       1.0  0.62500  0.12500  0.12500  1.0000 1.1247024718
Cd  Cd6       1.0  0.12500  0.12500  0.62500  1.0000 1.1247024718
Cd  Cd7       1.0  0.22503  0.61779  0.14957  1.0000 1.0017117593
Cd  Cd8       1.0  0.14957  0.00761  0.22503  1.0000 1.0017117593
Cd  Cd9       1.0  0.02497  0.63221  0.10043  1.0000 1.0017117593
Cd  Cd10      1.0  0.10043  0.24239  0.02497  1.0000 1.0017117593
Cd  Cd11      1.0  0.12500  0.62500  0.12500  1.0000 1.1247024718
Cd  Cd12      1.0  0.12500  0.12500  0.12500  1.0000 1.1247024718
H   H1        1.0  0.39170  0.81430  0.57850  1.0000 0.1123901675
H   H2        1.0  0.45370  0.68410  0.51870  1.0000 0.1285163131
H   H3        1.0  0.36390  0.77130  0.42770  1.0000 0.138488255
H   H4        1.0  0.30360  0.89960  0.48660  1.0000 0.1204493171
H   H5        1.0  0.56700  0.61460  0.31560  1.0000 0.1518221232
H   H6        1.0  0.53290  0.48970  0.37470  1.0000 0.1632413561
H   H7        1.0  0.77380  0.35120  0.14300  1.0000 0.1518221232
H   H8        1.0  0.75780  0.43520  0.04600  1.0000 0.1285163131
H   H9        1.0  0.89060  0.32900  0.89560  1.0000 0.1285163131
H   H10       1.0  0.01450  0.27830  0.93410  1.0000 0.1285163131
H   H11       1.0  0.87710  0.38990  0.08610  1.0000 0.138488255
H   H12       1.0  0.59410  0.37270  0.14590  1.0000 0.1204493171
H   H13       1.0  0.60840  0.41620  0.20320  1.0000 0.1285163131
H   H14       1.0  0.73910  0.20090  0.20150  1.0000 0.138488255
H   H15       1.0  0.72010  0.16010  0.14970  1.0000 0.1285163131
H   H16       1.0  0.57850  0.21550  0.39170  1.0000 0.1123901675
H   H17       1.0  0.51870  0.34350  0.45370  1.0000 0.1285163131
H   H18       1.0  0.42770  0.43710  0.36390  1.0000 0.138488255
H   H19       1.0  0.48660  0.31020  0.30360  1.0000 0.1204493171
H   H20       1.0  0.31560  0.50280  0.56700  1.0000 0.1518221232
H   H21       1.0  0.37470  0.60270  0.53290  1.0000 0.1632413561
H   H22       1.0  0.14300  0.73200  0.77380  1.0000 0.1518221232
H   H23       1.0  0.04600  0.76100  0.75780  1.0000 0.1285163131
H   H24       1.0  0.89560  0.88480  0.89060  1.0000 0.1285163131
H   H25       1.0  0.93410  0.77310  0.01450  1.0000 0.1285163131
H   H26       1.0  0.08610  0.64690  0.87710  1.0000 0.138488255
H   H27       1.0  0.14590  0.88730  0.59410  1.0000 0.1204493171
H   H28       1.0  0.20320  0.77220  0.60840  1.0000 0.1285163131
H   H29       1.0  0.20150  0.85850  0.73910  1.0000 0.138488255
H   H30       1.0  0.14970  0.97010  0.72010  1.0000 0.1285163131
H   H31       1.0  0.85830  0.43570  0.67150  1.0000 0.1123901675
H   H32       1.0  0.79630  0.56590  0.73130  1.0000 0.1285163131
H   H33       1.0  0.88610  0.47870  0.82230  1.0000 0.138488255
H   H34       1.0  0.94640  0.35040  0.76340  1.0000 0.1204493171
H   H35       1.0  0.68300  0.63540  0.93440  1.0000 0.1518221232
H   H36       1.0  0.71710  0.76030  0.87530  1.0000 0.1632413561
H   H37       1.0  0.47620  0.89880  0.10700  1.0000 0.1518221232
H   H38       1.0  0.49220  0.81480  0.20400  1.0000 0.1285163131
H   H39       1.0  0.35940  0.92100  0.35440  1.0000 0.1285163131
H   H40       1.0  0.23550  0.97170  0.31590  1.0000 0.1285163131
H   H41       1.0  0.37290  0.86010  0.16390  1.0000 0.138488255
H   H42       1.0  0.65590  0.87730  0.10410  1.0000 0.1204493171
H   H43       1.0  0.64160  0.83380  0.04680  1.0000 0.1285163131
H   H44       1.0  0.51090  0.04910  0.04850  1.0000 0.138488255
H   H45       1.0  0.52990  0.08990  0.10030  1.0000 0.1285163131
H   H46       1.0  0.67150  0.03450  0.85830  1.0000 0.1123901675
H   H47       1.0  0.73130  0.90650  0.79630  1.0000 0.1285163131
H   H48       1.0  0.82230  0.81290  0.88610  1.0000 0.138488255
H   H49       1.0  0.76340  0.93980  0.94640  1.0000 0.1204493171
H   H50       1.0  0.93440  0.74720  0.68300  1.0000 0.1518221232
H   H51       1.0  0.87530  0.64730  0.71710  1.0000 0.1632413561
H   H52       1.0  0.10700  0.51800  0.47620  1.0000 0.1518221232
H   H53       1.0  0.20400  0.48900  0.49220  1.0000 0.1285163131
H   H54       1.0  0.35440  0.36520  0.35940  1.0000 0.1285163131
H   H55       1.0  0.31590  0.47690  0.23550  1.0000 0.1285163131
H   H56       1.0  0.16390  0.60310  0.37290  1.0000 0.138488255
H   H57       1.0  0.10410  0.36270  0.65590  1.0000 0.1204493171
H   H58       1.0  0.04680  0.47780  0.64160  1.0000 0.1285163131
H   H59       1.0  0.04850  0.39150  0.51090  1.0000 0.138488255
H   H60       1.0  0.10030  0.27990  0.52990  1.0000 0.1285163131
H   H61       1.0  0.81430  0.39170  0.21550  1.0000 0.1123901675
H   H62       1.0  0.68410  0.45370  0.34350  1.0000 0.1285163131
H   H63       1.0  0.77130  0.36390  0.43710  1.0000 0.138488255
H   H64       1.0  0.89960  0.30360  0.31020  1.0000 0.1204493171
H   H65       1.0  0.61460  0.56700  0.50280  1.0000 0.1518221232
H   H66       1.0  0.48970  0.53290  0.60270  1.0000 0.1632413561
H   H67       1.0  0.35120  0.77380  0.73200  1.0000 0.1518221232
H   H68       1.0  0.43520  0.75780  0.76100  1.0000 0.1285163131
H   H69       1.0  0.32900  0.89060  0.88480  1.0000 0.1285163131
H   H70       1.0  0.27830  0.01450  0.77310  1.0000 0.1285163131
H   H71       1.0  0.38990  0.87710  0.64690  1.0000 0.138488255
H   H72       1.0  0.37270  0.59410  0.88730  1.0000 0.1204493171
H   H73       1.0  0.41620  0.60840  0.77220  1.0000 0.1285163131
H   H74       1.0  0.20090  0.73910  0.85850  1.0000 0.138488255
H   H75       1.0  0.16010  0.72010  0.97010  1.0000 0.1285163131
H   H76       1.0  0.21550  0.57850  0.81430  1.0000 0.1123901675
H   H77       1.0  0.34350  0.51870  0.68410  1.0000 0.1285163131
H   H78       1.0  0.43710  0.42770  0.77130  1.0000 0.138488255
H   H79       1.0  0.31020  0.48660  0.89960  1.0000 0.1204493171
H   H80       1.0  0.50280  0.31560  0.61460  1.0000 0.1518221232
H   H81       1.0  0.60270  0.37470  0.48970  1.0000 0.1632413561
H   H82       1.0  0.73200  0.14300  0.35120  1.0000 0.1518221232
H   H83       1.0  0.76100  0.04600  0.43520  1.0000 0.1285163131
H   H84       1.0  0.88480  0.89560  0.32900  1.0000 0.1285163131
H   H85       1.0  0.77310  0.93410  0.27830  1.0000 0.1285163131
H   H86       1.0  0.64690  0.08610  0.38990  1.0000 0.138488255
H   H87       1.0  0.88730  0.14590  0.37270  1.0000 0.1204493171
H   H88       1.0  0.77220  0.20320  0.41620  1.0000 0.1285163131
H   H89       1.0  0.85850  0.20150  0.20090  1.0000 0.138488255
H   H90       1.0  0.97010  0.14970  0.16010  1.0000 0.1285163131
H   H91       1.0  0.43570  0.85830  0.03450  1.0000 0.1123901675
H   H92       1.0  0.56590  0.79630  0.90650  1.0000 0.1285163131
H   H93       1.0  0.47870  0.88610  0.81290  1.0000 0.138488255
H   H94       1.0  0.35040  0.94640  0.93980  1.0000 0.1204493171
H   H95       1.0  0.63540  0.68300  0.74720  1.0000 0.1518221232
H   H96       1.0  0.76030  0.71710  0.64730  1.0000 0.1632413561
H   H97       1.0  0.89880  0.47620  0.51800  1.0000 0.1518221232
H   H98       1.0  0.81480  0.49220  0.48900  1.0000 0.1285163131
H   H99       1.0  0.92100  0.35940  0.36520  1.0000 0.1285163131
H   H100      1.0  0.97170  0.23550  0.47690  1.0000 0.1285163131
H   H101      1.0  0.86010  0.37290  0.60310  1.0000 0.138488255
H   H102      1.0  0.87730  0.65590  0.36270  1.0000 0.1204493171
H   H103      1.0  0.83380  0.64160  0.47780  1.0000 0.1285163131
H   H104      1.0  0.04910  0.51090  0.39150  1.0000 0.138488255
H   H105      1.0  0.08990  0.52990  0.27990  1.0000 0.1285163131
H   H106      1.0  0.03450  0.67150  0.43570  1.0000 0.1123901675
H   H107      1.0  0.90650  0.73130  0.56590  1.0000 0.1285163131
H   H108      1.0  0.81290  0.82230  0.47870  1.0000 0.138488255
H   H109      1.0  0.93980  0.76340  0.35040  1.0000 0.1204493171
H   H110      1.0  0.74720  0.93440  0.63540  1.0000 0.1518221232
H   H111      1.0  0.64730  0.87530  0.76030  1.0000 0.1632413561
H   H112      1.0  0.51800  0.10700  0.89880  1.0000 0.1518221232
H   H113      1.0  0.48900  0.20400  0.81480  1.0000 0.1285163131
H   H114      1.0  0.36520  0.35440  0.92100  1.0000 0.1285163131
H   H115      1.0  0.47690  0.31590  0.97170  1.0000 0.1285163131
H   H116      1.0  0.60310  0.16390  0.86010  1.0000 0.138488255
H   H117      1.0  0.36270  0.10410  0.87730  1.0000 0.1204493171
H   H118      1.0  0.47780  0.04680  0.83380  1.0000 0.1285163131
H   H119      1.0  0.39150  0.04850  0.04910  1.0000 0.138488255
H   H120      1.0  0.27990  0.10030  0.08990  1.0000 0.1285163131
C   C1        1.0  0.34298  0.86884  0.53696  1.0000 -0.0277912058
C   C2        1.0  0.38655  0.80555  0.54745  1.0000 -0.0875822367
C   C3        1.0  0.42345  0.72767  0.51193  1.0000 -0.2003110654
C   C4        1.0  0.41518  0.71576  0.46804  1.0000 0.22913787
C   C5        1.0  0.36987  0.77987  0.45773  1.0000 -0.1895248895
C   C6        1.0  0.33424  0.85596  0.49284  1.0000 -0.0875822367
C   C7        1.0  0.59010  0.56248  0.30012  1.0000 -0.3363404614
C   C8        1.0  0.53740  0.56224  0.35776  1.0000 0.2723611923
C   C9        1.0  0.56965  0.48815  0.33625  1.0000 -0.3228591946
C   C10       1.0  0.65745  0.40921  0.25699  1.0000 0.2818191047
C   C11       1.0  0.71433  0.40461  0.19619  1.0000 -0.345224571
C   C12       1.0  0.67741  0.48385  0.21935  1.0000 0.2818191047
C   C13       1.0  0.80718  0.41990  0.07870  1.0000 0.22913787
C   C14       1.0  0.80960  0.40344  0.02336  1.0000 -0.2210097763
C   C15       1.0  0.88909  0.33943  0.93357  1.0000 -0.073049737
C   C16       1.0  0.96497  0.29171  0.90069  1.0000 -0.0454774969
C   C17       1.0  0.96319  0.30935  0.95625  1.0000 -0.0622709733
C   C18       1.0  0.88058  0.37618  0.04742  1.0000 -0.2003110654
C   C19       1.0  0.65858  0.25996  0.13964  1.0000 -0.0443202262
C   C20       1.0  0.62365  0.33789  0.15711  1.0000 -0.073049737
C   C21       1.0  0.63276  0.36344  0.19076  1.0000 -0.2210097763
C   C22       1.0  0.67673  0.31305  0.20655  1.0000 0.2540726247
C   C23       1.0  0.70955  0.23589  0.19031  1.0000 -0.2003110654
C   C24       1.0  0.69924  0.21094  0.15846  1.0000 -0.073049737
C   C25       1.0  0.30487  0.95275  0.57365  1.0000 0.5790367383
C   C26       1.0  0.64698  0.23378  0.10302  1.0000 0.5999173108
C   C27       1.0  0.05319  0.21959  0.80201  1.0000 0.5887397113
C   C28       1.0  0.53696  0.25122  0.34298  1.0000 -0.0277912058
C   C29       1.0  0.54745  0.26045  0.38655  1.0000 -0.0875822367
C   C30       1.0  0.51193  0.33695  0.42345  1.0000 -0.2003110654
C   C31       1.0  0.46804  0.40102  0.41518  1.0000 0.22913787
C   C32       1.0  0.45773  0.39253  0.36987  1.0000 -0.1895248895
C   C33       1.0  0.49284  0.31696  0.33424  1.0000 -0.0875822367
C   C34       1.0  0.30012  0.54730  0.59010  1.0000 -0.3363404614
C   C35       1.0  0.35776  0.54260  0.53740  1.0000 0.2723611923
C   C36       1.0  0.33625  0.60595  0.56965  1.0000 -0.3228591946
C   C37       1.0  0.25699  0.67635  0.65745  1.0000 0.2818191047
C   C38       1.0  0.19619  0.68487  0.71433  1.0000 -0.345224571
C   C39       1.0  0.21935  0.61939  0.67741  1.0000 0.2818191047
C   C40       1.0  0.07870  0.69422  0.80718  1.0000 0.22913787
C   C41       1.0  0.02336  0.76360  0.80960  1.0000 -0.2210097763
C   C42       1.0  0.93357  0.83791  0.88909  1.0000 -0.073049737
C   C43       1.0  0.90069  0.84263  0.96497  1.0000 -0.0454774969
C   C44       1.0  0.95625  0.77121  0.96319  1.0000 -0.0622709733
C   C45       1.0  0.04742  0.69582  0.88058  1.0000 -0.2003110654
C   C46       1.0  0.13964  0.94182  0.65858  1.0000 -0.0443202262
C   C47       1.0  0.15711  0.88135  0.62365  1.0000 -0.073049737
C   C48       1.0  0.19076  0.81304  0.63276  1.0000 -0.2210097763
C   C49       1.0  0.20655  0.80367  0.67673  1.0000 0.2540726247
C   C50       1.0  0.19031  0.86425  0.70955  1.0000 -0.2003110654
C   C51       1.0  0.15846  0.93136  0.69924  1.0000 -0.073049737
C   C52       1.0  0.57365  0.16873  0.30487  1.0000 0.5790367383
C   C53       1.0  0.10302  0.01622  0.64698  1.0000 0.5999173108
C   C54       1.0  0.80201  0.92521  0.05319  1.0000 0.5887397113
C   C55       1.0  0.90702  0.38116  0.71304  1.0000 -0.0277912058
C   C56       1.0  0.86345  0.44445  0.70255  1.0000 -0.0875822367
C   C57       1.0  0.82655  0.52233  0.73807  1.0000 -0.2003110654
C   C58       1.0  0.83482  0.53424  0.78196  1.0000 0.22913787
C   C59       1.0  0.88013  0.47013  0.79227  1.0000 -0.1895248895
C   C60       1.0  0.91576  0.39404  0.75716  1.0000 -0.0875822367
C   C61       1.0  0.65990  0.68752  0.94988  1.0000 -0.3363404614
C   C62       1.0  0.71260  0.68776  0.89224  1.0000 0.2723611923
C   C63       1.0  0.68035  0.76185  0.91375  1.0000 -0.3228591946
C   C64       1.0  0.59255  0.84079  0.99301  1.0000 0.2818191047
C   C65       1.0  0.53567  0.84539  0.05381  1.0000 -0.345224571
C   C66       1.0  0.57259  0.76615  0.03065  1.0000 0.2818191047
C   C67       1.0  0.44282  0.83010  0.17130  1.0000 0.22913787
C   C68       1.0  0.44040  0.84656  0.22664  1.0000 -0.2210097763
C   C69       1.0  0.36091  0.91057  0.31643  1.0000 -0.073049737
C   C70       1.0  0.28503  0.95829  0.34931  1.0000 -0.0454774969
C   C71       1.0  0.28681  0.94065  0.29375  1.0000 -0.0622709733
C   C72       1.0  0.36942  0.87382  0.20258  1.0000 -0.2003110654
C   C73       1.0  0.59142  0.99004  0.11036  1.0000 -0.0443202262
C   C74       1.0  0.62635  0.91211  0.09289  1.0000 -0.073049737
C   C75       1.0  0.61724  0.88656  0.05924  1.0000 -0.2210097763
C   C76       1.0  0.57327  0.93695  0.04345  1.0000 0.2540726247
C   C77       1.0  0.54045  0.01411  0.05969  1.0000 -0.2003110654
C   C78       1.0  0.55076  0.03906  0.09154  1.0000 -0.073049737
C   C79       1.0  0.94513  0.29725  0.67635  1.0000 0.5790367383
C   C80       1.0  0.60302  0.01622  0.14698  1.0000 0.5999173108
C   C81       1.0  0.19681  0.03041  0.44799  1.0000 0.5887397113
C   C82       1.0  0.71304  0.99878  0.90702  1.0000 -0.0277912058
C   C83       1.0  0.70255  0.98955  0.86345  1.0000 -0.0875822367
C   C84       1.0  0.73807  0.91305  0.82655  1.0000 -0.2003110654
C   C85       1.0  0.78196  0.84898  0.83482  1.0000 0.22913787
C   C86       1.0  0.79227  0.85747  0.88013  1.0000 -0.1895248895
C   C87       1.0  0.75716  0.93304  0.91576  1.0000 -0.0875822367
C   C88       1.0  0.94988  0.70270  0.65990  1.0000 -0.3363404614
C   C89       1.0  0.89224  0.70740  0.71260  1.0000 0.2723611923
C   C90       1.0  0.91375  0.64405  0.68035  1.0000 -0.3228591946
C   C91       1.0  0.99301  0.57365  0.59255  1.0000 0.2818191047
C   C92       1.0  0.05381  0.56513  0.53567  1.0000 -0.345224571
C   C93       1.0  0.03065  0.63061  0.57259  1.0000 0.2818191047
C   C94       1.0  0.17130  0.55578  0.44282  1.0000 0.22913787
C   C95       1.0  0.22664  0.48640  0.44040  1.0000 -0.2210097763
C   C96       1.0  0.31643  0.41209  0.36091  1.0000 -0.073049737
C   C97       1.0  0.34931  0.40737  0.28503  1.0000 -0.0454774969
C   C98       1.0  0.29375  0.47879  0.28681  1.0000 -0.0622709733
C   C99       1.0  0.20258  0.55418  0.36942  1.0000 -0.2003110654
C   C100      1.0  0.11036  0.30818  0.59142  1.0000 -0.0443202262
C   C101      1.0  0.09289  0.36865  0.62635  1.0000 -0.073049737
C   C102      1.0  0.05924  0.43696  0.61724  1.0000 -0.2210097763
C   C103      1.0  0.04345  0.44633  0.57327  1.0000 0.2540726247
C   C104      1.0  0.05969  0.38575  0.54045  1.0000 -0.2003110654
C   C105      1.0  0.09154  0.31864  0.55076  1.0000 -0.073049737
C   C106      1.0  0.67635  0.08127  0.94513  1.0000 0.5790367383
C   C107      1.0  0.14698  0.23378  0.60302  1.0000 0.5999173108
C   C108      1.0  0.44799  0.32479  0.19681  1.0000 0.5887397113
C   C109      1.0  0.86884  0.34298  0.25122  1.0000 -0.0277912058
C   C110      1.0  0.80555  0.38655  0.26045  1.0000 -0.0875822367
C   C111      1.0  0.72767  0.42345  0.33695  1.0000 -0.2003110654
C   C112      1.0  0.71576  0.41518  0.40102  1.0000 0.22913787
C   C113      1.0  0.77987  0.36987  0.39253  1.0000 -0.1895248895
C   C114      1.0  0.85596  0.33424  0.31696  1.0000 -0.0875822367
C   C115      1.0  0.56248  0.59010  0.54730  1.0000 -0.3363404614
C   C116      1.0  0.56224  0.53740  0.54260  1.0000 0.2723611923
C   C117      1.0  0.48815  0.56965  0.60595  1.0000 -0.3228591946
C   C118      1.0  0.40921  0.65745  0.67635  1.0000 0.2818191047
C   C119      1.0  0.40461  0.71433  0.68487  1.0000 -0.345224571
C   C120      1.0  0.48385  0.67741  0.61939  1.0000 0.2818191047
C   C121      1.0  0.41990  0.80718  0.69422  1.0000 0.22913787
C   C122      1.0  0.40344  0.80960  0.76360  1.0000 -0.2210097763
C   C123      1.0  0.33943  0.88909  0.83791  1.0000 -0.073049737
C   C124      1.0  0.29171  0.96497  0.84263  1.0000 -0.0454774969
C   C125      1.0  0.30935  0.96319  0.77121  1.0000 -0.0622709733
C   C126      1.0  0.37618  0.88058  0.69582  1.0000 -0.2099083145
C   C127      1.0  0.25996  0.65858  0.94182  1.0000 -0.0443202262
C   C128      1.0  0.33789  0.62365  0.88135  1.0000 -0.073049737
C   C129      1.0  0.36344  0.63276  0.81304  1.0000 -0.2210097763
C   C130      1.0  0.31305  0.67673  0.80367  1.0000 0.2540726247
C   C131      1.0  0.23589  0.70955  0.86425  1.0000 -0.2003110654
C   C132      1.0  0.21094  0.69924  0.93136  1.0000 -0.073049737
C   C133      1.0  0.95275  0.30487  0.16873  1.0000 0.5790367383
C   C134      1.0  0.23378  0.64698  0.01622  1.0000 0.5999173108
C   C135      1.0  0.21959  0.05319  0.92521  1.0000 0.5887397113
C   C136      1.0  0.25122  0.53696  0.86884  1.0000 -0.0277912058
C   C137      1.0  0.26045  0.54745  0.80555  1.0000 -0.0875822367
C   C138      1.0  0.33695  0.51193  0.72767  1.0000 -0.2003110654
C   C139      1.0  0.40102  0.46804  0.71576  1.0000 0.22913787
C   C140      1.0  0.39253  0.45773  0.77987  1.0000 -0.1895248895
C   C141      1.0  0.31696  0.49284  0.85596  1.0000 -0.0875822367
C   C142      1.0  0.54730  0.30012  0.56248  1.0000 -0.3363404614
C   C143      1.0  0.54260  0.35776  0.56224  1.0000 0.2723611923
C   C144      1.0  0.60595  0.33625  0.48815  1.0000 -0.3228591946
C   C145      1.0  0.67635  0.25699  0.40921  1.0000 0.2818191047
C   C146      1.0  0.68487  0.19619  0.40461  1.0000 -0.345224571
C   C147      1.0  0.61939  0.21935  0.48385  1.0000 0.2818191047
C   C148      1.0  0.69422  0.07870  0.41990  1.0000 0.22913787
C   C149      1.0  0.76360  0.02336  0.40344  1.0000 -0.2099083145
C   C150      1.0  0.83791  0.93357  0.33943  1.0000 -0.073049737
C   C151      1.0  0.84263  0.90069  0.29171  1.0000 -0.0454774969
C   C152      1.0  0.77121  0.95625  0.30935  1.0000 -0.0622709733
C   C153      1.0  0.69582  0.04742  0.37618  1.0000 -0.2003110654
C   C154      1.0  0.94182  0.13964  0.25996  1.0000 -0.0443202262
C   C155      1.0  0.88135  0.15711  0.33789  1.0000 -0.073049737
C   C156      1.0  0.81304  0.19076  0.36344  1.0000 -0.2210097763
C   C157      1.0  0.80367  0.20655  0.31305  1.0000 0.2540726247
C   C158      1.0  0.86425  0.19031  0.23589  1.0000 -0.2003110654
C   C159      1.0  0.93136  0.15846  0.21094  1.0000 -0.073049737
C   C160      1.0  0.16873  0.57365  0.95275  1.0000 0.5790367383
C   C161      1.0  0.01622  0.10302  0.23378  1.0000 0.5999173108
C   C162      1.0  0.92521  0.80201  0.21959  1.0000 0.5887397113
C   C163      1.0  0.38116  0.90702  0.99878  1.0000 -0.0277912058
C   C164      1.0  0.44445  0.86345  0.98955  1.0000 -0.0875822367
C   C165      1.0  0.52233  0.82655  0.91305  1.0000 -0.2003110654
C   C166      1.0  0.53424  0.83482  0.84898  1.0000 0.22913787
C   C167      1.0  0.47013  0.88013  0.85747  1.0000 -0.1895248895
C   C168      1.0  0.39404  0.91576  0.93304  1.0000 -0.0875822367
C   C169      1.0  0.68752  0.65990  0.70270  1.0000 -0.3363404614
C   C170      1.0  0.68776  0.71260  0.70740  1.0000 0.2723611923
C   C171      1.0  0.76185  0.68035  0.64405  1.0000 -0.3228591946
C   C172      1.0  0.84079  0.59255  0.57365  1.0000 0.2818191047
C   C173      1.0  0.84539  0.53567  0.56513  1.0000 -0.345224571
C   C174      1.0  0.76615  0.57259  0.63061  1.0000 0.2818191047
C   C175      1.0  0.83010  0.44282  0.55578  1.0000 0.22913787
C   C176      1.0  0.84656  0.44040  0.48640  1.0000 -0.2099083145
C   C177      1.0  0.91057  0.36091  0.41209  1.0000 -0.073049737
C   C178      1.0  0.95829  0.28503  0.40737  1.0000 -0.0454774969
C   C179      1.0  0.94065  0.28681  0.47879  1.0000 -0.0622709733
C   C180      1.0  0.87382  0.36942  0.55418  1.0000 -0.2003110654
C   C181      1.0  0.99004  0.59142  0.30818  1.0000 -0.0443202262
C   C182      1.0  0.91211  0.62635  0.36865  1.0000 -0.073049737
C   C183      1.0  0.88656  0.61724  0.43696  1.0000 -0.2210097763
C   C184      1.0  0.93695  0.57327  0.44633  1.0000 0.2540726247
C   C185      1.0  0.01411  0.54045  0.38575  1.0000 -0.2003110654
C   C186      1.0  0.03906  0.55076  0.31864  1.0000 -0.073049737
C   C187      1.0  0.29725  0.94513  0.08127  1.0000 0.5790367383
C   C188      1.0  0.01622  0.60302  0.23378  1.0000 0.5999173108
C   C189      1.0  0.03041  0.19681  0.32479  1.0000 0.5887397113
C   C190      1.0  0.99878  0.71304  0.38116  1.0000 -0.0277912058
C   C191      1.0  0.98955  0.70255  0.44445  1.0000 -0.0875822367
C   C192      1.0  0.91305  0.73807  0.52233  1.0000 -0.2003110654
C   C193      1.0  0.84898  0.78196  0.53424  1.0000 0.22913787
C   C194      1.0  0.85747  0.79227  0.47013  1.0000 -0.1895248895
C   C195      1.0  0.93304  0.75716  0.39404  1.0000 -0.0875822367
C   C196      1.0  0.70270  0.94988  0.68752  1.0000 -0.3363404614
C   C197      1.0  0.70740  0.89224  0.68776  1.0000 0.2723611923
C   C198      1.0  0.64405  0.91375  0.76185  1.0000 -0.3228591946
C   C199      1.0  0.57365  0.99301  0.84079  1.0000 0.2818191047
C   C200      1.0  0.56513  0.05381  0.84539  1.0000 -0.345224571
C   C201      1.0  0.63061  0.03065  0.76615  1.0000 0.2818191047
C   C202      1.0  0.55578  0.17130  0.83010  1.0000 0.22913787
C   C203      1.0  0.48640  0.22664  0.84656  1.0000 -0.2099083145
C   C204      1.0  0.41209  0.31643  0.91057  1.0000 -0.073049737
C   C205      1.0  0.40737  0.34931  0.95829  1.0000 -0.0454774969
C   C206      1.0  0.47879  0.29375  0.94065  1.0000 -0.0622709733
C   C207      1.0  0.55418  0.20258  0.87382  1.0000 -0.2003110654
C   C208      1.0  0.30818  0.11036  0.99004  1.0000 -0.0443202262
C   C209      1.0  0.36865  0.09289  0.91211  1.0000 -0.073049737
C   C210      1.0  0.43696  0.05924  0.88656  1.0000 -0.2210097763
C   C211      1.0  0.44633  0.04345  0.93695  1.0000 0.2540726247
C   C212      1.0  0.38575  0.05969  0.01411  1.0000 -0.2003110654
C   C213      1.0  0.31864  0.09154  0.03906  1.0000 -0.073049737
C   C214      1.0  0.08127  0.67635  0.29725  1.0000 0.5790367383
C   C215      1.0  0.23378  0.14698  0.01622  1.0000 0.5999173108
C   C216      1.0  0.32479  0.44799  0.03041  1.0000 0.5887397113
O   O1        1.0  0.44808  0.63936  0.43724  1.0000 -0.2401600745
O   O2        1.0  0.72713  0.48849  0.16791  1.0000 -0.2210097763
O   O3        1.0  0.69203  0.33137  0.23723  1.0000 -0.2099083145
O   O4        1.0  0.11986  0.18110  0.77570  1.0000 -0.5388089535
O   O5        1.0  0.05069  0.20529  0.75731  1.0000 -0.5615622518
O   O6        1.0  0.32109  0.95985  0.60495  1.0000 -0.5388089535
O   O7        1.0  0.25952  0.01316  0.56764  1.0000 -0.6034544674
O   O8        1.0  0.67516  0.16412  0.09468  1.0000 -0.6034544674
O   O9        1.0  0.61626  0.27656  0.07884  1.0000 -0.5615622518
O   O10       1.0  0.43724  0.47532  0.44808  1.0000 -0.2401600745
O   O11       1.0  0.16791  0.61647  0.72713  1.0000 -0.2210097763
O   O12       1.0  0.23723  0.73937  0.69203  1.0000 -0.2099083145
O   O13       1.0  0.77570  0.92334  0.11986  1.0000 -0.5388089535
O   O14       1.0  0.75731  0.98671  0.05069  1.0000 -0.5615622518
O   O15       1.0  0.60495  0.11411  0.32109  1.0000 -0.5388089535
O   O16       1.0  0.56764  0.15968  0.25952  1.0000 -0.6034544674
O   O17       1.0  0.09468  0.06604  0.67516  1.0000 -0.6034544674
O   O18       1.0  0.07884  0.02834  0.61626  1.0000 -0.5615622518
O   O19       1.0  0.80192  0.61064  0.81276  1.0000 -0.2401600745
O   O20       1.0  0.52287  0.76151  0.08209  1.0000 -0.2210097763
O   O21       1.0  0.55797  0.91863  0.01277  1.0000 -0.2099083145
O   O22       1.0  0.13014  0.06890  0.47430  1.0000 -0.5388089535
O   O23       1.0  0.19931  0.04471  0.49269  1.0000 -0.5615622518
O   O24       1.0  0.92891  0.29015  0.64505  1.0000 -0.5388089535
O   O25       1.0  0.99048  0.23684  0.68236  1.0000 -0.6034544674
O   O26       1.0  0.57484  0.08588  0.15532  1.0000 -0.6034544674
O   O27       1.0  0.63374  0.97344  0.17116  1.0000 -0.5615622518
O   O28       1.0  0.81276  0.77468  0.80192  1.0000 -0.2401600745
O   O29       1.0  0.08209  0.63353  0.52287  1.0000 -0.2210097763
O   O30       1.0  0.01277  0.51063  0.55797  1.0000 -0.2099083145
O   O31       1.0  0.47430  0.32666  0.13014  1.0000 -0.5388089535
O   O32       1.0  0.49269  0.26329  0.19931  1.0000 -0.5615622518
O   O33       1.0  0.64505  0.13589  0.92891  1.0000 -0.5388089535
O   O34       1.0  0.68236  0.09032  0.99048  1.0000 -0.6034544674
O   O35       1.0  0.15532  0.18396  0.57484  1.0000 -0.6034544674
O   O36       1.0  0.17116  0.22166  0.63374  1.0000 -0.5615622518
O   O37       1.0  0.63936  0.44808  0.47532  1.0000 -0.2401600745
O   O38       1.0  0.48849  0.72713  0.61647  1.0000 -0.2210097763
O   O39       1.0  0.33137  0.69203  0.73937  1.0000 -0.2099083145
O   O40       1.0  0.18110  0.11986  0.92334  1.0000 -0.5388089535
O   O41       1.0  0.20529  0.05069  0.98671  1.0000 -0.5615622518
O   O42       1.0  0.95985  0.32109  0.11411  1.0000 -0.5388089535
O   O43       1.0  0.01316  0.25952  0.15968  1.0000 -0.6034544674
O   O44       1.0  0.16412  0.67516  0.06604  1.0000 -0.6034544674
O   O45       1.0  0.27656  0.61626  0.02834  1.0000 -0.5615622518
O   O46       1.0  0.47532  0.43724  0.63936  1.0000 -0.2401600745
O   O47       1.0  0.61647  0.16791  0.48849  1.0000 -0.2210097763
O   O48       1.0  0.73937  0.23723  0.33137  1.0000 -0.2099083145
O   O49       1.0  0.92334  0.77570  0.18110  1.0000 -0.5388089535
O   O50       1.0  0.98671  0.75731  0.20529  1.0000 -0.5615622518
O   O51       1.0  0.11411  0.60495  0.95985  1.0000 -0.5388089535
O   O52       1.0  0.15968  0.56764  0.01316  1.0000 -0.6034544674
O   O53       1.0  0.06604  0.09468  0.16412  1.0000 -0.6034544674
O   O54       1.0  0.02834  0.07884  0.27656  1.0000 -0.5615622518
O   O55       1.0  0.61064  0.80192  0.77468  1.0000 -0.2401600745
O   O56       1.0  0.76151  0.52287  0.63353  1.0000 -0.2210097763
O   O57       1.0  0.91863  0.55797  0.51063  1.0000 -0.2099083145
O   O58       1.0  0.06890  0.13014  0.32666  1.0000 -0.5388089535
O   O59       1.0  0.04471  0.19931  0.26329  1.0000 -0.5615622518
O   O60       1.0  0.29015  0.92891  0.13589  1.0000 -0.5388089535
O   O61       1.0  0.23684  0.99048  0.09032  1.0000 -0.6034544674
O   O62       1.0  0.08588  0.57484  0.18396  1.0000 -0.6034544674
O   O63       1.0  0.97344  0.63374  0.22166  1.0000 -0.5615622518
O   O64       1.0  0.77468  0.81276  0.61064  1.0000 -0.2401600745
O   O65       1.0  0.63353  0.08209  0.76151  1.0000 -0.2210097763
O   O66       1.0  0.51063  0.01277  0.91863  1.0000 -0.2099083145
O   O67       1.0  0.32666  0.47430  0.06890  1.0000 -0.5388089535
O   O68       1.0  0.26329  0.49269  0.04471  1.0000 -0.5615622518
O   O69       1.0  0.13589  0.64505  0.29015  1.0000 -0.5388089535
O   O70       1.0  0.09032  0.68236  0.23684  1.0000 -0.6034544674
O   O71       1.0  0.18396  0.15532  0.08588  1.0000 -0.6034544674
O   O72       1.0  0.22166  0.17116  0.97344  1.0000 -0.5615622518
