# DDEC6 charges by PACMAN v1.1 (https://github.com/mtap-research/PACMAN-charge/)
data_2017[Zn][sit]3[ASR]1
_chemical_formula_sum              "Zn12 H96 C168 N8 O52"
_cell_length_a       13.6154
_cell_length_b       22.7304
_cell_length_c       19.5742
_cell_angle_alpha    90
_cell_angle_beta     97.496
_cell_angle_gamma    90

_symmetry_space_group_name_H-M    "P 1"
_symmetry_Int_Tables_number       1

loop_
  _symmetry_equiv_pos_as_xyz
  'x, y, z'

loop_
  _atom_site_type_symbol
  _atom_site_label
  _atom_site_symmetry_multiplicity
  _atom_site_fract_x
  _atom_site_fract_y
  _atom_site_fract_z
  _atom_site_occupancy
  _atom_site_charge
Zn  Zn1       1.0  0.79623  0.08453  0.17527  1.0000 1.000215717
Zn  Zn2       1.0  0.81981  0.92652  0.15516  1.0000 1.000215717
Zn  Zn3       1.0  0.62465  0.00210  0.10649  1.0000 1.000215717
Zn  Zn4       1.0  0.79623  0.41547  0.67527  1.0000 1.000215717
Zn  Zn5       1.0  0.81981  0.57348  0.65516  1.0000 1.000215717
Zn  Zn6       1.0  0.62465  0.49790  0.60649  1.0000 1.000215717
Zn  Zn7       1.0  0.20377  0.58453  0.32473  1.0000 1.000215717
Zn  Zn8       1.0  0.18019  0.42652  0.34484  1.0000 1.000215717
Zn  Zn9       1.0  0.37535  0.50210  0.39351  1.0000 1.000215717
Zn  Zn10      1.0  0.20377  0.91547  0.82473  1.0000 1.000215717
Zn  Zn11      1.0  0.18019  0.07348  0.84484  1.0000 1.000215717
Zn  Zn12      1.0  0.37535  0.99790  0.89351  1.0000 1.000215717
H   H1        1.0  0.29473  0.87311  0.35678  1.0000 0.1212210626
H   H2        1.0  0.12247  0.87093  0.13791  1.0000 0.1300477496
H   H3        1.0  0.65765  0.16642  0.33361  1.0000 0.1300477496
H   H4        1.0  0.52117  0.67242  0.32972  1.0000 0.1212210626
H   H5        1.0  0.75470  0.71523  0.51456  1.0000 0.1300477496
H   H6        1.0  0.68835  0.81453  0.30409  1.0000 0.1300477496
H   H7        1.0  0.57653  0.59955  0.40552  1.0000 0.1351463624
H   H8        1.0  0.74183  0.27150  0.53195  1.0000 0.1300477496
H   H9        1.0  0.12965  0.89931  0.34016  1.0000 0.1212210626
H   H10       1.0  0.51262  0.36981  0.44961  1.0000 0.1300477496
H   H11       1.0  0.27420  0.04025  0.35394  1.0000 0.1300477496
H   H12       1.0  0.68955  0.19527  0.45985  1.0000 0.1300477496
H   H13       1.0  0.45914  0.29373  0.37762  1.0000 0.1212210626
H   H14       1.0  0.69429  0.78874  0.44130  1.0000 0.1300477496
H   H15       1.0  0.10633  0.02374  0.32196  1.0000 0.1300477496
H   H16       1.0  0.43372  0.06632  0.24543  1.0000 0.1300477496
H   H17       1.0  0.28715  0.84144  0.15523  1.0000 0.1212210626
H   H18       1.0  0.45722  0.90092  0.20387  1.0000 0.1300477496
H   H19       1.0  0.08960  0.16852  0.20665  1.0000 0.1300477496
H   H20       1.0  0.25637  0.18573  0.23826  1.0000 0.1300477496
H   H21       1.0  0.32915  0.77192  0.34513  1.0000 0.2883086183
H   H22       1.0  0.41516  0.73797  0.37974  1.0000 0.2883086183
H   H23       1.0  0.30054  0.18529  0.39317  1.0000 0.2883086183
H   H24       1.0  0.38206  0.22375  0.42576  1.0000 0.2883086183
H   H25       1.0  0.29473  0.62689  0.85678  1.0000 0.1212210626
H   H26       1.0  0.12247  0.62907  0.63791  1.0000 0.1300477496
H   H27       1.0  0.65765  0.33358  0.83361  1.0000 0.1300477496
H   H28       1.0  0.52117  0.82758  0.82972  1.0000 0.1212210626
H   H29       1.0  0.75470  0.78477  0.01456  1.0000 0.1300477496
H   H30       1.0  0.68835  0.68547  0.80409  1.0000 0.1300477496
H   H31       1.0  0.57653  0.90045  0.90552  1.0000 0.1351463624
H   H32       1.0  0.74183  0.22850  0.03195  1.0000 0.1300477496
H   H33       1.0  0.12965  0.60069  0.84016  1.0000 0.1212210626
H   H34       1.0  0.51262  0.13019  0.94961  1.0000 0.1300477496
H   H35       1.0  0.27420  0.45975  0.85394  1.0000 0.1300477496
H   H36       1.0  0.68955  0.30473  0.95985  1.0000 0.1300477496
H   H37       1.0  0.45914  0.20627  0.87762  1.0000 0.1212210626
H   H38       1.0  0.69429  0.71126  0.94130  1.0000 0.1300477496
H   H39       1.0  0.10633  0.47626  0.82196  1.0000 0.1300477496
H   H40       1.0  0.43372  0.43368  0.74543  1.0000 0.1300477496
H   H41       1.0  0.28715  0.65856  0.65523  1.0000 0.1212210626
H   H42       1.0  0.45722  0.59908  0.70387  1.0000 0.1300477496
H   H43       1.0  0.08960  0.33148  0.70665  1.0000 0.1300477496
H   H44       1.0  0.25637  0.31427  0.73826  1.0000 0.1300477496
H   H45       1.0  0.32915  0.72808  0.84513  1.0000 0.2883086183
H   H46       1.0  0.41516  0.76203  0.87974  1.0000 0.2883086183
H   H47       1.0  0.30054  0.31471  0.89317  1.0000 0.2883086183
H   H48       1.0  0.38206  0.27625  0.92576  1.0000 0.2883086183
H   H49       1.0  0.70527  0.37311  0.14322  1.0000 0.1212210626
H   H50       1.0  0.87753  0.37093  0.36209  1.0000 0.1300477496
H   H51       1.0  0.34235  0.66642  0.16639  1.0000 0.1300477496
H   H52       1.0  0.47883  0.17242  0.17028  1.0000 0.1212210626
H   H53       1.0  0.24530  0.21523  0.98544  1.0000 0.1300477496
H   H54       1.0  0.31165  0.31453  0.19591  1.0000 0.1300477496
H   H55       1.0  0.42347  0.09955  0.09448  1.0000 0.1351463624
H   H56       1.0  0.25817  0.77150  0.96805  1.0000 0.1300477496
H   H57       1.0  0.87035  0.39931  0.15984  1.0000 0.1212210626
H   H58       1.0  0.48738  0.86981  0.05039  1.0000 0.1300477496
H   H59       1.0  0.72580  0.54025  0.14606  1.0000 0.1300477496
H   H60       1.0  0.31045  0.69527  0.04015  1.0000 0.1300477496
H   H61       1.0  0.54086  0.79373  0.12238  1.0000 0.1212210626
H   H62       1.0  0.30571  0.28874  0.05870  1.0000 0.1300477496
H   H63       1.0  0.89367  0.52374  0.17804  1.0000 0.1300477496
H   H64       1.0  0.56628  0.56632  0.25457  1.0000 0.1300477496
H   H65       1.0  0.71285  0.34144  0.34477  1.0000 0.1212210626
H   H66       1.0  0.54278  0.40092  0.29613  1.0000 0.1300477496
H   H67       1.0  0.91040  0.66852  0.29335  1.0000 0.1300477496
H   H68       1.0  0.74363  0.68573  0.26174  1.0000 0.1300477496
H   H69       1.0  0.67085  0.27192  0.15487  1.0000 0.2883086183
H   H70       1.0  0.58484  0.23797  0.12026  1.0000 0.2883086183
H   H71       1.0  0.69946  0.68529  0.10683  1.0000 0.2883086183
H   H72       1.0  0.61794  0.72375  0.07424  1.0000 0.2883086183
H   H73       1.0  0.70527  0.12689  0.64322  1.0000 0.1212210626
H   H74       1.0  0.87753  0.12907  0.86209  1.0000 0.1300477496
H   H75       1.0  0.34235  0.83358  0.66639  1.0000 0.1300477496
H   H76       1.0  0.47883  0.32758  0.67028  1.0000 0.1212210626
H   H77       1.0  0.24530  0.28477  0.48544  1.0000 0.1300477496
H   H78       1.0  0.31165  0.18547  0.69591  1.0000 0.1300477496
H   H79       1.0  0.42347  0.40045  0.59448  1.0000 0.1351463624
H   H80       1.0  0.25817  0.72850  0.46805  1.0000 0.1300477496
H   H81       1.0  0.87035  0.10069  0.65984  1.0000 0.1212210626
H   H82       1.0  0.48738  0.63019  0.55039  1.0000 0.1300477496
H   H83       1.0  0.72580  0.95975  0.64606  1.0000 0.1300477496
H   H84       1.0  0.31045  0.80473  0.54015  1.0000 0.1300477496
H   H85       1.0  0.54086  0.70627  0.62238  1.0000 0.1212210626
H   H86       1.0  0.30571  0.21126  0.55870  1.0000 0.1300477496
H   H87       1.0  0.89367  0.97626  0.67804  1.0000 0.1300477496
H   H88       1.0  0.56628  0.93368  0.75457  1.0000 0.1300477496
H   H89       1.0  0.71285  0.15856  0.84477  1.0000 0.1212210626
H   H90       1.0  0.54278  0.09908  0.79613  1.0000 0.1300477496
H   H91       1.0  0.91040  0.83148  0.79335  1.0000 0.1300477496
H   H92       1.0  0.74363  0.81427  0.76174  1.0000 0.1300477496
H   H93       1.0  0.67085  0.22808  0.65487  1.0000 0.2883086183
H   H94       1.0  0.58484  0.26203  0.62026  1.0000 0.2883086183
H   H95       1.0  0.69946  0.81471  0.60683  1.0000 0.2883086183
H   H96       1.0  0.61794  0.77625  0.57424  1.0000 0.2883086183
C   C1        1.0  0.45370  0.79650  0.31640  1.0000 0.1927501314
C   C2        1.0  0.26000  0.87220  0.31260  1.0000 -0.157632584
C   C3        1.0  0.15670  0.87060  0.18230  1.0000 -0.0781862795
C   C4        1.0  0.55800  0.11080  0.28300  1.0000 -0.0249514005
C   C5        1.0  0.28360  0.11370  0.29760  1.0000 0.0801681023
C   C6        1.0  0.56590  0.23530  0.41160  1.0000 0.0902635434
C   C7        1.0  0.63220  0.32810  0.50110  1.0000 -0.0549757986
C   C8        1.0  0.62380  0.08420  0.23620  1.0000 0.5832328477
C   C9        1.0  0.66870  0.64940  0.47000  1.0000 -0.0286286575
C   C10       1.0  0.59100  0.15610  0.32850  1.0000 -0.1329231283
C   C11       1.0  0.41670  0.84030  0.27040  1.0000 -0.0286286575
C   C12       1.0  0.56670  0.68160  0.36790  1.0000 -0.148280387
C   C13       1.0  0.70550  0.70680  0.47830  1.0000 -0.1030534192
C   C14       1.0  0.62030  0.82020  0.29500  1.0000 -0.1329231283
C   C15       1.0  0.60020  0.63770  0.41320  1.0000 -0.0781862795
C   C16       1.0  0.68400  0.27580  0.50140  1.0000 -0.1030534192
C   C17       1.0  0.59860  0.73890  0.37730  1.0000 0.0801681023
C   C18       1.0  0.16100  0.88800  0.30280  1.0000 -0.0879706538
C   C19       1.0  0.64710  0.89720  0.20620  1.0000 0.5832328477
C   C20       1.0  0.08100  0.09480  0.26080  1.0000 -0.0143033031
C   C21       1.0  0.00060  0.90250  0.22870  1.0000 0.5654536166
C   C22       1.0  0.55870  0.78630  0.32890  1.0000 -0.0286286575
C   C23       1.0  0.66280  0.37550  0.55020  1.0000 0.5924951711
C   C24       1.0  0.54740  0.33450  0.45250  1.0000 -0.0781862795
C   C25       1.0  0.23760  0.06600  0.32370  1.0000 -0.157632584
C   C26       1.0  0.30830  0.85500  0.25790  1.0000 0.0801681023
C   C27       1.0  0.97320  0.08330  0.23870  1.0000 0.5610747614
C   C28       1.0  0.65290  0.22990  0.45820  1.0000 -0.1449982545
C   C29       1.0  0.39260  0.12440  0.31320  1.0000 -0.0286286575
C   C30       1.0  0.58410  0.86250  0.24770  1.0000 -0.0286286575
C   C31       1.0  0.52810  0.18580  0.36590  1.0000 -0.0286286575
C   C32       1.0  0.51570  0.28880  0.40930  1.0000 -0.157632584
C   C33       1.0  0.67040  0.75060  0.43390  1.0000 -0.157632584
C   C34       1.0  0.13650  0.05630  0.30480  1.0000 -0.0714245683
C   C35       1.0  0.10870  0.88680  0.23700  1.0000 -0.0143033031
C   C36       1.0  0.69860  0.60350  0.52260  1.0000 0.5924951711
C   C37       1.0  0.45730  0.09600  0.27590  1.0000 -0.1329231283
C   C38       1.0  0.42580  0.16940  0.35930  1.0000 0.1960582712
C   C39       1.0  0.25610  0.85360  0.19240  1.0000 -0.148280387
C   C40       1.0  0.48200  0.87240  0.23560  1.0000 -0.1329231283
C   C41       1.0  0.12660  0.14240  0.23630  1.0000 -0.0781862795
C   C42       1.0  0.22700  0.15260  0.25470  1.0000 -0.157632584
C   C43       1.0  0.45370  0.70350  0.81640  1.0000 0.1927501314
C   C44       1.0  0.26000  0.62780  0.81260  1.0000 -0.157632584
C   C45       1.0  0.15670  0.62940  0.68230  1.0000 -0.0781862795
C   C46       1.0  0.55800  0.38920  0.78300  1.0000 -0.0249514005
C   C47       1.0  0.28360  0.38630  0.79760  1.0000 0.0801681023
C   C48       1.0  0.56590  0.26470  0.91160  1.0000 0.0902635434
C   C49       1.0  0.63220  0.17190  0.00110  1.0000 -0.0549757986
C   C50       1.0  0.62380  0.41580  0.73620  1.0000 0.5832328477
C   C51       1.0  0.66870  0.85060  0.97000  1.0000 -0.0286286575
C   C52       1.0  0.59100  0.34390  0.82850  1.0000 -0.1329231283
C   C53       1.0  0.41670  0.65970  0.77040  1.0000 -0.0286286575
C   C54       1.0  0.56670  0.81840  0.86790  1.0000 -0.148280387
C   C55       1.0  0.70550  0.79320  0.97830  1.0000 -0.1030534192
C   C56       1.0  0.62030  0.67980  0.79500  1.0000 -0.1329231283
C   C57       1.0  0.60020  0.86230  0.91320  1.0000 -0.0781862795
C   C58       1.0  0.68400  0.22420  0.00140  1.0000 -0.1030534192
C   C59       1.0  0.59860  0.76110  0.87730  1.0000 0.0801681023
C   C60       1.0  0.16100  0.61200  0.80280  1.0000 -0.0879706538
C   C61       1.0  0.64710  0.60280  0.70620  1.0000 0.5832328477
C   C62       1.0  0.08100  0.40520  0.76080  1.0000 -0.0143033031
C   C63       1.0  0.00060  0.59750  0.72870  1.0000 0.5654536166
C   C64       1.0  0.55870  0.71370  0.82890  1.0000 -0.0286286575
C   C65       1.0  0.66280  0.12450  0.05020  1.0000 0.5924951711
C   C66       1.0  0.54740  0.16550  0.95250  1.0000 -0.0781862795
C   C67       1.0  0.23760  0.43400  0.82370  1.0000 -0.157632584
C   C68       1.0  0.30830  0.64500  0.75790  1.0000 0.0801681023
C   C69       1.0  0.97320  0.41670  0.73870  1.0000 0.5610747614
C   C70       1.0  0.65290  0.27010  0.95820  1.0000 -0.148280387
C   C71       1.0  0.39260  0.37560  0.81320  1.0000 -0.0286286575
C   C72       1.0  0.58410  0.63750  0.74770  1.0000 -0.0286286575
C   C73       1.0  0.52810  0.31420  0.86590  1.0000 -0.0286286575
C   C74       1.0  0.51570  0.21120  0.90930  1.0000 -0.157632584
C   C75       1.0  0.67040  0.74940  0.93390  1.0000 -0.157632584
C   C76       1.0  0.13650  0.44370  0.80480  1.0000 -0.0714245683
C   C77       1.0  0.10870  0.61320  0.73700  1.0000 -0.0143033031
C   C78       1.0  0.69860  0.89650  0.02260  1.0000 0.5924951711
C   C79       1.0  0.45730  0.40400  0.77590  1.0000 -0.1329231283
C   C80       1.0  0.42580  0.33060  0.85930  1.0000 0.1960582712
C   C81       1.0  0.25610  0.64640  0.69240  1.0000 -0.148280387
C   C82       1.0  0.48200  0.62760  0.73560  1.0000 -0.1329231283
C   C83       1.0  0.12660  0.35760  0.73630  1.0000 -0.0781862795
C   C84       1.0  0.22700  0.34740  0.75470  1.0000 -0.157632584
C   C85       1.0  0.54630  0.29650  0.18360  1.0000 0.1927501314
C   C86       1.0  0.74000  0.37220  0.18740  1.0000 -0.157632584
C   C87       1.0  0.84330  0.37060  0.31770  1.0000 -0.0781862795
C   C88       1.0  0.44200  0.61080  0.21700  1.0000 -0.0249514005
C   C89       1.0  0.71640  0.61370  0.20240  1.0000 0.0801681023
C   C90       1.0  0.43410  0.73530  0.08840  1.0000 0.0902635434
C   C91       1.0  0.36780  0.82810  0.99890  1.0000 -0.0549757986
C   C92       1.0  0.37620  0.58420  0.26380  1.0000 0.5832328477
C   C93       1.0  0.33130  0.14940  0.03000  1.0000 -0.0286286575
C   C94       1.0  0.40900  0.65610  0.17150  1.0000 -0.1329231283
C   C95       1.0  0.58330  0.34030  0.22960  1.0000 -0.0249514005
C   C96       1.0  0.43330  0.18160  0.13210  1.0000 -0.148280387
C   C97       1.0  0.29450  0.20680  0.02170  1.0000 -0.1030534192
C   C98       1.0  0.37970  0.32020  0.20500  1.0000 -0.1329231283
C   C99       1.0  0.39980  0.13770  0.08680  1.0000 -0.0781862795
C   C100      1.0  0.31600  0.77580  0.99860  1.0000 -0.1030534192
C   C101      1.0  0.40140  0.23890  0.12270  1.0000 0.0801681023
C   C102      1.0  0.83900  0.38800  0.19720  1.0000 -0.0879706538
C   C103      1.0  0.35290  0.39720  0.29380  1.0000 0.5832328477
C   C104      1.0  0.91900  0.59480  0.23920  1.0000 -0.0143033031
C   C105      1.0  0.99940  0.40250  0.27130  1.0000 0.5610747614
C   C106      1.0  0.44130  0.28630  0.17110  1.0000 -0.0286286575
C   C107      1.0  0.33720  0.87550  0.94980  1.0000 0.5924951711
C   C108      1.0  0.45260  0.83450  0.04750  1.0000 -0.0781862795
C   C109      1.0  0.76240  0.56600  0.17630  1.0000 -0.157632584
C   C110      1.0  0.69170  0.35500  0.24210  1.0000 0.0801681023
C   C111      1.0  0.02680  0.58330  0.26130  1.0000 0.5610747614
C   C112      1.0  0.34710  0.72990  0.04180  1.0000 -0.148280387
C   C113      1.0  0.60740  0.62440  0.18680  1.0000 -0.0286286575
C   C114      1.0  0.41590  0.36250  0.25230  1.0000 -0.0286286575
C   C115      1.0  0.47190  0.68580  0.13410  1.0000 -0.0286286575
C   C116      1.0  0.48430  0.78880  0.09070  1.0000 -0.157632584
C   C117      1.0  0.32960  0.25060  0.06610  1.0000 -0.157632584
C   C118      1.0  0.86350  0.55630  0.19520  1.0000 -0.0714245683
C   C119      1.0  0.89130  0.38680  0.26300  1.0000 -0.0143033031
C   C120      1.0  0.30140  0.10350  0.97740  1.0000 0.5924951711
C   C121      1.0  0.54270  0.59600  0.22410  1.0000 -0.1329231283
C   C122      1.0  0.57420  0.66940  0.14070  1.0000 0.1960582712
C   C123      1.0  0.74390  0.35360  0.30760  1.0000 -0.148280387
C   C124      1.0  0.51800  0.37240  0.26440  1.0000 -0.1329231283
C   C125      1.0  0.87340  0.64240  0.26370  1.0000 -0.0781862795
C   C126      1.0  0.77300  0.65260  0.24530  1.0000 -0.157632584
C   C127      1.0  0.54630  0.20350  0.68360  1.0000 0.1927501314
C   C128      1.0  0.74000  0.12780  0.68740  1.0000 -0.157632584
C   C129      1.0  0.84330  0.12940  0.81770  1.0000 -0.0781862795
C   C130      1.0  0.44200  0.88920  0.71700  1.0000 -0.0249514005
C   C131      1.0  0.71640  0.88630  0.70240  1.0000 0.0801681023
C   C132      1.0  0.43410  0.76470  0.58840  1.0000 0.0902635434
C   C133      1.0  0.36780  0.67190  0.49890  1.0000 -0.0549757986
C   C134      1.0  0.37620  0.91580  0.76380  1.0000 0.5832328477
C   C135      1.0  0.33130  0.35060  0.53000  1.0000 -0.0286286575
C   C136      1.0  0.40900  0.84390  0.67150  1.0000 -0.1329231283
C   C137      1.0  0.58330  0.15970  0.72960  1.0000 -0.0249514005
C   C138      1.0  0.43330  0.31840  0.63210  1.0000 -0.148280387
C   C139      1.0  0.29450  0.29320  0.52170  1.0000 -0.1030534192
C   C140      1.0  0.37970  0.17980  0.70500  1.0000 -0.1329231283
C   C141      1.0  0.39980  0.36230  0.58680  1.0000 -0.0781862795
C   C142      1.0  0.31600  0.72420  0.49860  1.0000 -0.1030534192
C   C143      1.0  0.40140  0.26110  0.62270  1.0000 0.0801681023
C   C144      1.0  0.83900  0.11200  0.69720  1.0000 -0.0879706538
C   C145      1.0  0.35290  0.10280  0.79380  1.0000 0.5832328477
C   C146      1.0  0.91900  0.90520  0.73920  1.0000 -0.0143033031
C   C147      1.0  0.99940  0.09750  0.77130  1.0000 0.5610747614
C   C148      1.0  0.44130  0.21370  0.67110  1.0000 -0.0286286575
C   C149      1.0  0.33720  0.62450  0.44980  1.0000 0.5924951711
C   C150      1.0  0.45260  0.66550  0.54750  1.0000 -0.0781862795
C   C151      1.0  0.76240  0.93400  0.67630  1.0000 -0.157632584
C   C152      1.0  0.69170  0.14500  0.74210  1.0000 0.0801681023
C   C153      1.0  0.02680  0.91670  0.76130  1.0000 0.5610747614
C   C154      1.0  0.34710  0.77010  0.54180  1.0000 -0.148280387
C   C155      1.0  0.60740  0.87560  0.68680  1.0000 -0.0286286575
C   C156      1.0  0.41590  0.13750  0.75230  1.0000 -0.0286286575
C   C157      1.0  0.47190  0.81420  0.63410  1.0000 -0.0286286575
C   C158      1.0  0.48430  0.71120  0.59070  1.0000 -0.157632584
C   C159      1.0  0.32960  0.24940  0.56610  1.0000 -0.157632584
C   C160      1.0  0.86350  0.94370  0.69520  1.0000 -0.0714245683
C   C161      1.0  0.89130  0.11320  0.76300  1.0000 -0.0143033031
C   C162      1.0  0.30140  0.39650  0.47740  1.0000 0.5924951711
C   C163      1.0  0.54270  0.90400  0.72410  1.0000 -0.1329231283
C   C164      1.0  0.57420  0.83060  0.64070  1.0000 0.1960582712
C   C165      1.0  0.74390  0.14640  0.80760  1.0000 -0.148280387
C   C166      1.0  0.51800  0.12760  0.76440  1.0000 -0.1329231283
C   C167      1.0  0.87340  0.85760  0.76370  1.0000 -0.0781862795
C   C168      1.0  0.77300  0.84740  0.74530  1.0000 -0.157632584
N   N1        1.0  0.39180  0.76490  0.35140  1.0000 -0.5136307798
N   N2        1.0  0.36160  0.19610  0.39740  1.0000 -0.528638067
N   N3        1.0  0.39180  0.73510  0.85140  1.0000 -0.5136307798
N   N4        1.0  0.36160  0.30390  0.89740  1.0000 -0.528638067
N   N5        1.0  0.60820  0.26490  0.14860  1.0000 -0.5136307798
N   N6        1.0  0.63840  0.69610  0.10260  1.0000 -0.528638067
N   N7        1.0  0.60820  0.23510  0.64860  1.0000 -0.5136307798
N   N8        1.0  0.63840  0.80390  0.60260  1.0000 -0.528638067
O   O1        1.0  0.61980  0.42541  0.54152  1.0000 -0.528638067
O   O2        1.0  0.60700  0.92637  0.15789  1.0000 -0.528638067
O   O3        1.0  0.77870  0.00739  0.12952  1.0000 -0.908996316
O   O4        1.0  0.64970  0.55630  0.52031  1.0000 -0.5222113638
O   O5        1.0  0.95950  0.90935  0.16667  1.0000 -0.5222113638
O   O6        1.0  0.58710  0.05119  0.18930  1.0000 -0.5470493457
O   O7        1.0  0.74160  0.89347  0.22360  1.0000 -0.5136307798
O   O8        1.0  0.71480  0.09938  0.24773  1.0000 -0.5222113638
O   O9        1.0  0.72860  0.36367  0.60029  1.0000 -0.5470493457
O   O10       1.0  0.92990  0.11692  0.19080  1.0000 -0.5222113638
O   O11       1.0  0.77060  0.61617  0.56850  1.0000 -0.5427250586
O   O12       1.0  0.95820  0.90660  0.28070  1.0000 -0.4713706954
O   O13       1.0  0.93000  0.04370  0.26450  1.0000 -0.4713706954
O   O14       1.0  0.61980  0.07459  0.04152  1.0000 -0.528638067
O   O15       1.0  0.60700  0.57363  0.65789  1.0000 -0.528638067
O   O16       1.0  0.77870  0.49261  0.62952  1.0000 -0.908996316
O   O17       1.0  0.64970  0.94370  0.02031  1.0000 -0.5222113638
O   O18       1.0  0.95950  0.59065  0.66667  1.0000 -0.5222113638
O   O19       1.0  0.58710  0.44881  0.68930  1.0000 -0.5470493457
O   O20       1.0  0.74160  0.60653  0.72360  1.0000 -0.5136307798
O   O21       1.0  0.71480  0.40062  0.74773  1.0000 -0.5222113638
O   O22       1.0  0.72860  0.13633  0.10029  1.0000 -0.5470493457
O   O23       1.0  0.92990  0.38308  0.69080  1.0000 -0.5222113638
O   O24       1.0  0.77060  0.88383  0.06850  1.0000 -0.5427250586
O   O25       1.0  0.95820  0.59340  0.78070  1.0000 -0.4713706954
O   O26       1.0  0.93000  0.45630  0.76450  1.0000 -0.4713706954
O   O27       1.0  0.38020  0.92541  0.95848  1.0000 -0.528638067
O   O28       1.0  0.39300  0.42637  0.34211  1.0000 -0.528638067
O   O29       1.0  0.22130  0.50739  0.37048  1.0000 -0.908996316
O   O30       1.0  0.35030  0.05630  0.97969  1.0000 -0.5222113638
O   O31       1.0  0.04050  0.40935  0.33333  1.0000 -0.5222113638
O   O32       1.0  0.41290  0.55119  0.31070  1.0000 -0.5470493457
O   O33       1.0  0.25840  0.39347  0.27640  1.0000 -0.5136307798
O   O34       1.0  0.28520  0.59938  0.25227  1.0000 -0.5222113638
O   O35       1.0  0.27140  0.86367  0.89971  1.0000 -0.5470493457
O   O36       1.0  0.07010  0.61692  0.30920  1.0000 -0.5222113638
O   O37       1.0  0.22940  0.11617  0.93150  1.0000 -0.5427250586
O   O38       1.0  0.04180  0.40660  0.21930  1.0000 -0.4713706954
O   O39       1.0  0.07000  0.54370  0.23550  1.0000 -0.4713706954
O   O40       1.0  0.38020  0.57459  0.45848  1.0000 -0.528638067
O   O41       1.0  0.39300  0.07363  0.84211  1.0000 -0.528638067
O   O42       1.0  0.22130  0.99261  0.87048  1.0000 -0.908996316
O   O43       1.0  0.35030  0.44370  0.47969  1.0000 -0.5222113638
O   O44       1.0  0.04050  0.09065  0.83333  1.0000 -0.5222113638
O   O45       1.0  0.41290  0.94881  0.81070  1.0000 -0.5470493457
O   O46       1.0  0.25840  0.10653  0.77640  1.0000 -0.5136307798
O   O47       1.0  0.28520  0.90062  0.75227  1.0000 -0.5222113638
O   O48       1.0  0.27140  0.63633  0.39971  1.0000 -0.5470493457
O   O49       1.0  0.07010  0.88308  0.80920  1.0000 -0.5222113638
O   O50       1.0  0.22940  0.38383  0.43150  1.0000 -0.5427250586
O   O51       1.0  0.04180  0.09340  0.71930  1.0000 -0.4713706954
O   O52       1.0  0.07000  0.95630  0.73550  1.0000 -0.4713706954
