# DDEC6 charges by PACMAN v1.1 (https://github.com/mtap-research/PACMAN-charge/)
data_2017[Cu][nbo]3[ASR]5
_chemical_formula_sum              "Cu24 H96 C216 N24 O120"
_cell_length_a       28.1588
_cell_length_b       18.5342
_cell_length_c       32.102
_cell_angle_alpha    90
_cell_angle_beta     112.335
_cell_angle_gamma    90

_symmetry_space_group_name_H-M    "P 1"
_symmetry_Int_Tables_number       1

loop_
  _symmetry_equiv_pos_as_xyz
  'x, y, z'

loop_
  _atom_site_type_symbol
  _atom_site_label
  _atom_site_symmetry_multiplicity
  _atom_site_fract_x
  _atom_site_fract_y
  _atom_site_fract_z
  _atom_site_occupancy
  _atom_site_charge
Cu  Cu1       1.0  0.29483  0.68918  0.53063  1.0000 0.8810080079
Cu  Cu2       1.0  0.20956  0.76258  0.52551  1.0000 0.8586637703
Cu  Cu3       1.0  0.28622  0.49379  0.30657  1.0000 0.8414816496
Cu  Cu4       1.0  0.20265  0.49737  0.23125  1.0000 0.8586637703
Cu  Cu5       1.0  0.78809  0.68447  0.99194  1.0000 0.8663478283
Cu  Cu6       1.0  0.70478  0.75549  0.98867  1.0000 0.8663478283
Cu  Cu7       1.0  0.70517  0.18918  0.96937  1.0000 0.8810080079
Cu  Cu8       1.0  0.79044  0.26258  0.97449  1.0000 0.8586637703
Cu  Cu9       1.0  0.71378  0.99379  0.19343  1.0000 0.8414816496
Cu  Cu10      1.0  0.79735  0.99737  0.26875  1.0000 0.8545733579
Cu  Cu11      1.0  0.21191  0.18447  0.50806  1.0000 0.8663478283
Cu  Cu12      1.0  0.29522  0.25549  0.51133  1.0000 0.8663478283
Cu  Cu13      1.0  0.70517  0.31082  0.46937  1.0000 0.8810080079
Cu  Cu14      1.0  0.79044  0.23742  0.47449  1.0000 0.8586637703
Cu  Cu15      1.0  0.71378  0.50621  0.69343  1.0000 0.8414816496
Cu  Cu16      1.0  0.79735  0.50263  0.76875  1.0000 0.8545733579
Cu  Cu17      1.0  0.21191  0.31553  0.00806  1.0000 0.8663478283
Cu  Cu18      1.0  0.29522  0.24451  0.01133  1.0000 0.8663478283
Cu  Cu19      1.0  0.29483  0.81082  0.03063  1.0000 0.8810080079
Cu  Cu20      1.0  0.20956  0.73742  0.02551  1.0000 0.8586637703
Cu  Cu21      1.0  0.28622  0.00621  0.80657  1.0000 0.8414816496
Cu  Cu22      1.0  0.20265  0.00263  0.73125  1.0000 0.8545733579
Cu  Cu23      1.0  0.78809  0.81553  0.49194  1.0000 0.8663478283
Cu  Cu24      1.0  0.70478  0.74451  0.48867  1.0000 0.8663478283
H   H1        1.0  0.11890  0.75120  0.38700  1.0000 0.1404811208
H   H2        1.0  0.11450  0.64970  0.27480  1.0000 0.1466263055
H   H3        1.0  0.23850  0.63210  0.38950  1.0000 0.1404811208
H   H4        1.0  0.87680  0.69740  0.13580  1.0000 0.1404811208
H   H5        1.0  0.75850  0.82750  0.12430  1.0000 0.1404811208
H   H6        1.0  0.88390  0.82230  0.23980  1.0000 0.1466263055
H   H7        1.0  0.25120  0.84020  0.66080  1.0000 0.1404811208
H   H8        1.0  0.37250  0.83590  0.77710  1.0000 0.1404811208
H   H9        1.0  0.37540  0.72000  0.67330  1.0000 0.1404811208
H   H10       1.0  0.61720  0.64690  0.73550  1.0000 0.1404811208
H   H11       1.0  0.74360  0.63880  0.85050  1.0000 0.1404811208
H   H12       1.0  0.61060  0.72870  0.84790  1.0000 0.1466263055
H   H13       1.0  0.38610  0.85780  0.50730  1.0000 0.1404811208
H   H14       1.0  0.38470  0.07520  0.49660  1.0000 0.1466263055
H   H15       1.0  0.26510  0.97160  0.50840  1.0000 0.1404811208
H   H16       1.0  0.24850  0.46850  0.53320  1.0000 0.1404811208
H   H17       1.0  0.12080  0.35990  0.51800  1.0000 0.1404811208
H   H18       1.0  0.12040  0.57500  0.52880  1.0000 0.1404811208
H   H19       1.0  0.05050  0.77000  0.31600  1.0000 0.296473482
H   H20       1.0  0.94520  0.69210  0.20100  1.0000 0.2932510481
H   H21       1.0  0.43950  0.75090  0.78470  1.0000 0.296473482
H   H22       1.0  0.54850  0.71510  0.73450  1.0000 0.2932510481
H   H23       1.0  0.05220  0.42150  0.52690  1.0000 0.2932510481
H   H24       1.0  0.45220  0.91820  0.49640  1.0000 0.296473482
H   H25       1.0  0.88110  0.25120  0.11300  1.0000 0.1404811208
H   H26       1.0  0.88550  0.14970  0.22520  1.0000 0.1466263055
H   H27       1.0  0.76150  0.13210  0.11050  1.0000 0.1404811208
H   H28       1.0  0.12320  0.19740  0.36420  1.0000 0.1404811208
H   H29       1.0  0.24150  0.32750  0.37570  1.0000 0.1404811208
H   H30       1.0  0.11610  0.32230  0.26020  1.0000 0.1466263055
H   H31       1.0  0.74880  0.34020  0.83920  1.0000 0.1404811208
H   H32       1.0  0.62750  0.33590  0.72290  1.0000 0.1404811208
H   H33       1.0  0.62460  0.22000  0.82670  1.0000 0.1466263055
H   H34       1.0  0.38280  0.14690  0.76450  1.0000 0.1404811208
H   H35       1.0  0.25640  0.13880  0.64950  1.0000 0.1404811208
H   H36       1.0  0.38940  0.22870  0.65210  1.0000 0.1466263055
H   H37       1.0  0.61390  0.35780  0.99270  1.0000 0.1404811208
H   H38       1.0  0.61530  0.57520  0.00340  1.0000 0.1466263055
H   H39       1.0  0.73490  0.47160  0.99160  1.0000 0.1404811208
H   H40       1.0  0.75150  0.96850  0.96680  1.0000 0.1404811208
H   H41       1.0  0.87920  0.85990  0.98200  1.0000 0.1404811208
H   H42       1.0  0.87960  0.07500  0.97120  1.0000 0.1466263055
H   H43       1.0  0.94950  0.27000  0.18400  1.0000 0.296473482
H   H44       1.0  0.05480  0.19210  0.29900  1.0000 0.2932510481
H   H45       1.0  0.56050  0.25090  0.71530  1.0000 0.296473482
H   H46       1.0  0.45150  0.21510  0.76550  1.0000 0.2932510481
H   H47       1.0  0.94780  0.92150  0.97310  1.0000 0.2932510481
H   H48       1.0  0.54780  0.41820  0.00360  1.0000 0.2932510481
H   H49       1.0  0.88110  0.24880  0.61300  1.0000 0.1404811208
H   H50       1.0  0.88550  0.35030  0.72520  1.0000 0.1466263055
H   H51       1.0  0.76150  0.36790  0.61050  1.0000 0.1404811208
H   H52       1.0  0.12320  0.30260  0.86420  1.0000 0.1404811208
H   H53       1.0  0.24150  0.17250  0.87570  1.0000 0.1404811208
H   H54       1.0  0.11610  0.17770  0.76020  1.0000 0.1466263055
H   H55       1.0  0.74880  0.15980  0.33920  1.0000 0.1404811208
H   H56       1.0  0.62750  0.16410  0.22290  1.0000 0.1404811208
H   H57       1.0  0.62460  0.28000  0.32670  1.0000 0.1404811208
H   H58       1.0  0.38280  0.35310  0.26450  1.0000 0.1404811208
H   H59       1.0  0.25640  0.36120  0.14950  1.0000 0.1404811208
H   H60       1.0  0.38940  0.27130  0.15210  1.0000 0.1466263055
H   H61       1.0  0.61390  0.14220  0.49270  1.0000 0.1404811208
H   H62       1.0  0.61530  0.92480  0.50340  1.0000 0.1466263055
H   H63       1.0  0.73490  0.02840  0.49160  1.0000 0.1404811208
H   H64       1.0  0.75150  0.53150  0.46680  1.0000 0.1404811208
H   H65       1.0  0.87920  0.64010  0.48200  1.0000 0.1404811208
H   H66       1.0  0.87960  0.42500  0.47120  1.0000 0.1466263055
H   H67       1.0  0.94950  0.23000  0.68400  1.0000 0.296473482
H   H68       1.0  0.05480  0.30790  0.79900  1.0000 0.2932510481
H   H69       1.0  0.56050  0.24910  0.21530  1.0000 0.296473482
H   H70       1.0  0.45150  0.28490  0.26550  1.0000 0.2932510481
H   H71       1.0  0.94780  0.57850  0.47310  1.0000 0.2932510481
H   H72       1.0  0.54780  0.08180  0.50360  1.0000 0.2932510481
H   H73       1.0  0.11890  0.74880  0.88700  1.0000 0.1404811208
H   H74       1.0  0.11450  0.85030  0.77480  1.0000 0.1466263055
H   H75       1.0  0.23850  0.86790  0.88950  1.0000 0.1404811208
H   H76       1.0  0.87680  0.80260  0.63580  1.0000 0.1404811208
H   H77       1.0  0.75850  0.67250  0.62430  1.0000 0.1404811208
H   H78       1.0  0.88390  0.67770  0.73980  1.0000 0.1466263055
H   H79       1.0  0.25120  0.65980  0.16080  1.0000 0.1404811208
H   H80       1.0  0.37250  0.66410  0.27710  1.0000 0.1404811208
H   H81       1.0  0.37540  0.78000  0.17330  1.0000 0.1404811208
H   H82       1.0  0.61720  0.85310  0.23550  1.0000 0.1404811208
H   H83       1.0  0.74360  0.86120  0.35050  1.0000 0.1404811208
H   H84       1.0  0.61060  0.77130  0.34790  1.0000 0.1466263055
H   H85       1.0  0.38610  0.64220  0.00730  1.0000 0.1404811208
H   H86       1.0  0.38470  0.42480  0.99660  1.0000 0.1404811208
H   H87       1.0  0.26510  0.52840  0.00840  1.0000 0.1404811208
H   H88       1.0  0.24850  0.03150  0.03320  1.0000 0.1404811208
H   H89       1.0  0.12080  0.14010  0.01800  1.0000 0.1404811208
H   H90       1.0  0.12040  0.92500  0.02880  1.0000 0.1466263055
H   H91       1.0  0.05050  0.73000  0.81600  1.0000 0.2932510481
H   H92       1.0  0.94520  0.80790  0.70100  1.0000 0.2932510481
H   H93       1.0  0.43950  0.74910  0.28470  1.0000 0.296473482
H   H94       1.0  0.54850  0.78490  0.23450  1.0000 0.2932510481
H   H95       1.0  0.05220  0.07850  0.02690  1.0000 0.2932510481
H   H96       1.0  0.45220  0.58180  0.99640  1.0000 0.2932510481
C   C1        1.0  0.20744  0.70910  0.44550  1.0000 0.5809338147
C   C2        1.0  0.18260  0.69250  0.39564  1.0000 -0.0017904579
C   C3        1.0  0.13380  0.72080  0.37230  1.0000 -0.2093633475
C   C4        1.0  0.10680  0.70370  0.32650  1.0000 0.2191884623
C   C5        1.0  0.13110  0.66000  0.30528  1.0000 -0.1724711173
C   C6        1.0  0.18037  0.63120  0.32920  1.0000 -0.0017904579
C   C7        1.0  0.20543  0.64940  0.37384  1.0000 -0.1089916642
C   C8        1.0  0.20413  0.57910  0.30607  1.0000 0.5809338147
C   C9        1.0  0.02150  0.70920  0.26940  1.0000 0.3826885757
C   C10       1.0  0.97200  0.74840  0.25370  1.0000 0.3898485315
C   C11       1.0  0.88760  0.75610  0.19160  1.0000 0.2096156118
C   C12       1.0  0.86190  0.73230  0.14780  1.0000 -0.1908558818
C   C13       1.0  0.81360  0.76060  0.12140  1.0000 -0.0336981049
C   C14       1.0  0.79120  0.81010  0.14082  1.0000 -0.1089916642
C   C15       1.0  0.81781  0.83450  0.18579  1.0000 -0.0017904579
C   C16       1.0  0.86610  0.80680  0.21050  1.0000 -0.1618501103
C   C17       1.0  0.79339  0.89390  0.20309  1.0000 0.574561709
C   C18       1.0  0.78770  0.74060  0.07404  1.0000 0.5809338147
C   C19       1.0  0.28419  0.75550  0.60980  1.0000 0.5809338147
C   C20       1.0  0.30923  0.77640  0.65808  1.0000 -0.0085162755
C   C21       1.0  0.28418  0.82420  0.67796  1.0000 -0.1089916642
C   C22       1.0  0.30706  0.84690  0.72111  1.0000 -0.0085162755
C   C23       1.0  0.35680  0.82140  0.74726  1.0000 -0.2001013918
C   C24       1.0  0.38220  0.77600  0.72950  1.0000 0.2096156118
C   C25       1.0  0.35850  0.75220  0.68510  1.0000 -0.1618501103
C   C26       1.0  0.28400  0.90640  0.73940  1.0000 0.5809338147
C   C27       1.0  0.46800  0.73530  0.74260  1.0000 0.4101155355
C   C28       1.0  0.51930  0.71920  0.77890  1.0000 0.4101155355
C   C29       1.0  0.60830  0.68790  0.78960  1.0000 0.1895073032
C   C30       1.0  0.63330  0.65470  0.76630  1.0000 -0.2093633475
C   C31       1.0  0.68520  0.63180  0.79068  1.0000 0.0012734597
C   C32       1.0  0.70916  0.65030  0.83504  1.0000 -0.1189200493
C   C33       1.0  0.68190  0.68660  0.85722  1.0000 0.0093646888
C   C34       1.0  0.62950  0.70540  0.83360  1.0000 -0.1724711173
C   C35       1.0  0.70782  0.70010  0.90724  1.0000 0.574561709
C   C36       1.0  0.71244  0.58750  0.76670  1.0000 0.574561709
C   C37       1.0  0.29707  0.83580  0.51685  1.0000 0.5809338147
C   C38       1.0  0.32145  0.90470  0.50904  1.0000 -0.0085162755
C   C39       1.0  0.37000  0.90190  0.50620  1.0000 -0.2001013918
C   C40       1.0  0.39350  0.96480  0.50180  1.0000 0.2191884623
C   C41       1.0  0.36850  0.03270  0.49940  1.0000 -0.1499252567
C   C42       1.0  0.32076  0.03520  0.50112  1.0000 -0.0377869463
C   C43       1.0  0.29725  0.97010  0.50652  1.0000 -0.1021754593
C   C44       1.0  0.29468  0.10380  0.50061  1.0000 0.5809338147
C   C45       1.0  0.47420  0.01130  0.50040  1.0000 0.4186680702
C   C46       1.0  0.21692  0.60550  0.53564  1.0000 0.5809338147
C   C47       1.0  0.19080  0.53420  0.53350  1.0000 0.0012734597
C   C48       1.0  0.21472  0.46890  0.53134  1.0000 -0.1189200493
C   C49       1.0  0.18780  0.40500  0.52640  1.0000 -0.0017904579
C   C50       1.0  0.13840  0.40340  0.52220  1.0000 -0.1790984
C   C51       1.0  0.11440  0.46760  0.52430  1.0000 0.1996500281
C   C52       1.0  0.13800  0.53260  0.52880  1.0000 -0.1724711173
C   C53       1.0  0.21350  0.33570  0.52120  1.0000 0.5809338147
C   C54       1.0  0.02570  0.51050  0.50260  1.0000 0.348922768
C   C55       1.0  0.79256  0.20910  0.05450  1.0000 0.5809338147
C   C56       1.0  0.81740  0.19250  0.10436  1.0000 0.0012734597
C   C57       1.0  0.86620  0.22080  0.12770  1.0000 -0.2093633475
C   C58       1.0  0.89320  0.20370  0.17350  1.0000 0.2191884623
C   C59       1.0  0.86890  0.16000  0.19472  1.0000 -0.1724711173
C   C60       1.0  0.81963  0.13120  0.17080  1.0000 -0.0017904579
C   C61       1.0  0.79457  0.14940  0.12616  1.0000 -0.1089916642
C   C62       1.0  0.79587  0.07910  0.19393  1.0000 0.5809338147
C   C63       1.0  0.97850  0.20920  0.23060  1.0000 0.3826885757
C   C64       1.0  0.02800  0.24840  0.24630  1.0000 0.3898485315
C   C65       1.0  0.11240  0.25610  0.30840  1.0000 0.2096156118
C   C66       1.0  0.13810  0.23230  0.35220  1.0000 -0.1908558818
C   C67       1.0  0.18640  0.26060  0.37860  1.0000 -0.0336981049
C   C68       1.0  0.20880  0.31010  0.35918  1.0000 -0.1089916642
C   C69       1.0  0.18219  0.33450  0.31421  1.0000 -0.0017904579
C   C70       1.0  0.13390  0.30680  0.28950  1.0000 -0.1618501103
C   C71       1.0  0.20661  0.39390  0.29691  1.0000 0.5809338147
C   C72       1.0  0.21230  0.24060  0.42596  1.0000 0.5809338147
C   C73       1.0  0.71581  0.25550  0.89020  1.0000 0.5809338147
C   C74       1.0  0.69077  0.27640  0.84192  1.0000 -0.0085162755
C   C75       1.0  0.71582  0.32420  0.82204  1.0000 -0.1089916642
C   C76       1.0  0.69294  0.34690  0.77889  1.0000 -0.0085162755
C   C77       1.0  0.64320  0.32140  0.75274  1.0000 -0.2001013918
C   C78       1.0  0.61780  0.27600  0.77050  1.0000 0.2096156118
C   C79       1.0  0.64150  0.25220  0.81490  1.0000 -0.1618501103
C   C80       1.0  0.71600  0.40640  0.76060  1.0000 0.5809338147
C   C81       1.0  0.53200  0.23530  0.75740  1.0000 0.4101155355
C   C82       1.0  0.48070  0.21920  0.72110  1.0000 0.4101155355
C   C83       1.0  0.39170  0.18790  0.71040  1.0000 0.1895073032
C   C84       1.0  0.36670  0.15470  0.73370  1.0000 -0.2093633475
C   C85       1.0  0.31480  0.13180  0.70932  1.0000 -0.0017904579
C   C86       1.0  0.29084  0.15030  0.66496  1.0000 -0.1189200493
C   C87       1.0  0.31810  0.18660  0.64278  1.0000 0.0093646888
C   C88       1.0  0.37050  0.20540  0.66640  1.0000 -0.1724711173
C   C89       1.0  0.29218  0.20010  0.59276  1.0000 0.574561709
C   C90       1.0  0.28756  0.08750  0.73330  1.0000 0.5809338147
C   C91       1.0  0.70293  0.33580  0.98315  1.0000 0.5809338147
C   C92       1.0  0.67855  0.40470  0.99096  1.0000 -0.0017904579
C   C93       1.0  0.63000  0.40190  0.99380  1.0000 -0.2001013918
C   C94       1.0  0.60650  0.46480  0.99820  1.0000 0.2191884623
C   C95       1.0  0.63150  0.53270  0.00060  1.0000 -0.1499252567
C   C96       1.0  0.67924  0.53520  0.99888  1.0000 -0.0377869463
C   C97       1.0  0.70275  0.47010  0.99348  1.0000 -0.1021754593
C   C98       1.0  0.70532  0.60380  0.99939  1.0000 0.5809338147
C   C99       1.0  0.52580  0.51130  0.99960  1.0000 0.4186680702
C   C100      1.0  0.78308  0.10550  0.96436  1.0000 0.5809338147
C   C101      1.0  0.80920  0.03420  0.96650  1.0000 0.0012734597
C   C102      1.0  0.78528  0.96890  0.96866  1.0000 -0.1189200493
C   C103      1.0  0.81220  0.90500  0.97360  1.0000 -0.0085162755
C   C104      1.0  0.86160  0.90340  0.97780  1.0000 -0.1790984
C   C105      1.0  0.88560  0.96760  0.97570  1.0000 0.1996500281
C   C106      1.0  0.86200  0.03260  0.97120  1.0000 -0.1724711173
C   C107      1.0  0.78650  0.83570  0.97880  1.0000 0.5863168327
C   C108      1.0  0.97430  0.01050  0.99740  1.0000 0.348922768
C   C109      1.0  0.79256  0.29090  0.55450  1.0000 0.5809338147
C   C110      1.0  0.81740  0.30750  0.60436  1.0000 -0.0017904579
C   C111      1.0  0.86620  0.27920  0.62770  1.0000 -0.2001013918
C   C112      1.0  0.89320  0.29630  0.67350  1.0000 0.2191884623
C   C113      1.0  0.86890  0.34000  0.69472  1.0000 -0.1724711173
C   C114      1.0  0.81963  0.36880  0.67080  1.0000 -0.0017904579
C   C115      1.0  0.79457  0.35060  0.62616  1.0000 -0.1089916642
C   C116      1.0  0.79587  0.42090  0.69393  1.0000 0.5809338147
C   C117      1.0  0.97850  0.29080  0.73060  1.0000 0.3826885757
C   C118      1.0  0.02800  0.25160  0.74630  1.0000 0.3898485315
C   C119      1.0  0.11240  0.24390  0.80840  1.0000 0.2096156118
C   C120      1.0  0.13810  0.26770  0.85220  1.0000 -0.1908558818
C   C121      1.0  0.18640  0.23940  0.87860  1.0000 -0.0336981049
C   C122      1.0  0.20880  0.18990  0.85918  1.0000 -0.1021754593
C   C123      1.0  0.18219  0.16550  0.81421  1.0000 -0.0017904579
C   C124      1.0  0.13390  0.19320  0.78950  1.0000 -0.1618501103
C   C125      1.0  0.20661  0.10610  0.79691  1.0000 0.574561709
C   C126      1.0  0.21230  0.25940  0.92596  1.0000 0.5809338147
C   C127      1.0  0.71581  0.24450  0.39020  1.0000 0.5809338147
C   C128      1.0  0.69077  0.22360  0.34192  1.0000 -0.0085162755
C   C129      1.0  0.71582  0.17580  0.32204  1.0000 -0.1089916642
C   C130      1.0  0.69294  0.15310  0.27889  1.0000 -0.0085162755
C   C131      1.0  0.64320  0.17860  0.25274  1.0000 -0.2001013918
C   C132      1.0  0.61780  0.22400  0.27050  1.0000 0.1996500281
C   C133      1.0  0.64150  0.24780  0.31490  1.0000 -0.1618501103
C   C134      1.0  0.71600  0.09360  0.26060  1.0000 0.5809338147
C   C135      1.0  0.53200  0.26470  0.25740  1.0000 0.4101155355
C   C136      1.0  0.48070  0.28080  0.22110  1.0000 0.4101155355
C   C137      1.0  0.39170  0.31210  0.21040  1.0000 0.1895073032
C   C138      1.0  0.36670  0.34530  0.23370  1.0000 -0.2093633475
C   C139      1.0  0.31480  0.36820  0.20932  1.0000 0.0012734597
C   C140      1.0  0.29084  0.34970  0.16496  1.0000 -0.1189200493
C   C141      1.0  0.31810  0.31340  0.14278  1.0000 0.0093646888
C   C142      1.0  0.37050  0.29460  0.16640  1.0000 -0.1724711173
C   C143      1.0  0.29218  0.29990  0.09276  1.0000 0.574561709
C   C144      1.0  0.28756  0.41250  0.23330  1.0000 0.574561709
C   C145      1.0  0.70293  0.16420  0.48315  1.0000 0.5809338147
C   C146      1.0  0.67855  0.09530  0.49096  1.0000 -0.0085162755
C   C147      1.0  0.63000  0.09810  0.49380  1.0000 -0.2001013918
C   C148      1.0  0.60650  0.03520  0.49820  1.0000 0.2191884623
C   C149      1.0  0.63150  0.96730  0.50060  1.0000 -0.1499252567
C   C150      1.0  0.67924  0.96480  0.49888  1.0000 -0.0377869463
C   C151      1.0  0.70275  0.02990  0.49348  1.0000 -0.1021754593
C   C152      1.0  0.70532  0.89620  0.49939  1.0000 0.5809338147
C   C153      1.0  0.52580  0.98870  0.49960  1.0000 0.4186680702
C   C154      1.0  0.78308  0.39450  0.46436  1.0000 0.5809338147
C   C155      1.0  0.80920  0.46580  0.46650  1.0000 -0.0017904579
C   C156      1.0  0.78528  0.53110  0.46866  1.0000 -0.1189200493
C   C157      1.0  0.81220  0.59500  0.47360  1.0000 -0.0085162755
C   C158      1.0  0.86160  0.59660  0.47780  1.0000 -0.1790984
C   C159      1.0  0.88560  0.53240  0.47570  1.0000 0.1996500281
C   C160      1.0  0.86200  0.46740  0.47120  1.0000 -0.1724711173
C   C161      1.0  0.78650  0.66430  0.47880  1.0000 0.5863168327
C   C162      1.0  0.97430  0.48950  0.49740  1.0000 0.3561030117
C   C163      1.0  0.20744  0.79090  0.94550  1.0000 0.5809338147
C   C164      1.0  0.18260  0.80750  0.89564  1.0000 0.0012734597
C   C165      1.0  0.13380  0.77920  0.87230  1.0000 -0.2093633475
C   C166      1.0  0.10680  0.79630  0.82650  1.0000 0.2191884623
C   C167      1.0  0.13110  0.84000  0.80528  1.0000 -0.1724711173
C   C168      1.0  0.18037  0.86880  0.82920  1.0000 -0.0017904579
C   C169      1.0  0.20543  0.85060  0.87384  1.0000 -0.1089916642
C   C170      1.0  0.20413  0.92090  0.80607  1.0000 0.5809338147
C   C171      1.0  0.02150  0.79080  0.76940  1.0000 0.3826885757
C   C172      1.0  0.97200  0.75160  0.75370  1.0000 0.3898485315
C   C173      1.0  0.88760  0.74390  0.69160  1.0000 0.2096156118
C   C174      1.0  0.86190  0.76770  0.64780  1.0000 -0.1908558818
C   C175      1.0  0.81360  0.73940  0.62140  1.0000 -0.0336981049
C   C176      1.0  0.79120  0.68990  0.64082  1.0000 -0.1021754593
C   C177      1.0  0.81781  0.66550  0.68579  1.0000 -0.0017904579
C   C178      1.0  0.86610  0.69320  0.71050  1.0000 -0.1618501103
C   C179      1.0  0.79339  0.60610  0.70309  1.0000 0.5809338147
C   C180      1.0  0.78770  0.75940  0.57404  1.0000 0.5809338147
C   C181      1.0  0.28419  0.74450  0.10980  1.0000 0.5809338147
C   C182      1.0  0.30923  0.72360  0.15808  1.0000 -0.0085162755
C   C183      1.0  0.28418  0.67580  0.17796  1.0000 -0.1089916642
C   C184      1.0  0.30706  0.65310  0.22111  1.0000 -0.0085162755
C   C185      1.0  0.35680  0.67860  0.24726  1.0000 -0.2001013918
C   C186      1.0  0.38220  0.72400  0.22950  1.0000 0.2096156118
C   C187      1.0  0.35850  0.74780  0.18510  1.0000 -0.1618501103
C   C188      1.0  0.28400  0.59360  0.23940  1.0000 0.5809338147
C   C189      1.0  0.46800  0.76470  0.24260  1.0000 0.4101155355
C   C190      1.0  0.51930  0.78080  0.27890  1.0000 0.4101155355
C   C191      1.0  0.60830  0.81210  0.28960  1.0000 0.1895073032
C   C192      1.0  0.63330  0.84530  0.26630  1.0000 -0.2093633475
C   C193      1.0  0.68520  0.86820  0.29068  1.0000 0.0012734597
C   C194      1.0  0.70916  0.84970  0.33504  1.0000 -0.1253662023
C   C195      1.0  0.68190  0.81340  0.35722  1.0000 0.0093646888
C   C196      1.0  0.62950  0.79460  0.33360  1.0000 -0.1724711173
C   C197      1.0  0.70782  0.79990  0.40724  1.0000 0.574561709
C   C198      1.0  0.71244  0.91250  0.26670  1.0000 0.5809338147
C   C199      1.0  0.29707  0.66420  0.01685  1.0000 0.5809338147
C   C200      1.0  0.32145  0.59530  0.00904  1.0000 -0.0085162755
C   C201      1.0  0.37000  0.59810  0.00620  1.0000 -0.2001013918
C   C202      1.0  0.39350  0.53520  0.00180  1.0000 0.2191884623
C   C203      1.0  0.36850  0.46730  0.99940  1.0000 -0.1499252567
C   C204      1.0  0.32076  0.46480  0.00112  1.0000 -0.0377869463
C   C205      1.0  0.29725  0.52990  0.00652  1.0000 -0.1021754593
C   C206      1.0  0.29468  0.39620  0.00061  1.0000 0.5809338147
C   C207      1.0  0.47420  0.48870  0.00040  1.0000 0.4101155355
C   C208      1.0  0.21692  0.89450  0.03564  1.0000 0.5809338147
C   C209      1.0  0.19080  0.96580  0.03350  1.0000 0.0012734597
C   C210      1.0  0.21472  0.03110  0.03134  1.0000 -0.1189200493
C   C211      1.0  0.18780  0.09500  0.02640  1.0000 -0.0085162755
C   C212      1.0  0.13840  0.09660  0.02220  1.0000 -0.1790984
C   C213      1.0  0.11440  0.03240  0.02430  1.0000 0.1996500281
C   C214      1.0  0.13800  0.96740  0.02880  1.0000 -0.1724711173
C   C215      1.0  0.21350  0.16430  0.02120  1.0000 0.5863168327
C   C216      1.0  0.02570  0.98950  0.00260  1.0000 0.348922768
N   N1        1.0  0.05730  0.73180  0.30421  1.0000 -0.3104970766
N   N2        1.0  0.93670  0.72740  0.21409  1.0000 -0.3104970766
N   N3        1.0  0.43209  0.75310  0.75612  1.0000 -0.3198858093
N   N4        1.0  0.55640  0.70880  0.76290  1.0000 -0.3198858093
N   N5        1.0  0.06130  0.46160  0.51870  1.0000 -0.3016316729
N   N6        1.0  0.44221  0.96110  0.49920  1.0000 -0.3198858093
N   N7        1.0  0.94270  0.23180  0.19579  1.0000 -0.3198858093
N   N8        1.0  0.06330  0.22740  0.28591  1.0000 -0.3104970766
N   N9        1.0  0.56791  0.25310  0.74388  1.0000 -0.3198858093
N   N10       1.0  0.44360  0.20880  0.73710  1.0000 -0.3198858093
N   N11       1.0  0.93870  0.96160  0.98130  1.0000 -0.3016316729
N   N12       1.0  0.55779  0.46110  0.00080  1.0000 -0.3198858093
N   N13       1.0  0.94270  0.26820  0.69579  1.0000 -0.3198858093
N   N14       1.0  0.06330  0.27260  0.78591  1.0000 -0.3104970766
N   N15       1.0  0.56791  0.24690  0.24388  1.0000 -0.3198858093
N   N16       1.0  0.44360  0.29120  0.23710  1.0000 -0.3198858093
N   N17       1.0  0.93870  0.53840  0.48130  1.0000 -0.3016316729
N   N18       1.0  0.55779  0.03890  0.50080  1.0000 -0.3198858093
N   N19       1.0  0.05730  0.76820  0.80421  1.0000 -0.3104970766
N   N20       1.0  0.93670  0.77260  0.71409  1.0000 -0.3104970766
N   N21       1.0  0.43209  0.74690  0.25612  1.0000 -0.3198858093
N   N22       1.0  0.55640  0.79120  0.26290  1.0000 -0.3198858093
N   N23       1.0  0.06130  0.03840  0.01870  1.0000 -0.3016316729
N   N24       1.0  0.44221  0.53890  0.99920  1.0000 -0.3198858093
O   O1        1.0  0.18590  0.74968  0.46196  1.0000 -0.4807522716
O   O2        1.0  0.25220  0.67970  0.46446  1.0000 -0.5496485683
O   O3        1.0  0.17871  0.56440  0.26559  1.0000 -0.5195464703
O   O4        1.0  0.24766  0.56080  0.32821  1.0000 -0.4908687584
O   O5        1.0  0.81221  0.69970  0.05653  1.0000 -0.5390924903
O   O6        1.0  0.74427  0.76891  0.05253  1.0000 -0.5195464703
O   O7        1.0  0.75069  0.91263  0.17845  1.0000 -0.4908687584
O   O8        1.0  0.82011  0.91740  0.24178  1.0000 -0.5195464703
O   O9        1.0  0.02650  0.65430  0.24670  1.0000 -0.512526397
O   O10       1.0  0.96630  0.79940  0.27650  1.0000 -0.4807522716
O   O11       1.0  0.31251  0.72008  0.59402  1.0000 -0.5496485683
O   O12       1.0  0.23992  0.77380  0.59021  1.0000 -0.4807522716
O   O13       1.0  0.23851  0.92374  0.71498  1.0000 -0.5195464703
O   O14       1.0  0.30809  0.92620  0.77870  1.0000 -0.512526397
O   O15       1.0  0.68659  0.57320  0.72594  1.0000 -0.5295182529
O   O16       1.0  0.75766  0.57035  0.79043  1.0000 -0.5195464703
O   O17       1.0  0.75183  0.68009  0.92594  1.0000 -0.4807522716
O   O18       1.0  0.67880  0.73110  0.92487  1.0000 -0.5390924903
O   O19       1.0  0.46430  0.73890  0.70300  1.0000 -0.4807522716
O   O20       1.0  0.52520  0.72150  0.81680  1.0000 -0.4338177057
O   O21       1.0  0.32107  0.77840  0.51930  1.0000 -0.5195464703
O   O22       1.0  0.25531  0.84295  0.52033  1.0000 -0.5195464703
O   O23       1.0  0.25155  0.10055  0.50304  1.0000 -0.512526397
O   O24       1.0  0.31869  0.16073  0.49943  1.0000 -0.5195464703
O   O25       1.0  0.46450  0.07660  0.49870  1.0000 -0.4807522716
O   O26       1.0  0.26278  0.60287  0.53995  1.0000 -0.512526397
O   O27       1.0  0.18920  0.66055  0.53224  1.0000 -0.5390924903
O   O28       1.0  0.25980  0.33982  0.52414  1.0000 -0.5195464703
O   O29       1.0  0.18732  0.27865  0.51444  1.0000 -0.5195464703
O   O30       1.0  0.03358  0.57000  0.49020  1.0000 -0.4397487494
O   O31       1.0  0.81410  0.24968  0.03804  1.0000 -0.4807522716
O   O32       1.0  0.74780  0.17970  0.03554  1.0000 -0.5496485683
O   O33       1.0  0.82129  0.06440  0.23441  1.0000 -0.5195464703
O   O34       1.0  0.75234  0.06080  0.17179  1.0000 -0.4807522716
O   O35       1.0  0.18779  0.19970  0.44347  1.0000 -0.5390924903
O   O36       1.0  0.25573  0.26891  0.44747  1.0000 -0.5195464703
O   O37       1.0  0.24931  0.41263  0.32155  1.0000 -0.4908687584
O   O38       1.0  0.17989  0.41740  0.25822  1.0000 -0.5195464703
O   O39       1.0  0.97350  0.15430  0.25330  1.0000 -0.5195464703
O   O40       1.0  0.03370  0.29940  0.22350  1.0000 -0.4713877849
O   O41       1.0  0.68749  0.22008  0.90598  1.0000 -0.5496485683
O   O42       1.0  0.76008  0.27380  0.90979  1.0000 -0.4807522716
O   O43       1.0  0.76149  0.42374  0.78502  1.0000 -0.5195464703
O   O44       1.0  0.69191  0.42620  0.72130  1.0000 -0.512526397
O   O45       1.0  0.31341  0.07320  0.77406  1.0000 -0.5295182529
O   O46       1.0  0.24234  0.07035  0.70957  1.0000 -0.5195464703
O   O47       1.0  0.24817  0.18009  0.57406  1.0000 -0.4807522716
O   O48       1.0  0.32120  0.23110  0.57513  1.0000 -0.5390924903
O   O49       1.0  0.53570  0.23890  0.79700  1.0000 -0.4713877849
O   O50       1.0  0.47480  0.22150  0.68320  1.0000 -0.4338177057
O   O51       1.0  0.67893  0.27840  0.98070  1.0000 -0.5195464703
O   O52       1.0  0.74469  0.34295  0.97967  1.0000 -0.5195464703
O   O53       1.0  0.74845  0.60055  0.99696  1.0000 -0.512526397
O   O54       1.0  0.68131  0.66073  0.00057  1.0000 -0.5195464703
O   O55       1.0  0.53550  0.57660  0.00130  1.0000 -0.4807522716
O   O56       1.0  0.73722  0.10287  0.96005  1.0000 -0.512526397
O   O57       1.0  0.81080  0.16055  0.96776  1.0000 -0.5496485683
O   O58       1.0  0.74020  0.83982  0.97586  1.0000 -0.5195464703
O   O59       1.0  0.81268  0.77865  0.98556  1.0000 -0.5195464703
O   O60       1.0  0.96642  0.07000  0.00980  1.0000 -0.4397487494
O   O61       1.0  0.81410  0.25032  0.53804  1.0000 -0.4807522716
O   O62       1.0  0.74780  0.32030  0.53554  1.0000 -0.5496485683
O   O63       1.0  0.82129  0.43560  0.73441  1.0000 -0.5195464703
O   O64       1.0  0.75234  0.43920  0.67179  1.0000 -0.4807522716
O   O65       1.0  0.18779  0.30030  0.94347  1.0000 -0.5390924903
O   O66       1.0  0.25573  0.23109  0.94747  1.0000 -0.5195464703
O   O67       1.0  0.24931  0.08737  0.82155  1.0000 -0.4908687584
O   O68       1.0  0.17989  0.08260  0.75822  1.0000 -0.5195464703
O   O69       1.0  0.97350  0.34570  0.75330  1.0000 -0.5195464703
O   O70       1.0  0.03370  0.20060  0.72350  1.0000 -0.4807522716
O   O71       1.0  0.68749  0.27992  0.40598  1.0000 -0.5496485683
O   O72       1.0  0.76008  0.22620  0.40979  1.0000 -0.4807522716
O   O73       1.0  0.76149  0.07626  0.28502  1.0000 -0.5195464703
O   O74       1.0  0.69191  0.07380  0.22130  1.0000 -0.512526397
O   O75       1.0  0.31341  0.42680  0.27406  1.0000 -0.5295182529
O   O76       1.0  0.24234  0.42965  0.20957  1.0000 -0.5195464703
O   O77       1.0  0.24817  0.31991  0.07406  1.0000 -0.4807522716
O   O78       1.0  0.32120  0.26890  0.07513  1.0000 -0.5390924903
O   O79       1.0  0.53570  0.26110  0.29700  1.0000 -0.4713877849
O   O80       1.0  0.47480  0.27850  0.18320  1.0000 -0.4397487494
O   O81       1.0  0.67893  0.22160  0.48070  1.0000 -0.5195464703
O   O82       1.0  0.74469  0.15705  0.47967  1.0000 -0.5195464703
O   O83       1.0  0.74845  0.89945  0.49696  1.0000 -0.512526397
O   O84       1.0  0.68131  0.83927  0.50057  1.0000 -0.5195464703
O   O85       1.0  0.53550  0.92340  0.50130  1.0000 -0.4908687584
O   O86       1.0  0.73722  0.39713  0.46005  1.0000 -0.512526397
O   O87       1.0  0.81080  0.33945  0.46776  1.0000 -0.5390924903
O   O88       1.0  0.74020  0.66018  0.47586  1.0000 -0.5195464703
O   O89       1.0  0.81268  0.72135  0.48556  1.0000 -0.5195464703
O   O90       1.0  0.96642  0.43000  0.50980  1.0000 -0.4535743507
O   O91       1.0  0.18590  0.75032  0.96196  1.0000 -0.4807522716
O   O92       1.0  0.25220  0.82030  0.96446  1.0000 -0.5496485683
O   O93       1.0  0.17871  0.93560  0.76559  1.0000 -0.5195464703
O   O94       1.0  0.24766  0.93920  0.82821  1.0000 -0.4807522716
O   O95       1.0  0.81221  0.80030  0.55653  1.0000 -0.5390924903
O   O96       1.0  0.74427  0.73109  0.55253  1.0000 -0.5195464703
O   O97       1.0  0.75069  0.58737  0.67845  1.0000 -0.4908687584
O   O98       1.0  0.82011  0.58260  0.74178  1.0000 -0.5195464703
O   O99       1.0  0.02650  0.84570  0.74670  1.0000 -0.5195464703
O   O100      1.0  0.96630  0.70060  0.77650  1.0000 -0.4807522716
O   O101      1.0  0.31251  0.77992  0.09402  1.0000 -0.5496485683
O   O102      1.0  0.23992  0.72620  0.09021  1.0000 -0.4807522716
O   O103      1.0  0.23851  0.57626  0.21498  1.0000 -0.5195464703
O   O104      1.0  0.30809  0.57380  0.27870  1.0000 -0.512526397
O   O105      1.0  0.68659  0.92680  0.22594  1.0000 -0.5295182529
O   O106      1.0  0.75766  0.92965  0.29043  1.0000 -0.5195464703
O   O107      1.0  0.75183  0.81991  0.42594  1.0000 -0.4807522716
O   O108      1.0  0.67880  0.76890  0.42487  1.0000 -0.5390924903
O   O109      1.0  0.46430  0.76110  0.20300  1.0000 -0.4807522716
O   O110      1.0  0.52520  0.77850  0.31680  1.0000 -0.4397487494
O   O111      1.0  0.32107  0.72160  0.01930  1.0000 -0.5195464703
O   O112      1.0  0.25531  0.65705  0.02033  1.0000 -0.512526397
O   O113      1.0  0.25155  0.39945  0.00304  1.0000 -0.512526397
O   O114      1.0  0.31869  0.33927  0.99943  1.0000 -0.5195464703
O   O115      1.0  0.46450  0.42340  0.99870  1.0000 -0.4807522716
O   O116      1.0  0.26278  0.89713  0.03995  1.0000 -0.512526397
O   O117      1.0  0.18920  0.83945  0.03224  1.0000 -0.5496485683
O   O118      1.0  0.25980  0.16018  0.02414  1.0000 -0.5195464703
O   O119      1.0  0.18732  0.22135  0.01444  1.0000 -0.5195464703
O   O120      1.0  0.03358  0.93000  0.99020  1.0000 -0.4397487494
