# DDEC6 charges by PACMAN v1.1 (https://github.com/mtap-research/PACMAN-charge/)
data_2017[Zn][dia]3[ASR]13
_chemical_formula_sum              "Zn4 H56 C72 N8 O16"
_cell_length_a       12.471
_cell_length_b       13.306
_cell_length_c       15.711
_cell_angle_alpha    90
_cell_angle_beta     90
_cell_angle_gamma    90

_symmetry_space_group_name_H-M    "P 1"
_symmetry_Int_Tables_number       1

loop_
  _symmetry_equiv_pos_as_xyz
  'x, y, z'

loop_
  _atom_site_type_symbol
  _atom_site_label
  _atom_site_symmetry_multiplicity
  _atom_site_fract_x
  _atom_site_fract_y
  _atom_site_fract_z
  _atom_site_occupancy
  _atom_site_charge
Zn  Zn1       1.0  0.64991  0.75000  0.25000  1.0000 0.7417160851
Zn  Zn2       1.0  0.35009  0.25000  0.75000  1.0000 0.7417160851
Zn  Zn3       1.0  0.85009  0.25000  0.25000  1.0000 0.7417160851
Zn  Zn4       1.0  0.14991  0.75000  0.75000  1.0000 0.7417160851
H   H1        1.0  0.43260  0.64460  0.02720  1.0000 0.1314813291
H   H2        1.0  0.43260  0.85540  0.47280  1.0000 0.1314813291
H   H3        1.0  0.56740  0.35540  0.97280  1.0000 0.1314813291
H   H4        1.0  0.56740  0.14460  0.52720  1.0000 0.1314813291
H   H5        1.0  0.58100  0.49970  0.06490  1.0000 0.1165202541
H   H6        1.0  0.58100  0.00030  0.43510  1.0000 0.1165202541
H   H7        1.0  0.41900  0.50030  0.93510  1.0000 0.1165202541
H   H8        1.0  0.41900  0.99970  0.56490  1.0000 0.1165202541
H   H9        1.0  0.73260  0.73460  0.43490  1.0000 0.1115546731
H   H10       1.0  0.73260  0.76540  0.06510  1.0000 0.1115546731
H   H11       1.0  0.26740  0.26540  0.56510  1.0000 0.1115546731
H   H12       1.0  0.26740  0.23460  0.93490  1.0000 0.1115546731
H   H13       1.0  0.85550  0.64310  0.51160  1.0000 0.1387833042
H   H14       1.0  0.85550  0.85690  0.98840  1.0000 0.1387833042
H   H15       1.0  0.14450  0.35690  0.48840  1.0000 0.1387833042
H   H16       1.0  0.14450  0.14310  0.01160  1.0000 0.1387833042
H   H17       1.0  0.93550  0.49570  0.30120  1.0000 0.150023712
H   H18       1.0  0.93550  0.00430  0.19880  1.0000 0.150023712
H   H19       1.0  0.06450  0.50430  0.69880  1.0000 0.150023712
H   H20       1.0  0.06450  0.99570  0.80120  1.0000 0.150023712
H   H21       1.0  0.81800  0.58880  0.22900  1.0000 0.1115546731
H   H22       1.0  0.81800  0.91120  0.27100  1.0000 0.1115546731
H   H23       1.0  0.18200  0.41120  0.77100  1.0000 0.1115546731
H   H24       1.0  0.18200  0.08880  0.72900  1.0000 0.1115546731
H   H25       1.0  0.01780  0.44190  0.43140  1.0000 0.1314813291
H   H26       1.0  0.01780  0.05810  0.06860  1.0000 0.1314813291
H   H27       1.0  0.98220  0.55810  0.56860  1.0000 0.1314813291
H   H28       1.0  0.98220  0.94190  0.93140  1.0000 0.1314813291
H   H29       1.0  0.06740  0.35540  0.02720  1.0000 0.1314813291
H   H30       1.0  0.06740  0.14460  0.47280  1.0000 0.1314813291
H   H31       1.0  0.93260  0.64460  0.97280  1.0000 0.1314813291
H   H32       1.0  0.93260  0.85540  0.52720  1.0000 0.1314813291
H   H33       1.0  0.91900  0.50030  0.06490  1.0000 0.1165202541
H   H34       1.0  0.91900  0.99970  0.43510  1.0000 0.1165202541
H   H35       1.0  0.08100  0.49970  0.93510  1.0000 0.1165202541
H   H36       1.0  0.08100  0.00030  0.56490  1.0000 0.1165202541
H   H37       1.0  0.76740  0.26540  0.43490  1.0000 0.1115546731
H   H38       1.0  0.76740  0.23460  0.06510  1.0000 0.1115546731
H   H39       1.0  0.23260  0.73460  0.56510  1.0000 0.1115546731
H   H40       1.0  0.23260  0.76540  0.93490  1.0000 0.1115546731
H   H41       1.0  0.64450  0.35690  0.51160  1.0000 0.1387833042
H   H42       1.0  0.64450  0.14310  0.98840  1.0000 0.1387833042
H   H43       1.0  0.35550  0.64310  0.48840  1.0000 0.1387833042
H   H44       1.0  0.35550  0.85690  0.01160  1.0000 0.1387833042
H   H45       1.0  0.56450  0.50430  0.30120  1.0000 0.150023712
H   H46       1.0  0.56450  0.99570  0.19880  1.0000 0.150023712
H   H47       1.0  0.43550  0.49570  0.69880  1.0000 0.150023712
H   H48       1.0  0.43550  0.00430  0.80120  1.0000 0.150023712
H   H49       1.0  0.68200  0.41120  0.22900  1.0000 0.1115546731
H   H50       1.0  0.68200  0.08880  0.27100  1.0000 0.1115546731
H   H51       1.0  0.31800  0.58880  0.77100  1.0000 0.1115546731
H   H52       1.0  0.31800  0.91120  0.72900  1.0000 0.1115546731
H   H53       1.0  0.48220  0.55810  0.43140  1.0000 0.1314813291
H   H54       1.0  0.48220  0.94190  0.06860  1.0000 0.1314813291
H   H55       1.0  0.51780  0.44190  0.56860  1.0000 0.1314813291
H   H56       1.0  0.51780  0.05810  0.93140  1.0000 0.1314813291
C   C1        1.0  0.53220  0.68030  0.12910  1.0000 0.5935881121
C   C2        1.0  0.53220  0.81970  0.37090  1.0000 0.5935881121
C   C3        1.0  0.46780  0.31970  0.87090  1.0000 0.5935881121
C   C4        1.0  0.46780  0.18030  0.62910  1.0000 0.5935881121
C   C5        1.0  0.48930  0.61790  0.05820  1.0000 -0.2394602949
C   C6        1.0  0.48930  0.88210  0.44180  1.0000 -0.2394602949
C   C7        1.0  0.51070  0.38210  0.94180  1.0000 -0.2394602949
C   C8        1.0  0.51070  0.11790  0.55820  1.0000 -0.2394602949
C   C9        1.0  0.52400  0.52820  0.03530  1.0000 -0.0642597388
C   C10       1.0  0.52400  0.97180  0.46470  1.0000 -0.0642597388
C   C11       1.0  0.47600  0.47180  0.96470  1.0000 -0.0642597388
C   C12       1.0  0.47600  0.02820  0.53530  1.0000 -0.0642597388
C   C13       1.0  0.77400  0.68660  0.40720  1.0000 0.0656386141
C   C14       1.0  0.77400  0.81340  0.09280  1.0000 0.0656386141
C   C15       1.0  0.22600  0.31340  0.59280  1.0000 0.0656386141
C   C16       1.0  0.22600  0.18660  0.90720  1.0000 0.0656386141
C   C17       1.0  0.84710  0.63140  0.45360  1.0000 -0.1928515824
C   C18       1.0  0.84710  0.86860  0.04640  1.0000 -0.1928515824
C   C19       1.0  0.15290  0.36860  0.54640  1.0000 -0.1928515824
C   C20       1.0  0.15290  0.13140  0.95360  1.0000 -0.1928515824
C   C21       1.0  0.90740  0.55890  0.41380  1.0000 0.150023712
C   C22       1.0  0.90740  0.94110  0.08620  1.0000 0.150023712
C   C23       1.0  0.09260  0.44110  0.58620  1.0000 0.150023712
C   C24       1.0  0.09260  0.05890  0.91380  1.0000 0.150023712
C   C25       1.0  0.89520  0.54420  0.32940  1.0000 -0.171652885
C   C26       1.0  0.89520  0.95580  0.17060  1.0000 -0.171652885
C   C27       1.0  0.10480  0.45580  0.67060  1.0000 -0.171652885
C   C28       1.0  0.10480  0.04420  0.82940  1.0000 -0.171652885
C   C29       1.0  0.82440  0.60030  0.28720  1.0000 0.0656386141
C   C30       1.0  0.82440  0.89970  0.21280  1.0000 0.0656386141
C   C31       1.0  0.17560  0.39970  0.71280  1.0000 0.0656386141
C   C32       1.0  0.17560  0.10030  0.78720  1.0000 0.0656386141
C   C33       1.0  0.98630  0.49450  0.46130  1.0000 -0.1153231057
C   C34       1.0  0.98630  0.00550  0.03870  1.0000 -0.1153231057
C   C35       1.0  0.01370  0.50550  0.53870  1.0000 -0.1153231057
C   C36       1.0  0.01370  0.99450  0.96130  1.0000 -0.1153231057
C   C37       1.0  0.96780  0.31970  0.12910  1.0000 0.5935881121
C   C38       1.0  0.96780  0.18030  0.37090  1.0000 0.5935881121
C   C39       1.0  0.03220  0.68030  0.87090  1.0000 0.5935881121
C   C40       1.0  0.03220  0.81970  0.62910  1.0000 0.5935881121
C   C41       1.0  0.01070  0.38210  0.05820  1.0000 -0.2394602949
C   C42       1.0  0.01070  0.11790  0.44180  1.0000 -0.2394602949
C   C43       1.0  0.98930  0.61790  0.94180  1.0000 -0.2394602949
C   C44       1.0  0.98930  0.88210  0.55820  1.0000 -0.2394602949
C   C45       1.0  0.97600  0.47180  0.03530  1.0000 -0.0642597388
C   C46       1.0  0.97600  0.02820  0.46470  1.0000 -0.0642597388
C   C47       1.0  0.02400  0.52820  0.96470  1.0000 -0.0652564334
C   C48       1.0  0.02400  0.97180  0.53530  1.0000 -0.0652564334
C   C49       1.0  0.72600  0.31340  0.40720  1.0000 0.0656386141
C   C50       1.0  0.72600  0.18660  0.09280  1.0000 0.0656386141
C   C51       1.0  0.27400  0.68660  0.59280  1.0000 0.0656386141
C   C52       1.0  0.27400  0.81340  0.90720  1.0000 0.0656386141
C   C53       1.0  0.65290  0.36860  0.45360  1.0000 -0.1928515824
C   C54       1.0  0.65290  0.13140  0.04640  1.0000 -0.1928515824
C   C55       1.0  0.34710  0.63140  0.54640  1.0000 -0.1928515824
C   C56       1.0  0.34710  0.86860  0.95360  1.0000 -0.1928515824
C   C57       1.0  0.59260  0.44110  0.41380  1.0000 0.150023712
C   C58       1.0  0.59260  0.05890  0.08620  1.0000 0.150023712
C   C59       1.0  0.40740  0.55890  0.58620  1.0000 0.150023712
C   C60       1.0  0.40740  0.94110  0.91380  1.0000 0.150023712
C   C61       1.0  0.60480  0.45580  0.32940  1.0000 -0.171652885
C   C62       1.0  0.60480  0.04420  0.17060  1.0000 -0.171652885
C   C63       1.0  0.39520  0.54420  0.67060  1.0000 -0.171652885
C   C64       1.0  0.39520  0.95580  0.82940  1.0000 -0.171652885
C   C65       1.0  0.67560  0.39970  0.28720  1.0000 0.0656386141
C   C66       1.0  0.67560  0.10030  0.21280  1.0000 0.0656386141
C   C67       1.0  0.32440  0.60030  0.71280  1.0000 0.0656386141
C   C68       1.0  0.32440  0.89970  0.78720  1.0000 0.0656386141
C   C69       1.0  0.51370  0.50550  0.46130  1.0000 -0.1153231057
C   C70       1.0  0.51370  0.99450  0.03870  1.0000 -0.1153231057
C   C71       1.0  0.48630  0.49450  0.53870  1.0000 -0.1153231057
C   C72       1.0  0.48630  0.00550  0.96130  1.0000 -0.1147684472
N   N1        1.0  0.76090  0.67270  0.32140  1.0000 -0.2551563101
N   N2        1.0  0.76090  0.82730  0.17860  1.0000 -0.2551563101
N   N3        1.0  0.23910  0.32730  0.67860  1.0000 -0.2551563101
N   N4        1.0  0.23910  0.17270  0.82140  1.0000 -0.2551563101
N   N5        1.0  0.73910  0.32730  0.32140  1.0000 -0.2551563101
N   N6        1.0  0.73910  0.17270  0.17860  1.0000 -0.2551563101
N   N7        1.0  0.26090  0.67270  0.67860  1.0000 -0.2551563101
N   N8        1.0  0.26090  0.82730  0.82140  1.0000 -0.2551563101
O   O1        1.0  0.60760  0.63690  0.17330  1.0000 -0.5680079477
O   O2        1.0  0.60760  0.86310  0.32670  1.0000 -0.5680079477
O   O3        1.0  0.39240  0.36310  0.82670  1.0000 -0.5680079477
O   O4        1.0  0.39240  0.13690  0.67330  1.0000 -0.5680079477
O   O5        1.0  0.50810  0.76760  0.14050  1.0000 -0.5302546637
O   O6        1.0  0.50810  0.73240  0.35950  1.0000 -0.5302546637
O   O7        1.0  0.49190  0.23240  0.85950  1.0000 -0.5302546637
O   O8        1.0  0.49190  0.26760  0.64050  1.0000 -0.5302546637
O   O9        1.0  0.89240  0.36310  0.17330  1.0000 -0.5680079477
O   O10       1.0  0.89240  0.13690  0.32670  1.0000 -0.5680079477
O   O11       1.0  0.10760  0.63690  0.82670  1.0000 -0.5680079477
O   O12       1.0  0.10760  0.86310  0.67330  1.0000 -0.5680079477
O   O13       1.0  0.99190  0.23240  0.14050  1.0000 -0.5302546637
O   O14       1.0  0.99190  0.26760  0.35950  1.0000 -0.5302546637
O   O15       1.0  0.00810  0.76760  0.85950  1.0000 -0.5302546637
O   O16       1.0  0.00810  0.73240  0.64050  1.0000 -0.5302546637
