# DDEC6 charges by PACMAN v1.1 (https://github.com/mtap-research/PACMAN-charge/)
data_2017[Zn][unc]3[ASR]2
_chemical_formula_sum              "Zn4 H44 C36 N8 O8"
_cell_length_a       12.487
_cell_length_b       12.487
_cell_length_c       9.776
_cell_angle_alpha    90
_cell_angle_beta     90
_cell_angle_gamma    90

_symmetry_space_group_name_H-M    "P 1"
_symmetry_Int_Tables_number       1

loop_
  _symmetry_equiv_pos_as_xyz
  'x, y, z'

loop_
  _atom_site_type_symbol
  _atom_site_label
  _atom_site_symmetry_multiplicity
  _atom_site_fract_x
  _atom_site_fract_y
  _atom_site_fract_z
  _atom_site_occupancy
  _atom_site_charge
Zn  Zn1       1.0  0.98420  0.59020  0.02790  1.0000 0.6728596774
Zn  Zn2       1.0  0.01580  0.40980  0.52790  1.0000 0.6728596774
Zn  Zn3       1.0  0.59020  0.01580  0.77790  1.0000 0.6728596774
Zn  Zn4       1.0  0.40980  0.98420  0.27790  1.0000 0.6728596774
H   H1        1.0  0.57930  0.97240  0.16260  1.0000 0.2409149047
H   H2        1.0  0.42070  0.02760  0.66260  1.0000 0.2409149047
H   H3        1.0  0.97240  0.42070  0.91260  1.0000 0.2409149047
H   H4        1.0  0.02760  0.57930  0.41260  1.0000 0.2409149047
H   H5        1.0  0.83790  0.77460  0.94390  1.0000 0.104235546
H   H6        1.0  0.16210  0.22540  0.44390  1.0000 0.104235546
H   H7        1.0  0.77460  0.16210  0.69390  1.0000 0.104235546
H   H8        1.0  0.22540  0.83790  0.19390  1.0000 0.104235546
H   H9        1.0  0.68330  0.85540  0.02560  1.0000 0.1292259975
H   H10       1.0  0.31670  0.14460  0.52560  1.0000 0.1292259975
H   H11       1.0  0.85540  0.31670  0.77560  1.0000 0.1292259975
H   H12       1.0  0.14460  0.68330  0.27560  1.0000 0.1292259975
H   H13       1.0  0.68970  0.66340  0.35530  1.0000 0.1292259975
H   H14       1.0  0.31030  0.33660  0.85530  1.0000 0.1292259975
H   H15       1.0  0.66340  0.31030  0.10530  1.0000 0.1292259975
H   H16       1.0  0.33660  0.68970  0.60530  1.0000 0.1292259975
H   H17       1.0  0.84430  0.58260  0.27360  1.0000 0.0897117474
H   H18       1.0  0.15570  0.41740  0.77360  1.0000 0.0897117474
H   H19       1.0  0.58260  0.15570  0.02360  1.0000 0.0897117474
H   H20       1.0  0.41740  0.84430  0.52360  1.0000 0.0897117474
H   H21       1.0  0.51980  0.78690  0.18100  1.0000 0.1292259975
H   H22       1.0  0.48020  0.21310  0.68100  1.0000 0.1292259975
H   H23       1.0  0.78690  0.48020  0.93100  1.0000 0.1292259975
H   H24       1.0  0.21310  0.51980  0.43100  1.0000 0.1292259975
H   H25       1.0  0.56010  0.78380  0.33180  1.0000 0.1142320645
H   H26       1.0  0.43990  0.21620  0.83180  1.0000 0.1142320645
H   H27       1.0  0.78380  0.43990  0.08180  1.0000 0.1142320645
H   H28       1.0  0.21620  0.56010  0.58180  1.0000 0.1142320645
H   H29       1.0  0.69100  0.93010  0.38730  1.0000 0.104235546
H   H30       1.0  0.30900  0.06990  0.88730  1.0000 0.104235546
H   H31       1.0  0.93010  0.30900  0.13730  1.0000 0.104235546
H   H32       1.0  0.06990  0.69100  0.63730  1.0000 0.104235546
H   H33       1.0  0.74030  0.10320  0.36190  1.0000 0.1292259975
H   H34       1.0  0.25970  0.89680  0.86190  1.0000 0.1292259975
H   H35       1.0  0.10320  0.25970  0.11190  1.0000 0.1292259975
H   H36       1.0  0.89680  0.74030  0.61190  1.0000 0.1292259975
H   H37       1.0  0.73370  0.06060  0.22210  1.0000 0.1221661207
H   H38       1.0  0.26630  0.93940  0.72210  1.0000 0.1221661207
H   H39       1.0  0.06060  0.26630  0.97210  1.0000 0.1221661207
H   H40       1.0  0.93940  0.73370  0.47210  1.0000 0.1221661207
H   H41       1.0  0.64620  0.13540  0.28610  1.0000 0.1221661207
H   H42       1.0  0.35380  0.86460  0.78610  1.0000 0.1221661207
H   H43       1.0  0.13540  0.35380  0.03610  1.0000 0.1221661207
H   H44       1.0  0.86460  0.64620  0.53610  1.0000 0.1221661207
C   C1        1.0  0.80820  0.75230  0.02600  1.0000 0.0521322193
C   C2        1.0  0.19180  0.24770  0.52600  1.0000 0.0521322193
C   C3        1.0  0.75230  0.19180  0.77600  1.0000 0.0521322193
C   C4        1.0  0.24770  0.80820  0.27600  1.0000 0.0521322193
C   C5        1.0  0.71560  0.80070  0.07500  1.0000 -0.2097616352
C   C6        1.0  0.28440  0.19930  0.57500  1.0000 -0.2097616352
C   C7        1.0  0.80070  0.28440  0.82500  1.0000 -0.2097616352
C   C8        1.0  0.19930  0.71560  0.32500  1.0000 -0.2097616352
C   C9        1.0  0.67120  0.76740  0.19900  1.0000 0.1221661207
C   C10       1.0  0.32880  0.23260  0.69900  1.0000 0.1221661207
C   C11       1.0  0.76740  0.32880  0.94900  1.0000 0.1221661207
C   C12       1.0  0.23260  0.67120  0.44900  1.0000 0.1221661207
C   C13       1.0  0.71940  0.68570  0.27300  1.0000 -0.2178478751
C   C14       1.0  0.28060  0.31430  0.77300  1.0000 -0.2178478751
C   C15       1.0  0.68570  0.28060  0.02300  1.0000 -0.2178478751
C   C16       1.0  0.31430  0.71940  0.52300  1.0000 -0.2178478751
C   C17       1.0  0.81200  0.63730  0.22400  1.0000 0.0215461517
C   C18       1.0  0.18800  0.36270  0.72400  1.0000 0.0215461517
C   C19       1.0  0.63730  0.18800  0.97400  1.0000 0.0215461517
C   C20       1.0  0.36270  0.81200  0.47400  1.0000 0.0215461517
C   C21       1.0  0.57600  0.81200  0.24200  1.0000 -0.2097616352
C   C22       1.0  0.42400  0.18800  0.74200  1.0000 -0.2097616352
C   C23       1.0  0.81200  0.42400  0.99200  1.0000 -0.2097616352
C   C24       1.0  0.18800  0.57600  0.49200  1.0000 -0.2097616352
C   C25       1.0  0.64000  0.98500  0.35800  1.0000 -0.0114308724
C   C26       1.0  0.36000  0.01500  0.85800  1.0000 -0.0114308724
C   C27       1.0  0.98500  0.36000  0.10800  1.0000 -0.0114308724
C   C28       1.0  0.01500  0.64000  0.60800  1.0000 -0.0114308724
C   C29       1.0  0.69700  0.07900  0.30500  1.0000 -0.4148633245
C   C30       1.0  0.30300  0.92100  0.80500  1.0000 -0.4154255155
C   C31       1.0  0.07900  0.30300  0.05500  1.0000 -0.4148633245
C   C32       1.0  0.92100  0.69700  0.55500  1.0000 -0.4148633245
C   C33       1.0  0.56600  0.01700  0.47600  1.0000 0.5042180952
C   C34       1.0  0.43400  0.98300  0.97600  1.0000 0.5042180952
C   C35       1.0  0.01700  0.43400  0.22600  1.0000 0.5042180952
C   C36       1.0  0.98300  0.56600  0.72600  1.0000 0.5042180952
N   N1        1.0  0.56310  0.94100  0.25100  1.0000 -0.3700212154
N   N2        1.0  0.43690  0.05900  0.75100  1.0000 -0.3700212154
N   N3        1.0  0.94100  0.43690  0.00100  1.0000 -0.3700212154
N   N4        1.0  0.05900  0.56310  0.50100  1.0000 -0.3700212154
N   N5        1.0  0.85640  0.67060  0.10100  1.0000 -0.3092521641
N   N6        1.0  0.14360  0.32940  0.60100  1.0000 -0.3092521641
N   N7        1.0  0.67060  0.14360  0.85100  1.0000 -0.3092521641
N   N8        1.0  0.32940  0.85640  0.35100  1.0000 -0.3092521641
O   O1        1.0  0.62690  0.05250  0.57700  1.0000 -0.5818535004
O   O2        1.0  0.37310  0.94750  0.07700  1.0000 -0.5818535004
O   O3        1.0  0.05250  0.37310  0.32700  1.0000 -0.5818535004
O   O4        1.0  0.94750  0.62690  0.82700  1.0000 -0.5818535004
O   O5        1.0  0.47470  0.02070  0.46900  1.0000 -0.462555534
O   O6        1.0  0.52530  0.97930  0.96900  1.0000 -0.462555534
O   O7        1.0  0.02070  0.52530  0.21900  1.0000 -0.462555534
O   O8        1.0  0.97930  0.47470  0.71900  1.0000 -0.462555534
