# DDEC6 charges by PACMAN v1.1 (https://github.com/mtap-research/PACMAN-charge/)
data_2017[Ag][sql]2[ASR]1
_chemical_formula_sum              "Ag2 H64 C64 N16 O8"
_cell_length_a       17.9725
_cell_length_b       17.9725
_cell_length_c       4.8807
_cell_angle_alpha    90
_cell_angle_beta     90
_cell_angle_gamma    90

_symmetry_space_group_name_H-M    "P 1"
_symmetry_Int_Tables_number       1

loop_
  _symmetry_equiv_pos_as_xyz
  'x, y, z'

loop_
  _atom_site_type_symbol
  _atom_site_label
  _atom_site_symmetry_multiplicity
  _atom_site_fract_x
  _atom_site_fract_y
  _atom_site_fract_z
  _atom_site_occupancy
  _atom_site_charge
Ag  Ag1       1.0  0.00000  0.00000  0.50000  1.0000 0.2399087885
Ag  Ag2       1.0  0.50000  0.50000  0.50000  1.0000 0.2399087885
H   H1        1.0  0.29930  0.09900  0.23700  1.0000 0.2757175007
H   H2        1.0  0.17060  0.03290  0.43780  1.0000 0.09927683
H   H3        1.0  0.08550  0.89670  0.97350  1.0000 0.09927683
H   H4        1.0  0.20220  0.86390  0.12710  1.0000 0.1204813497
H   H5        1.0  0.30660  0.91990  0.93290  1.0000 0.1204813497
H   H6        1.0  0.33580  0.98820  0.38310  1.0000 0.1079065261
H   H7        1.0  0.35590  0.02640  0.66250  1.0000 0.09927683
H   H8        1.0  0.25760  0.21980  0.24220  1.0000 0.1265450755
H   H9        1.0  0.70070  0.90100  0.23700  1.0000 0.2757175007
H   H10       1.0  0.82940  0.96710  0.43780  1.0000 0.09927683
H   H11       1.0  0.91450  0.10330  0.97350  1.0000 0.09927683
H   H12       1.0  0.79780  0.13610  0.12710  1.0000 0.1204813497
H   H13       1.0  0.69340  0.08010  0.93290  1.0000 0.1204813497
H   H14       1.0  0.66420  0.01180  0.38310  1.0000 0.1079065261
H   H15       1.0  0.64410  0.97360  0.66250  1.0000 0.09927683
H   H16       1.0  0.74240  0.78020  0.24220  1.0000 0.1265450755
H   H17       1.0  0.59900  0.20070  0.23700  1.0000 0.2757175007
H   H18       1.0  0.53290  0.32940  0.43780  1.0000 0.09927683
H   H19       1.0  0.39670  0.41450  0.97350  1.0000 0.09927683
H   H20       1.0  0.36390  0.29780  0.12710  1.0000 0.1204813497
H   H21       1.0  0.41990  0.19340  0.93290  1.0000 0.1204813497
H   H22       1.0  0.48820  0.16420  0.38310  1.0000 0.1079065261
H   H23       1.0  0.52640  0.14410  0.66250  1.0000 0.09927683
H   H24       1.0  0.71980  0.24240  0.24220  1.0000 0.1265450755
H   H25       1.0  0.40100  0.79930  0.23700  1.0000 0.2757175007
H   H26       1.0  0.46710  0.67060  0.43780  1.0000 0.09927683
H   H27       1.0  0.60330  0.58550  0.97350  1.0000 0.09927683
H   H28       1.0  0.63610  0.70220  0.12710  1.0000 0.1204813497
H   H29       1.0  0.58010  0.80660  0.93290  1.0000 0.1204813497
H   H30       1.0  0.51180  0.83580  0.38310  1.0000 0.1079065261
H   H31       1.0  0.47360  0.85590  0.66250  1.0000 0.09927683
H   H32       1.0  0.28020  0.75760  0.24220  1.0000 0.1265450755
H   H33       1.0  0.20070  0.40100  0.76300  1.0000 0.2757175007
H   H34       1.0  0.32940  0.46710  0.56220  1.0000 0.09927683
H   H35       1.0  0.41450  0.60330  0.02650  1.0000 0.09927683
H   H36       1.0  0.29780  0.63610  0.87290  1.0000 0.1204813497
H   H37       1.0  0.19340  0.58010  0.06710  1.0000 0.1204813497
H   H38       1.0  0.16420  0.51180  0.61690  1.0000 0.1079065261
H   H39       1.0  0.14410  0.47360  0.33750  1.0000 0.09927683
H   H40       1.0  0.24240  0.28020  0.75780  1.0000 0.1265450755
H   H41       1.0  0.79930  0.59900  0.76300  1.0000 0.2757175007
H   H42       1.0  0.67060  0.53290  0.56220  1.0000 0.09927683
H   H43       1.0  0.58550  0.39670  0.02650  1.0000 0.09927683
H   H44       1.0  0.70220  0.36390  0.87290  1.0000 0.1204813497
H   H45       1.0  0.80660  0.41990  0.06710  1.0000 0.1204813497
H   H46       1.0  0.83580  0.48820  0.61690  1.0000 0.1079065261
H   H47       1.0  0.85590  0.52640  0.33750  1.0000 0.09927683
H   H48       1.0  0.75760  0.71980  0.75780  1.0000 0.1265450755
H   H49       1.0  0.90100  0.29930  0.76300  1.0000 0.2757175007
H   H50       1.0  0.96710  0.17060  0.56220  1.0000 0.09927683
H   H51       1.0  0.10330  0.08550  0.02650  1.0000 0.09927683
H   H52       1.0  0.13610  0.20220  0.87290  1.0000 0.1204813497
H   H53       1.0  0.08010  0.30660  0.06710  1.0000 0.1204813497
H   H54       1.0  0.01180  0.33580  0.61690  1.0000 0.1079065261
H   H55       1.0  0.97360  0.35590  0.33750  1.0000 0.09927683
H   H56       1.0  0.78020  0.25760  0.75780  1.0000 0.1265450755
H   H57       1.0  0.09900  0.70070  0.76300  1.0000 0.2757175007
H   H58       1.0  0.03290  0.82940  0.56220  1.0000 0.09927683
H   H59       1.0  0.89670  0.91450  0.02650  1.0000 0.09927683
H   H60       1.0  0.86390  0.79780  0.87290  1.0000 0.1204813497
H   H61       1.0  0.91990  0.69340  0.06710  1.0000 0.1204813497
H   H62       1.0  0.98820  0.66420  0.61690  1.0000 0.1079065261
H   H63       1.0  0.02640  0.64410  0.33750  1.0000 0.09927683
H   H64       1.0  0.21980  0.74240  0.75780  1.0000 0.1265450755
C   C1        1.0  0.24969  0.98313  0.66130  1.0000 0.0680084724
C   C2        1.0  0.17726  0.99872  0.57870  1.0000 -0.0095747196
C   C3        1.0  0.12696  0.91847  0.89270  1.0000 0.027098261
C   C4        1.0  0.19700  0.89875  0.98760  1.0000 -0.1287508084
C   C5        1.0  0.25918  0.93188  0.87110  1.0000 -0.1230928449
C   C6        1.0  0.31683  0.02020  0.52720  1.0000 -0.10796672
C   C7        1.0  0.27867  0.14925  0.57520  1.0000 0.4814859667
C   C8        1.0  0.25844  0.21918  0.43270  1.0000 -0.2122309691
C   C9        1.0  0.75031  0.01687  0.66130  1.0000 0.0680084724
C   C10       1.0  0.82274  0.00128  0.57870  1.0000 -0.0095747196
C   C11       1.0  0.87304  0.08153  0.89270  1.0000 0.027098261
C   C12       1.0  0.80300  0.10125  0.98760  1.0000 -0.1287508084
C   C13       1.0  0.74082  0.06812  0.87110  1.0000 -0.1230928449
C   C14       1.0  0.68317  0.97980  0.52720  1.0000 -0.10796672
C   C15       1.0  0.72133  0.85075  0.57520  1.0000 0.4814859667
C   C16       1.0  0.74156  0.78082  0.43270  1.0000 -0.2122309691
C   C17       1.0  0.48313  0.25031  0.66130  1.0000 0.0680084724
C   C18       1.0  0.49872  0.32274  0.57870  1.0000 -0.0095747196
C   C19       1.0  0.41847  0.37304  0.89270  1.0000 0.027098261
C   C20       1.0  0.39875  0.30300  0.98760  1.0000 -0.1287508084
C   C21       1.0  0.43188  0.24082  0.87110  1.0000 -0.1230928449
C   C22       1.0  0.52020  0.18317  0.52720  1.0000 -0.10796672
C   C23       1.0  0.64925  0.22133  0.57520  1.0000 0.4814859667
C   C24       1.0  0.71918  0.24156  0.43270  1.0000 -0.2122309691
C   C25       1.0  0.51687  0.74969  0.66130  1.0000 0.0680084724
C   C26       1.0  0.50128  0.67726  0.57870  1.0000 -0.0095747196
C   C27       1.0  0.58153  0.62696  0.89270  1.0000 0.027098261
C   C28       1.0  0.60125  0.69700  0.98760  1.0000 -0.1287508084
C   C29       1.0  0.56812  0.75918  0.87110  1.0000 -0.1230928449
C   C30       1.0  0.47980  0.81683  0.52720  1.0000 -0.10796672
C   C31       1.0  0.35075  0.77867  0.57520  1.0000 0.4814859667
C   C32       1.0  0.28082  0.75844  0.43270  1.0000 -0.2122309691
C   C33       1.0  0.25031  0.51687  0.33870  1.0000 0.0680084724
C   C34       1.0  0.32274  0.50128  0.42130  1.0000 -0.0095747196
C   C35       1.0  0.37304  0.58153  0.10730  1.0000 0.027098261
C   C36       1.0  0.30300  0.60125  0.01240  1.0000 -0.1287508084
C   C37       1.0  0.24082  0.56812  0.12890  1.0000 -0.1230928449
C   C38       1.0  0.18317  0.47980  0.47280  1.0000 -0.10796672
C   C39       1.0  0.22133  0.35075  0.42480  1.0000 0.4814859667
C   C40       1.0  0.24156  0.28082  0.56730  1.0000 -0.2122309691
C   C41       1.0  0.74969  0.48313  0.33870  1.0000 0.0680084724
C   C42       1.0  0.67726  0.49872  0.42130  1.0000 -0.0095747196
C   C43       1.0  0.62696  0.41847  0.10730  1.0000 0.027098261
C   C44       1.0  0.69700  0.39875  0.01240  1.0000 -0.1287508084
C   C45       1.0  0.75918  0.43188  0.12890  1.0000 -0.1230928449
C   C46       1.0  0.81683  0.52020  0.47280  1.0000 -0.10796672
C   C47       1.0  0.77867  0.64925  0.42480  1.0000 0.4814859667
C   C48       1.0  0.75844  0.71918  0.56730  1.0000 -0.2122309691
C   C49       1.0  0.01687  0.24969  0.33870  1.0000 0.0680084724
C   C50       1.0  0.00128  0.17726  0.42130  1.0000 -0.0095747196
C   C51       1.0  0.08153  0.12696  0.10730  1.0000 0.027098261
C   C52       1.0  0.10125  0.19700  0.01240  1.0000 -0.1287508084
C   C53       1.0  0.06812  0.25918  0.12890  1.0000 -0.1230928449
C   C54       1.0  0.97980  0.31683  0.47280  1.0000 -0.10796672
C   C55       1.0  0.85075  0.27867  0.42480  1.0000 0.4814859667
C   C56       1.0  0.78082  0.25844  0.56730  1.0000 -0.2122309691
C   C57       1.0  0.98313  0.75031  0.33870  1.0000 0.0680084724
C   C58       1.0  0.99872  0.82274  0.42130  1.0000 -0.0095747196
C   C59       1.0  0.91847  0.87304  0.10730  1.0000 0.027098261
C   C60       1.0  0.89875  0.80300  0.01240  1.0000 -0.1287508084
C   C61       1.0  0.93188  0.74082  0.12890  1.0000 -0.1230928449
C   C62       1.0  0.02020  0.68317  0.47280  1.0000 -0.10796672
C   C63       1.0  0.14925  0.72133  0.42480  1.0000 0.4814859667
C   C64       1.0  0.21918  0.74156  0.56730  1.0000 -0.2122309691
N   N1        1.0  0.11648  0.96759  0.68950  1.0000 -0.2122309691
N   N2        1.0  0.29798  0.09259  0.41150  1.0000 -0.3510587251
N   N3        1.0  0.88352  0.03241  0.68950  1.0000 -0.2122309691
N   N4        1.0  0.70202  0.90741  0.41150  1.0000 -0.3510587251
N   N5        1.0  0.46759  0.38352  0.68950  1.0000 -0.2122309691
N   N6        1.0  0.59259  0.20202  0.41150  1.0000 -0.3510587251
N   N7        1.0  0.53241  0.61648  0.68950  1.0000 -0.2122309691
N   N8        1.0  0.40741  0.79798  0.41150  1.0000 -0.3510587251
N   N9        1.0  0.38352  0.53241  0.31050  1.0000 -0.2122309691
N   N10       1.0  0.20202  0.40741  0.58850  1.0000 -0.3510587251
N   N11       1.0  0.61648  0.46759  0.31050  1.0000 -0.2122309691
N   N12       1.0  0.79798  0.59259  0.58850  1.0000 -0.3510587251
N   N13       1.0  0.03241  0.11648  0.31050  1.0000 -0.2122309691
N   N14       1.0  0.90741  0.29798  0.58850  1.0000 -0.3510587251
N   N15       1.0  0.96759  0.88352  0.31050  1.0000 -0.2122309691
N   N16       1.0  0.09259  0.70202  0.58850  1.0000 -0.3510587251
O   O1        1.0  0.27670  0.14348  0.82910  1.0000 -0.5406264326
O   O2        1.0  0.72330  0.85652  0.82910  1.0000 -0.5406264326
O   O3        1.0  0.64348  0.22330  0.82910  1.0000 -0.5406264326
O   O4        1.0  0.35652  0.77670  0.82910  1.0000 -0.5406264326
O   O5        1.0  0.22330  0.35652  0.17090  1.0000 -0.5406264326
O   O6        1.0  0.77670  0.64348  0.17090  1.0000 -0.5406264326
O   O7        1.0  0.85652  0.27670  0.17090  1.0000 -0.5406264326
O   O8        1.0  0.14348  0.72330  0.17090  1.0000 -0.5406264326
