# DDEC6 charges by PACMAN v1.1 (https://github.com/mtap-research/PACMAN-charge/)
data_2017[Cu][cds]3[ASR]1
_chemical_formula_sum              "Cu8 H88 C144 S8 N40 O32"
_cell_length_a       16.6304
_cell_length_b       12.4236
_cell_length_c       26.3912
_cell_angle_alpha    90
_cell_angle_beta     126.931
_cell_angle_gamma    90

_symmetry_space_group_name_H-M    "P 1"
_symmetry_Int_Tables_number       1

loop_
  _symmetry_equiv_pos_as_xyz
  'x, y, z'

loop_
  _atom_site_type_symbol
  _atom_site_label
  _atom_site_symmetry_multiplicity
  _atom_site_fract_x
  _atom_site_fract_y
  _atom_site_fract_z
  _atom_site_occupancy
  _atom_site_charge
Cu  Cu1       1.0  0.69511  0.26485  0.54833  1.0000 0.7868815274
Cu  Cu2       1.0  0.19961  0.78172  0.56093  1.0000 0.7820661277
Cu  Cu3       1.0  0.30489  0.76485  0.95167  1.0000 0.7868815274
Cu  Cu4       1.0  0.80039  0.28172  0.93907  1.0000 0.7820661277
Cu  Cu5       1.0  0.30489  0.73515  0.45167  1.0000 0.7868815274
Cu  Cu6       1.0  0.80039  0.21828  0.43907  1.0000 0.7820661277
Cu  Cu7       1.0  0.69511  0.23515  0.04833  1.0000 0.7868815274
Cu  Cu8       1.0  0.19961  0.71828  0.06093  1.0000 0.7820661277
H   H1        1.0  0.77753  0.40452  0.81813  1.0000 0.283383897
H   H2        1.0  0.27516  0.90275  0.82520  1.0000 0.285383305
H   H3        1.0  0.94072  0.96768  0.65966  1.0000 0.1419587089
H   H4        1.0  0.78656  0.04816  0.58632  1.0000 0.109521906
H   H5        1.0  0.28737  0.56728  0.59906  1.0000 0.1222442995
H   H6        1.0  0.44007  0.48271  0.66577  1.0000 0.1419587089
H   H7        1.0  0.95071  0.44928  0.90140  1.0000 0.1419587089
H   H8        1.0  0.56312  0.77028  0.74428  1.0000 0.1419587089
H   H9        1.0  0.04372  0.25497  0.74560  1.0000 0.1419587089
H   H10       1.0  0.10465  0.50981  0.98735  1.0000 0.109521906
H   H11       1.0  0.40734  0.84644  0.67534  1.0000 0.109521906
H   H12       1.0  0.88839  0.32646  0.67012  1.0000 0.109521906
H   H13       1.0  0.52053  0.21621  0.66880  1.0000 0.1298355018
H   H14       1.0  0.59869  0.01880  0.98855  1.0000 0.109521906
H   H15       1.0  0.00375  0.70703  0.66766  1.0000 0.1298355018
H   H16       1.0  0.44296  0.95097  0.90809  1.0000 0.1419587089
H   H17       1.0  0.38952  0.09073  0.64719  1.0000 0.1222442995
H   H18       1.0  0.84229  0.74797  0.88122  1.0000 0.1419587089
H   H19       1.0  0.99855  0.79988  0.96776  1.0000 0.109521906
H   H20       1.0  0.87552  0.57227  0.63872  1.0000 0.1222442995
H   H21       1.0  0.50065  0.31356  0.93950  1.0000 0.0994259526
H   H22       1.0  0.34297  0.25419  0.85835  1.0000 0.1419587089
H   H23       1.0  0.22247  0.90452  0.68187  1.0000 0.283383897
H   H24       1.0  0.72484  0.40275  0.67480  1.0000 0.285383305
H   H25       1.0  0.05928  0.46768  0.84034  1.0000 0.1419587089
H   H26       1.0  0.21344  0.54816  0.91368  1.0000 0.109521906
H   H27       1.0  0.71263  0.06728  0.90094  1.0000 0.1222442995
H   H28       1.0  0.55993  0.98271  0.83423  1.0000 0.1419587089
H   H29       1.0  0.04929  0.94928  0.59860  1.0000 0.1419587089
H   H30       1.0  0.43688  0.27028  0.75572  1.0000 0.1419587089
H   H31       1.0  0.95628  0.75497  0.75440  1.0000 0.1419587089
H   H32       1.0  0.89535  0.00981  0.51265  1.0000 0.109521906
H   H33       1.0  0.59266  0.34644  0.82466  1.0000 0.109521906
H   H34       1.0  0.11161  0.82646  0.82988  1.0000 0.109521906
H   H35       1.0  0.47947  0.71621  0.83120  1.0000 0.1298355018
H   H36       1.0  0.40131  0.51880  0.51145  1.0000 0.109521906
H   H37       1.0  0.99625  0.20703  0.83234  1.0000 0.1298355018
H   H38       1.0  0.55704  0.45097  0.59191  1.0000 0.1419587089
H   H39       1.0  0.61048  0.59073  0.85281  1.0000 0.1222442995
H   H40       1.0  0.15771  0.24797  0.61878  1.0000 0.1419587089
H   H41       1.0  0.00145  0.29988  0.53224  1.0000 0.109521906
H   H42       1.0  0.12448  0.07227  0.86128  1.0000 0.1222442995
H   H43       1.0  0.49935  0.81356  0.56050  1.0000 0.0994259526
H   H44       1.0  0.65703  0.75419  0.64165  1.0000 0.1419587089
H   H45       1.0  0.22247  0.59548  0.18187  1.0000 0.283383897
H   H46       1.0  0.72484  0.09725  0.17480  1.0000 0.285383305
H   H47       1.0  0.05928  0.03232  0.34034  1.0000 0.1419587089
H   H48       1.0  0.21344  0.95184  0.41368  1.0000 0.109521906
H   H49       1.0  0.71263  0.43272  0.40094  1.0000 0.1222442995
H   H50       1.0  0.55993  0.51729  0.33423  1.0000 0.1419587089
H   H51       1.0  0.04929  0.55072  0.09860  1.0000 0.1419587089
H   H52       1.0  0.43688  0.22972  0.25572  1.0000 0.1419587089
H   H53       1.0  0.95628  0.74503  0.25440  1.0000 0.1419587089
H   H54       1.0  0.89535  0.49019  0.01265  1.0000 0.109521906
H   H55       1.0  0.59266  0.15356  0.32466  1.0000 0.109521906
H   H56       1.0  0.11161  0.67354  0.32988  1.0000 0.109521906
H   H57       1.0  0.47947  0.78379  0.33120  1.0000 0.1298355018
H   H58       1.0  0.40131  0.98120  0.01145  1.0000 0.109521906
H   H59       1.0  0.99625  0.29297  0.33234  1.0000 0.1298355018
H   H60       1.0  0.55704  0.04903  0.09191  1.0000 0.1419587089
H   H61       1.0  0.61048  0.90927  0.35281  1.0000 0.1222442995
H   H62       1.0  0.15771  0.25203  0.11878  1.0000 0.1419587089
H   H63       1.0  0.00145  0.20012  0.03224  1.0000 0.109521906
H   H64       1.0  0.12448  0.42773  0.36128  1.0000 0.1222442995
H   H65       1.0  0.49935  0.68644  0.06050  1.0000 0.0994259526
H   H66       1.0  0.65703  0.74581  0.14165  1.0000 0.1419587089
H   H67       1.0  0.77753  0.09548  0.31813  1.0000 0.283383897
H   H68       1.0  0.27516  0.59725  0.32520  1.0000 0.285383305
H   H69       1.0  0.94072  0.53232  0.15966  1.0000 0.1419587089
H   H70       1.0  0.78656  0.45184  0.08632  1.0000 0.109521906
H   H71       1.0  0.28737  0.93272  0.09906  1.0000 0.1222442995
H   H72       1.0  0.44007  0.01729  0.16577  1.0000 0.1419587089
H   H73       1.0  0.95071  0.05072  0.40140  1.0000 0.1419587089
H   H74       1.0  0.56312  0.72972  0.24428  1.0000 0.1419587089
H   H75       1.0  0.04372  0.24503  0.24560  1.0000 0.1419587089
H   H76       1.0  0.10465  0.99019  0.48735  1.0000 0.109521906
H   H77       1.0  0.40734  0.65356  0.17534  1.0000 0.109521906
H   H78       1.0  0.88839  0.17354  0.17012  1.0000 0.109521906
H   H79       1.0  0.52053  0.28379  0.16880  1.0000 0.1298355018
H   H80       1.0  0.59869  0.48120  0.48855  1.0000 0.109521906
H   H81       1.0  0.00375  0.79297  0.16766  1.0000 0.1298355018
H   H82       1.0  0.44296  0.54903  0.40809  1.0000 0.1419587089
H   H83       1.0  0.38952  0.40927  0.14719  1.0000 0.1222442995
H   H84       1.0  0.84229  0.75203  0.38122  1.0000 0.1419587089
H   H85       1.0  0.99855  0.70012  0.46776  1.0000 0.109521906
H   H86       1.0  0.87552  0.92773  0.13872  1.0000 0.1222442995
H   H87       1.0  0.50065  0.18644  0.43950  1.0000 0.0994259526
H   H88       1.0  0.34297  0.24581  0.35835  1.0000 0.1419587089
C   C1        1.0  0.32129  0.92560  0.55539  1.0000 0.5673035854
C   C2        1.0  0.11435  0.06180  0.75489  1.0000 0.2309707445
C   C3        1.0  0.01186  0.10390  0.70943  1.0000 0.0904879478
C   C4        1.0  0.62070  0.56990  0.75509  1.0000 0.2309707445
C   C5        1.0  0.87780  0.59150  0.88193  1.0000 0.0796838705
C   C6        1.0  0.77517  0.56130  0.82840  1.0000 0.2626324133
C   C7        1.0  0.82549  0.40950  0.54859  1.0000 0.5673035854
C   C8        1.0  0.26990  0.06080  0.82605  1.0000 0.2626324133
C   C9        1.0  0.51984  0.61700  0.71134  1.0000 0.0904879478
C   C10       1.0  0.37378  0.09530  0.87558  1.0000 0.0727693182
C   C11       1.0  0.93228  0.04110  0.66198  1.0000 -0.1800302788
C   C12       1.0  0.52465  0.14240  0.60135  1.0000 -0.1093154756
C   C13       1.0  0.83974  0.09010  0.61804  1.0000 0.0994259526
C   C14       1.0  0.59854  0.20320  0.59834  1.0000 0.5673035854
C   C15       1.0  0.34383  0.60850  0.62793  1.0000 0.0994259526
C   C16       1.0  0.02810  0.63560  0.60840  1.0000 -0.1093154756
C   C17       1.0  0.10647  0.70350  0.61297  1.0000 0.5673035854
C   C18       1.0  0.43539  0.55690  0.66799  1.0000 -0.1800302788
C   C19       1.0  0.95859  0.52060  0.91429  1.0000 -0.1800302788
C   C20       1.0  0.50834  0.72780  0.71454  1.0000 -0.1800302788
C   C21       1.0  0.89726  0.50130  0.57824  1.0000 -0.1191014838
C   C22       1.0  0.99331  0.21180  0.71291  1.0000 -0.1723974286
C   C23       1.0  0.05098  0.55770  0.96598  1.0000 0.0796838705
C   C24       1.0  0.39408  0.01630  0.58030  1.0000 -0.1294719318
C   C25       1.0  0.41464  0.77280  0.67294  1.0000 0.0904879478
C   C26       1.0  0.89968  0.25410  0.66748  1.0000 0.0994259526
C   C27       1.0  0.49440  0.16160  0.63870  1.0000 -0.1294719318
C   C28       1.0  0.54614  0.06650  0.96264  1.0000 0.0904879478
C   C29       1.0  0.98570  0.65150  0.63900  1.0000 -0.1294719318
C   C30       1.0  0.45252  0.02490  0.91432  1.0000 -0.1800302788
C   C31       1.0  0.41883  0.08900  0.62633  1.0000 -0.1093154756
C   C32       1.0  0.89432  0.69800  0.90242  1.0000 -0.1605549357
C   C33       1.0  0.98848  0.72860  0.95438  1.0000 0.0904879478
C   C34       1.0  0.91128  0.57390  0.62198  1.0000 -0.1191014838
C   C35       1.0  0.48820  0.23990  0.93370  1.0000 0.0904879478
C   C36       1.0  0.39348  0.20480  0.88488  1.0000 -0.1605549357
C   C37       1.0  0.67871  0.42560  0.94461  1.0000 0.5673035854
C   C38       1.0  0.88565  0.56180  0.74511  1.0000 0.2309707445
C   C39       1.0  0.98814  0.60390  0.79057  1.0000 0.0904879478
C   C40       1.0  0.37930  0.06990  0.74491  1.0000 0.2309707445
C   C41       1.0  0.12220  0.09150  0.61807  1.0000 0.0796838705
C   C42       1.0  0.22483  0.06130  0.67160  1.0000 0.2626324133
C   C43       1.0  0.17451  0.90950  0.95141  1.0000 0.5673035854
C   C44       1.0  0.73010  0.56080  0.67395  1.0000 0.2626324133
C   C45       1.0  0.48016  0.11700  0.78866  1.0000 0.0904879478
C   C46       1.0  0.62622  0.59530  0.62442  1.0000 0.0727693182
C   C47       1.0  0.06772  0.54110  0.83802  1.0000 -0.1800302788
C   C48       1.0  0.47535  0.64240  0.89865  1.0000 -0.1093154756
C   C49       1.0  0.16026  0.59010  0.88196  1.0000 0.0994259526
C   C50       1.0  0.40146  0.70320  0.90166  1.0000 0.5673035854
C   C51       1.0  0.65617  0.10850  0.87207  1.0000 0.0994259526
C   C52       1.0  0.97190  0.13560  0.89160  1.0000 -0.1093154756
C   C53       1.0  0.89353  0.20350  0.88703  1.0000 0.5673035854
C   C54       1.0  0.56461  0.05690  0.83201  1.0000 -0.1800302788
C   C55       1.0  0.04141  0.02060  0.58571  1.0000 -0.1800302788
C   C56       1.0  0.49166  0.22780  0.78546  1.0000 -0.1800302788
C   C57       1.0  0.10274  0.00130  0.92176  1.0000 -0.1191014838
C   C58       1.0  0.00669  0.71180  0.78709  1.0000 -0.1723974286
C   C59       1.0  0.94902  0.05770  0.53402  1.0000 0.0796838705
C   C60       1.0  0.60592  0.51630  0.91970  1.0000 -0.1294719318
C   C61       1.0  0.58536  0.27280  0.82706  1.0000 0.0904879478
C   C62       1.0  0.10032  0.75410  0.83252  1.0000 0.0994259526
C   C63       1.0  0.50560  0.66160  0.86130  1.0000 -0.1294719318
C   C64       1.0  0.45386  0.56650  0.53736  1.0000 0.0904879478
C   C65       1.0  0.01430  0.15150  0.86100  1.0000 -0.1294719318
C   C66       1.0  0.54748  0.52490  0.58568  1.0000 -0.1800302788
C   C67       1.0  0.58117  0.58900  0.87367  1.0000 -0.1093154756
C   C68       1.0  0.10568  0.19800  0.59758  1.0000 -0.1605549357
C   C69       1.0  0.01152  0.22860  0.54562  1.0000 0.0904879478
C   C70       1.0  0.08872  0.07390  0.87802  1.0000 -0.1191014838
C   C71       1.0  0.51180  0.73990  0.56630  1.0000 0.0904879478
C   C72       1.0  0.60652  0.70480  0.61512  1.0000 -0.1605549357
C   C73       1.0  0.67871  0.07440  0.44461  1.0000 0.5673035854
C   C74       1.0  0.88565  0.93820  0.24511  1.0000 0.2309707445
C   C75       1.0  0.98814  0.89610  0.29057  1.0000 0.0904879478
C   C76       1.0  0.37930  0.43010  0.24491  1.0000 0.2309707445
C   C77       1.0  0.12220  0.40850  0.11807  1.0000 0.0796838705
C   C78       1.0  0.22483  0.43870  0.17160  1.0000 0.2626324133
C   C79       1.0  0.17451  0.59050  0.45141  1.0000 0.5673035854
C   C80       1.0  0.73010  0.93920  0.17395  1.0000 0.2626324133
C   C81       1.0  0.48016  0.38300  0.28866  1.0000 0.0904879478
C   C82       1.0  0.62622  0.90470  0.12442  1.0000 0.0727693182
C   C83       1.0  0.06772  0.95890  0.33802  1.0000 -0.1800302788
C   C84       1.0  0.47535  0.85760  0.39865  1.0000 -0.1093154756
C   C85       1.0  0.16026  0.90990  0.38196  1.0000 0.0994259526
C   C86       1.0  0.40146  0.79680  0.40166  1.0000 0.5673035854
C   C87       1.0  0.65617  0.39150  0.37207  1.0000 0.0994259526
C   C88       1.0  0.97190  0.36440  0.39160  1.0000 -0.1093154756
C   C89       1.0  0.89353  0.29650  0.38703  1.0000 0.5673035854
C   C90       1.0  0.56461  0.44310  0.33201  1.0000 -0.1800302788
C   C91       1.0  0.04141  0.47940  0.08571  1.0000 -0.1800302788
C   C92       1.0  0.49166  0.27220  0.28546  1.0000 -0.1800302788
C   C93       1.0  0.10274  0.49870  0.42176  1.0000 -0.1191014838
C   C94       1.0  0.00669  0.78820  0.28709  1.0000 -0.1723974286
C   C95       1.0  0.94902  0.44230  0.03402  1.0000 0.0796838705
C   C96       1.0  0.60592  0.98370  0.41970  1.0000 -0.1294719318
C   C97       1.0  0.58536  0.22720  0.32706  1.0000 0.0904879478
C   C98       1.0  0.10032  0.74590  0.33252  1.0000 0.0994259526
C   C99       1.0  0.50560  0.83840  0.36130  1.0000 -0.1294719318
C   C100      1.0  0.45386  0.93350  0.03736  1.0000 0.0904879478
C   C101      1.0  0.01430  0.34850  0.36100  1.0000 -0.1294719318
C   C102      1.0  0.54748  0.97510  0.08568  1.0000 -0.1800302788
C   C103      1.0  0.58117  0.91100  0.37367  1.0000 -0.1093154756
C   C104      1.0  0.10568  0.30200  0.09758  1.0000 -0.1605549357
C   C105      1.0  0.01152  0.27140  0.04562  1.0000 0.0904879478
C   C106      1.0  0.08872  0.42610  0.37802  1.0000 -0.1191014838
C   C107      1.0  0.51180  0.76010  0.06630  1.0000 0.0904879478
C   C108      1.0  0.60652  0.79520  0.11512  1.0000 -0.1605549357
C   C109      1.0  0.32129  0.57440  0.05539  1.0000 0.5673035854
C   C110      1.0  0.11435  0.43820  0.25489  1.0000 0.2309707445
C   C111      1.0  0.01186  0.39610  0.20943  1.0000 0.0904879478
C   C112      1.0  0.62070  0.93010  0.25509  1.0000 0.2309707445
C   C113      1.0  0.87780  0.90850  0.38193  1.0000 0.0796838705
C   C114      1.0  0.77517  0.93870  0.32840  1.0000 0.2626324133
C   C115      1.0  0.82549  0.09050  0.04859  1.0000 0.5673035854
C   C116      1.0  0.26990  0.43920  0.32605  1.0000 0.2626324133
C   C117      1.0  0.51984  0.88300  0.21134  1.0000 0.0904879478
C   C118      1.0  0.37378  0.40470  0.37558  1.0000 0.0727693182
C   C119      1.0  0.93228  0.45890  0.16198  1.0000 -0.1800302788
C   C120      1.0  0.52465  0.35760  0.10135  1.0000 -0.1093154756
C   C121      1.0  0.83974  0.40990  0.11804  1.0000 0.0994259526
C   C122      1.0  0.59854  0.29680  0.09834  1.0000 0.5673035854
C   C123      1.0  0.34383  0.89150  0.12793  1.0000 0.0994259526
C   C124      1.0  0.02810  0.86440  0.10840  1.0000 -0.1093154756
C   C125      1.0  0.10647  0.79650  0.11297  1.0000 0.5673035854
C   C126      1.0  0.43539  0.94310  0.16799  1.0000 -0.1800302788
C   C127      1.0  0.95859  0.97940  0.41429  1.0000 -0.1800302788
C   C128      1.0  0.50834  0.77220  0.21454  1.0000 -0.1800302788
C   C129      1.0  0.89726  0.99870  0.07824  1.0000 -0.1191014838
C   C130      1.0  0.99331  0.28820  0.21291  1.0000 -0.1723974286
C   C131      1.0  0.05098  0.94230  0.46598  1.0000 0.0796838705
C   C132      1.0  0.39408  0.48370  0.08030  1.0000 -0.1294719318
C   C133      1.0  0.41464  0.72720  0.17294  1.0000 0.0904879478
C   C134      1.0  0.89968  0.24590  0.16748  1.0000 0.0994259526
C   C135      1.0  0.49440  0.33840  0.13870  1.0000 -0.1294719318
C   C136      1.0  0.54614  0.43350  0.46264  1.0000 0.0904879478
C   C137      1.0  0.98570  0.84850  0.13900  1.0000 -0.1294719318
C   C138      1.0  0.45252  0.47510  0.41432  1.0000 -0.1800302788
C   C139      1.0  0.41883  0.41100  0.12633  1.0000 -0.1093154756
C   C140      1.0  0.89432  0.80200  0.40242  1.0000 -0.1605549357
C   C141      1.0  0.98848  0.77140  0.45438  1.0000 0.0994259526
C   C142      1.0  0.91128  0.92610  0.12198  1.0000 -0.1191014838
C   C143      1.0  0.48820  0.26010  0.43370  1.0000 0.0904879478
C   C144      1.0  0.39348  0.29520  0.38488  1.0000 -0.1605549357
S   S1        1.0  0.46195  0.03513  0.55139  1.0000 0.1598385831
S   S2        1.0  0.97637  0.52690  0.55816  1.0000 0.1598385831
S   S3        1.0  0.53805  0.53513  0.94861  1.0000 0.1598385831
S   S4        1.0  0.02363  0.02690  0.94184  1.0000 0.1528700651
S   S5        1.0  0.53805  0.96487  0.44861  1.0000 0.1598385831
S   S6        1.0  0.02363  0.47310  0.44184  1.0000 0.1528700651
S   S7        1.0  0.46195  0.46487  0.05139  1.0000 0.1598385831
S   S8        1.0  0.97637  0.97310  0.05816  1.0000 0.1598385831
N   N1        1.0  0.74117  0.46180  0.80492  1.0000 -0.1191014838
N   N2        1.0  0.06651  0.65970  0.98666  1.0000 -0.2258994705
N   N3        1.0  0.33295  0.71500  0.62885  1.0000 -0.2199153554
N   N4        1.0  0.82431  0.19570  0.61974  1.0000 -0.2199153554
N   N5        1.0  0.56384  0.17170  0.97351  1.0000 -0.2199153554
N   N6        1.0  0.70085  0.63190  0.79756  1.0000 -0.4177773087
N   N7        1.0  0.23747  0.95890  0.80908  1.0000 -0.1191014838
N   N8        1.0  0.64062  0.46520  0.75715  1.0000 -0.2557527511
N   N9        1.0  0.13697  0.95730  0.76297  1.0000 -0.2500467786
N   N10       1.0  0.19357  0.12860  0.79252  1.0000 -0.4177773087
N   N11       1.0  0.25883  0.96180  0.69508  1.0000 -0.1191014838
N   N12       1.0  0.93349  0.15970  0.51334  1.0000 -0.2258994705
N   N13       1.0  0.66705  0.21500  0.87115  1.0000 -0.2199153554
N   N14       1.0  0.17569  0.69570  0.88026  1.0000 -0.2199153554
N   N15       1.0  0.43616  0.67170  0.52649  1.0000 -0.2199153554
N   N16       1.0  0.29915  0.13190  0.70244  1.0000 -0.4177773087
N   N17       1.0  0.76253  0.45890  0.69092  1.0000 -0.1191014838
N   N18       1.0  0.35938  0.96520  0.74285  1.0000 -0.2500467786
N   N19       1.0  0.86303  0.45730  0.73703  1.0000 -0.2500467786
N   N20       1.0  0.80643  0.62860  0.70748  1.0000 -0.4177773087
N   N21       1.0  0.25883  0.53820  0.19508  1.0000 -0.1191014838
N   N22       1.0  0.93349  0.34030  0.01334  1.0000 -0.2258994705
N   N23       1.0  0.66705  0.28500  0.37115  1.0000 -0.2199153554
N   N24       1.0  0.17569  0.80430  0.38026  1.0000 -0.2199153554
N   N25       1.0  0.43616  0.82830  0.02649  1.0000 -0.2199153554
N   N26       1.0  0.29915  0.36810  0.20244  1.0000 -0.4177773087
N   N27       1.0  0.76253  0.04110  0.19092  1.0000 -0.1191014838
N   N28       1.0  0.35938  0.53480  0.24285  1.0000 -0.2557527511
N   N29       1.0  0.86303  0.04270  0.23703  1.0000 -0.2500467786
N   N30       1.0  0.80643  0.87140  0.20748  1.0000 -0.4177773087
N   N31       1.0  0.74117  0.03820  0.30492  1.0000 -0.1191014838
N   N32       1.0  0.06651  0.84030  0.48666  1.0000 -0.2258994705
N   N33       1.0  0.33295  0.78500  0.12885  1.0000 -0.2199153554
N   N34       1.0  0.82431  0.30430  0.11974  1.0000 -0.2199153554
N   N35       1.0  0.56384  0.32830  0.47351  1.0000 -0.2199153554
N   N36       1.0  0.70085  0.86810  0.29756  1.0000 -0.4177773087
N   N37       1.0  0.23747  0.54110  0.30908  1.0000 -0.1191014838
N   N38       1.0  0.64062  0.03480  0.25715  1.0000 -0.2500467786
N   N39       1.0  0.13697  0.54270  0.26297  1.0000 -0.2500467786
N   N40       1.0  0.19357  0.37140  0.29252  1.0000 -0.4177773087
O   O1        1.0  0.12897  0.67510  0.57654  1.0000 -0.5507992938
O   O2        1.0  0.61594  0.16476  0.56113  1.0000 -0.5507992938
O   O3        1.0  0.76492  0.40200  0.56333  1.0000 -0.5602195394
O   O4        1.0  0.26653  0.92140  0.57471  1.0000 -0.5507992938
O   O5        1.0  0.31975  0.85940  0.51991  1.0000 -0.5824871301
O   O6        1.0  0.82877  0.34850  0.51319  1.0000 -0.5704969554
O   O7        1.0  0.63600  0.28640  0.63034  1.0000 -0.5704969554
O   O8        1.0  0.14089  0.78190  0.64946  1.0000 -0.5602195394
O   O9        1.0  0.87103  0.17510  0.92346  1.0000 -0.5507992938
O   O10       1.0  0.38406  0.66476  0.93887  1.0000 -0.5507992938
O   O11       1.0  0.23508  0.90200  0.93667  1.0000 -0.5602195394
O   O12       1.0  0.73347  0.42140  0.92529  1.0000 -0.5507992938
O   O13       1.0  0.68025  0.35940  0.98009  1.0000 -0.5824871301
O   O14       1.0  0.17123  0.84850  0.98681  1.0000 -0.5704969554
O   O15       1.0  0.36400  0.78640  0.86966  1.0000 -0.5704969554
O   O16       1.0  0.85911  0.28190  0.85054  1.0000 -0.5602195394
O   O17       1.0  0.87103  0.32490  0.42346  1.0000 -0.5507992938
O   O18       1.0  0.38406  0.83524  0.43887  1.0000 -0.5507992938
O   O19       1.0  0.23508  0.59800  0.43667  1.0000 -0.5602195394
O   O20       1.0  0.73347  0.07860  0.42529  1.0000 -0.5507992938
O   O21       1.0  0.68025  0.14060  0.48009  1.0000 -0.5824871301
O   O22       1.0  0.17123  0.65150  0.48681  1.0000 -0.5704969554
O   O23       1.0  0.36400  0.71360  0.36966  1.0000 -0.5704969554
O   O24       1.0  0.85911  0.21810  0.35054  1.0000 -0.5602195394
O   O25       1.0  0.12897  0.82490  0.07654  1.0000 -0.5507992938
O   O26       1.0  0.61594  0.33524  0.06113  1.0000 -0.5507992938
O   O27       1.0  0.76492  0.09800  0.06333  1.0000 -0.5507992938
O   O28       1.0  0.26653  0.57860  0.07471  1.0000 -0.5507992938
O   O29       1.0  0.31975  0.64060  0.01991  1.0000 -0.5824871301
O   O30       1.0  0.82877  0.15150  0.01319  1.0000 -0.5704969554
O   O31       1.0  0.63600  0.21360  0.13034  1.0000 -0.5704969554
O   O32       1.0  0.14089  0.71810  0.14946  1.0000 -0.5602195394
