# DDEC6 charges by PACMAN v1.1 (https://github.com/mtap-research/PACMAN-charge/)
data_2017[Ag][hcb]2[ASR]21
_chemical_formula_sum              "Ag2 H42 C54 N6 O12"
_cell_length_a       9.3691
_cell_length_b       12.9238
_cell_length_c       15.6794
_cell_angle_alpha    109.44
_cell_angle_beta     93.852
_cell_angle_gamma    103.672

_symmetry_space_group_name_H-M    "P 1"
_symmetry_Int_Tables_number       1

loop_
  _symmetry_equiv_pos_as_xyz
  'x, y, z'

loop_
  _atom_site_type_symbol
  _atom_site_label
  _atom_site_symmetry_multiplicity
  _atom_site_fract_x
  _atom_site_fract_y
  _atom_site_fract_z
  _atom_site_occupancy
  _atom_site_charge
Ag  Ag1       1.0  0.25945  0.08364  0.71156  1.0000 0.2241840171
Ag  Ag2       1.0  0.74055  0.91636  0.28844  1.0000 0.2241840171
H   H1        1.0  0.22980  0.00760  0.49580  1.0000 0.091135125
H   H2        1.0  0.29480  0.88860  0.36910  1.0000 0.1314810174
H   H3        1.0  0.49090  0.76210  0.53470  1.0000 0.1314810174
H   H4        1.0  0.42300  0.88710  0.65750  1.0000 0.1010433215
H   H5        1.0  0.43450  0.51750  0.25950  1.0000 0.1186165895
H   H6        1.0  0.58480  0.60660  0.25720  1.0000 0.1010433215
H   H7        1.0  0.20510  0.04600  0.89710  1.0000 0.091135125
H   H8        1.0  0.31980  0.07520  0.04250  1.0000 0.1314810174
H   H9        1.0  0.70740  0.21320  0.97700  1.0000 0.1314810174
H   H10       1.0  0.57870  0.18130  0.83100  1.0000 0.1010433215
H   H11       1.0  0.79550  0.20610  0.24740  1.0000 0.091135125
H   H12       1.0  0.91730  0.30470  0.23080  1.0000 0.111435061
H   H13       1.0  0.14540  0.17210  0.55880  1.0000 0.091135125
H   H14       1.0  0.01450  0.29420  0.53630  1.0000 0.1186165895
H   H15       1.0  0.97510  0.39240  0.80390  1.0000 0.140426855
H   H16       1.0  0.10480  0.26780  0.81880  1.0000 0.1010433215
H   H17       1.0  0.69330  0.49730  0.58320  1.0000 0.1010433215
H   H18       1.0  0.84830  0.58180  0.58160  1.0000 0.111435061
H   H19       1.0  0.62480  0.58720  0.46790  1.0000 0.111435061
H   H20       1.0  0.64120  0.40880  0.20510  1.0000 0.1186165895
H   H21       1.0  0.84810  0.34520  0.40940  1.0000 0.1186165895
H   H22       1.0  0.77020  0.99240  0.50420  1.0000 0.091135125
H   H23       1.0  0.70520  0.11140  0.63090  1.0000 0.1314810174
H   H24       1.0  0.50910  0.23790  0.46530  1.0000 0.1314810174
H   H25       1.0  0.57700  0.11290  0.34250  1.0000 0.1010433215
H   H26       1.0  0.56550  0.48250  0.74050  1.0000 0.1186165895
H   H27       1.0  0.41520  0.39340  0.74280  1.0000 0.1010433215
H   H28       1.0  0.79490  0.95400  0.10290  1.0000 0.091135125
H   H29       1.0  0.68020  0.92480  0.95750  1.0000 0.1314810174
H   H30       1.0  0.29260  0.78680  0.02300  1.0000 0.1314810174
H   H31       1.0  0.42130  0.81870  0.16900  1.0000 0.1010433215
H   H32       1.0  0.20450  0.79390  0.75260  1.0000 0.091135125
H   H33       1.0  0.08270  0.69530  0.76920  1.0000 0.111435061
H   H34       1.0  0.85460  0.82790  0.44120  1.0000 0.091135125
H   H35       1.0  0.98550  0.70580  0.46370  1.0000 0.1186165895
H   H36       1.0  0.02490  0.60760  0.19610  1.0000 0.140426855
H   H37       1.0  0.89520  0.73220  0.18120  1.0000 0.1010433215
H   H38       1.0  0.30670  0.50270  0.41680  1.0000 0.1010433215
H   H39       1.0  0.15170  0.41820  0.41840  1.0000 0.111435061
H   H40       1.0  0.37520  0.41280  0.53210  1.0000 0.111435061
H   H41       1.0  0.35880  0.59120  0.79490  1.0000 0.1186165895
H   H42       1.0  0.15190  0.65480  0.59060  1.0000 0.111435061
C   C1        1.0  0.28430  0.95710  0.50350  1.0000 0.0292988991
C   C2        1.0  0.32180  0.88630  0.42780  1.0000 -0.1697765334
C   C3        1.0  0.39920  0.81110  0.43710  1.0000 -0.0042987471
C   C4        1.0  0.43740  0.81230  0.52530  1.0000 -0.1805580375
C   C5        1.0  0.39640  0.88670  0.59780  1.0000 0.0542060019
C   C6        1.0  0.43510  0.73070  0.35430  1.0000 0.4789521204
C   C7        1.0  0.52950  0.57100  0.29660  1.0000 -0.0842827322
C   C8        1.0  0.30910  0.08160  0.91350  1.0000 0.0292988991
C   C9        1.0  0.37570  0.09890  0.00060  1.0000 -0.1630753918
C   C10       1.0  0.52310  0.15060  0.02360  1.0000 0.0042042797
C   C11       1.0  0.60280  0.18000  0.96210  1.0000 -0.1697765334
C   C12       1.0  0.52480  0.15950  0.87440  1.0000 0.0832662092
C   C13       1.0  0.60010  0.17200  0.11950  1.0000 0.4969053375
C   C14       1.0  0.80950  0.27380  0.22920  1.0000 -0.0950261695
C   C15       1.0  0.11070  0.21810  0.60950  1.0000 0.0292988991
C   C16       1.0  0.03290  0.29050  0.59540  1.0000 -0.1697765334
C   C17       1.0  0.98260  0.35690  0.66770  1.0000 0.0042042797
C   C18       1.0  0.00980  0.34790  0.75240  1.0000 -0.1697765334
C   C19       1.0  0.08730  0.27380  0.76050  1.0000 0.0445370128
C   C20       1.0  0.89760  0.43800  0.65880  1.0000 0.4919110643
C   C21       1.0  0.78440  0.50220  0.55440  1.0000 -0.0842827322
C   C22       1.0  0.74370  0.47010  0.45340  1.0000 0.1010433215
C   C23       1.0  0.65740  0.53050  0.42410  1.0000 -0.2281081272
C   C24       1.0  0.61950  0.50790  0.33180  1.0000 0.1010433215
C   C25       1.0  0.66720  0.42450  0.26870  1.0000 -0.2125544665
C   C26       1.0  0.75240  0.36310  0.29640  1.0000 0.1010433215
C   C27       1.0  0.79020  0.38660  0.38950  1.0000 -0.2153415276
C   C28       1.0  0.71570  0.04290  0.49650  1.0000 0.0292988991
C   C29       1.0  0.67820  0.11370  0.57220  1.0000 -0.1697765334
C   C30       1.0  0.60080  0.18890  0.56290  1.0000 -0.0042987471
C   C31       1.0  0.56260  0.18770  0.47470  1.0000 -0.1805580375
C   C32       1.0  0.60360  0.11330  0.40220  1.0000 0.0542060019
C   C33       1.0  0.56490  0.26930  0.64570  1.0000 0.4789521204
C   C34       1.0  0.47050  0.42900  0.70340  1.0000 -0.0842827322
C   C35       1.0  0.69090  0.91840  0.08650  1.0000 0.0292988991
C   C36       1.0  0.62430  0.90110  0.99940  1.0000 -0.1630753918
C   C37       1.0  0.47690  0.84940  0.97640  1.0000 0.0042042797
C   C38       1.0  0.39720  0.82000  0.03790  1.0000 -0.1697765334
C   C39       1.0  0.47520  0.84050  0.12560  1.0000 0.0832662092
C   C40       1.0  0.39990  0.82800  0.88050  1.0000 0.4969053375
C   C41       1.0  0.19050  0.72620  0.77080  1.0000 -0.094317068
C   C42       1.0  0.88930  0.78190  0.39050  1.0000 0.0292988991
C   C43       1.0  0.96710  0.70950  0.40460  1.0000 -0.1697765334
C   C44       1.0  0.01740  0.64310  0.33230  1.0000 0.0042042797
C   C45       1.0  0.99020  0.65210  0.24760  1.0000 -0.1697765334
C   C46       1.0  0.91270  0.72620  0.23950  1.0000 0.0445370128
C   C47       1.0  0.10240  0.56200  0.34120  1.0000 0.4919110643
C   C48       1.0  0.21560  0.49780  0.44560  1.0000 -0.0842827322
C   C49       1.0  0.25630  0.52990  0.54660  1.0000 0.1010433215
C   C50       1.0  0.34260  0.46950  0.57590  1.0000 -0.2281081272
C   C51       1.0  0.38050  0.49210  0.66820  1.0000 0.1010433215
C   C52       1.0  0.33280  0.57550  0.73130  1.0000 -0.2125544665
C   C53       1.0  0.24760  0.63690  0.70360  1.0000 0.1010433215
C   C54       1.0  0.20980  0.61340  0.61050  1.0000 -0.2153415276
N   N1        1.0  0.32080  0.95900  0.58860  1.0000 -0.1982196947
N   N2        1.0  0.38100  0.11160  0.85140  1.0000 -0.1982196947
N   N3        1.0  0.13980  0.20950  0.69170  1.0000 -0.1933170153
N   N4        1.0  0.67920  0.04100  0.41140  1.0000 -0.1982196947
N   N5        1.0  0.61900  0.88840  0.14860  1.0000 -0.1982196947
N   N6        1.0  0.86020  0.79050  0.30830  1.0000 -0.1933170153
O   O1        1.0  0.40650  0.72970  0.27850  1.0000 -0.4699999211
O   O2        1.0  0.50040  0.65790  0.37370  1.0000 -0.2281081272
O   O3        1.0  0.54210  0.13080  0.17060  1.0000 -0.4699999211
O   O4        1.0  0.73160  0.23980  0.13680  1.0000 -0.2281081272
O   O5        1.0  0.86620  0.50680  0.72150  1.0000 -0.4543256504
O   O6        1.0  0.86290  0.42570  0.57150  1.0000 -0.2281081272
O   O7        1.0  0.59350  0.27030  0.72150  1.0000 -0.4699999211
O   O8        1.0  0.49960  0.34210  0.62630  1.0000 -0.2281081272
O   O9        1.0  0.45790  0.86920  0.82940  1.0000 -0.4699999211
O   O10       1.0  0.26840  0.76020  0.86320  1.0000 -0.2281081272
O   O11       1.0  0.13380  0.49320  0.27850  1.0000 -0.4543256504
O   O12       1.0  0.13710  0.57430  0.42850  1.0000 -0.2281081272
