# DDEC6 charges by PACMAN v1.1 (https://github.com/mtap-research/PACMAN-charge/)
data_2017[Cu][nan]3[ASR]13
_chemical_formula_sum              "Cu8 H36 C84 N4 O32"
_cell_length_a       19.5342
_cell_length_b       19.5342
_cell_length_c       19.5342
_cell_angle_alpha    138.522
_cell_angle_beta     116.468
_cell_angle_gamma    78.7602

_symmetry_space_group_name_H-M    "P 1"
_symmetry_Int_Tables_number       1

loop_
  _symmetry_equiv_pos_as_xyz
  'x, y, z'

loop_
  _atom_site_type_symbol
  _atom_site_label
  _atom_site_symmetry_multiplicity
  _atom_site_fract_x
  _atom_site_fract_y
  _atom_site_fract_z
  _atom_site_occupancy
  _atom_site_charge
Cu  Cu1       1.0  0.92513  0.17513  0.75000  1.0000 0.8625771322
Cu  Cu2       1.0  0.83680  0.08680  0.75000  1.0000 0.8731750666
Cu  Cu3       1.0  0.07487  0.82487  0.25000  1.0000 0.8625771322
Cu  Cu4       1.0  0.16320  0.91320  0.25000  1.0000 0.8731750666
Cu  Cu5       1.0  0.55221  0.48951  0.06270  1.0000 0.8625771322
Cu  Cu6       1.0  0.92681  0.48951  0.43730  1.0000 0.8625771322
Cu  Cu7       1.0  0.07319  0.51049  0.56270  1.0000 0.8625771322
Cu  Cu8       1.0  0.44779  0.51049  0.93730  1.0000 0.8625771322
H   H1        1.0  0.68230  0.82370  0.36620  1.0000 0.141706091
H   H2        1.0  0.58620  0.79250  0.11190  1.0000 0.1302722363
H   H3        1.0  0.77100  0.03550  0.41650  1.0000 0.1302722363
H   H4        1.0  0.56170  0.92890  0.12440  1.0000 0.1302722363
H   H5        1.0  0.95750  0.31610  0.13380  1.0000 0.141706091
H   H6        1.0  0.18060  0.47430  0.38810  1.0000 0.1247194378
H   H7        1.0  0.11900  0.35450  0.08350  1.0000 0.1302722363
H   H8        1.0  0.30450  0.43730  0.37560  1.0000 0.1302722363
H   H9        1.0  0.04250  0.17630  0.35860  1.0000 0.141706091
H   H10       1.0  0.81940  0.20750  0.29370  1.0000 0.1247194378
H   H11       1.0  0.88100  0.96450  0.23550  1.0000 0.1302722363
H   H12       1.0  0.69550  0.07110  0.13280  1.0000 0.1302722363
H   H13       1.0  0.31770  0.68390  0.14140  1.0000 0.141706091
H   H14       1.0  0.41380  0.52570  0.20630  1.0000 0.1247194378
H   H15       1.0  0.22900  0.64550  0.26450  1.0000 0.1302722363
H   H16       1.0  0.43830  0.56270  0.36720  1.0000 0.1302722363
H   H17       1.0  0.31770  0.17630  0.63380  1.0000 0.141706091
H   H18       1.0  0.41380  0.20750  0.88810  1.0000 0.1302722363
H   H19       1.0  0.22900  0.96450  0.58350  1.0000 0.1302722363
H   H20       1.0  0.43830  0.07110  0.87560  1.0000 0.1302722363
H   H21       1.0  0.04250  0.68390  0.86620  1.0000 0.141706091
H   H22       1.0  0.81940  0.52570  0.61190  1.0000 0.1247194378
H   H23       1.0  0.88100  0.64550  0.91650  1.0000 0.1302722363
H   H24       1.0  0.69550  0.56270  0.62440  1.0000 0.1302722363
H   H25       1.0  0.95750  0.82370  0.64140  1.0000 0.141706091
H   H26       1.0  0.18060  0.79250  0.70630  1.0000 0.1247194378
H   H27       1.0  0.11900  0.03550  0.76450  1.0000 0.1302722363
H   H28       1.0  0.30450  0.92890  0.86720  1.0000 0.1302722363
H   H29       1.0  0.68230  0.31610  0.85860  1.0000 0.141706091
H   H30       1.0  0.58620  0.47430  0.79370  1.0000 0.1247194378
H   H31       1.0  0.77100  0.35450  0.73550  1.0000 0.1302722363
H   H32       1.0  0.56170  0.43730  0.63280  1.0000 0.1302722363
H   H33       1.0  0.57030  0.00000  0.07030  1.0000 0.1068301356
H   H34       1.0  0.42970  0.50000  0.42970  1.0000 0.1068301356
H   H35       1.0  0.42970  0.00000  0.92970  1.0000 0.1068301356
H   H36       1.0  0.57030  0.50000  0.57030  1.0000 0.1068301356
C   C1        1.0  0.79205  0.00605  0.53460  1.0000 0.5845307698
C   C2        1.0  0.73571  0.94141  0.41210  1.0000 -0.0273903577
C   C3        1.0  0.68164  0.84734  0.33870  1.0000 -0.0894412225
C   C4        1.0  0.62801  0.79091  0.22610  1.0000 -0.0233266897
C   C5        1.0  0.62461  0.82831  0.18590  1.0000 -0.1435351347
C   C6        1.0  0.67958  0.92078  0.25800  1.0000 0.0366210356
C   C7        1.0  0.73440  0.97520  0.36940  1.0000 -0.1065409662
C   C8        1.0  0.57590  0.68570  0.14320  1.0000 0.5881226082
C   C9        1.0  0.67900  0.95930  0.21430  1.0000 0.2160198434
C   C10       1.0  0.61031  0.95751  0.14760  1.0000 -0.2111543094
C   C11       1.0  0.97145  0.25745  0.96540  1.0000 0.5845307698
C   C12       1.0  0.02931  0.32361  0.08790  1.0000 -0.0273903577
C   C13       1.0  0.00864  0.34294  0.16130  1.0000 -0.0894412225
C   C14       1.0  0.06481  0.40191  0.27390  1.0000 -0.0233266897
C   C15       1.0  0.14241  0.43871  0.31410  1.0000 -0.1435351347
C   C16       1.0  0.16278  0.42158  0.24200  1.0000 0.0366210356
C   C17       1.0  0.10580  0.36500  0.13060  1.0000 -0.1065409662
C   C18       1.0  0.04250  0.43270  0.35680  1.0000 0.5881226082
C   C19       1.0  0.24500  0.46470  0.28570  1.0000 0.2160198434
C   C20       1.0  0.30991  0.46271  0.35240  1.0000 -0.2111543094
C   C21       1.0  0.02855  0.99395  0.28600  1.0000 0.5845307698
C   C22       1.0  0.97069  0.05859  0.29430  1.0000 -0.0273903577
C   C23       1.0  0.99136  0.15266  0.33430  1.0000 -0.0894412225
C   C24       1.0  0.93519  0.20909  0.33710  1.0000 -0.0233266897
C   C25       1.0  0.85759  0.17169  0.29630  1.0000 -0.1435351347
C   C26       1.0  0.83722  0.07922  0.25880  1.0000 0.0366210356
C   C27       1.0  0.89420  0.02480  0.25920  1.0000 -0.1065409662
C   C28       1.0  0.95750  0.31430  0.39020  1.0000 0.5881226082
C   C29       1.0  0.75500  0.04070  0.21970  1.0000 0.2160198434
C   C30       1.0  0.69009  0.04249  0.15280  1.0000 -0.2111543094
C   C31       1.0  0.20795  0.74255  0.21400  1.0000 0.5881226082
C   C32       1.0  0.26429  0.67639  0.20570  1.0000 -0.0273903577
C   C33       1.0  0.31836  0.65706  0.16570  1.0000 -0.0894412225
C   C34       1.0  0.37199  0.59809  0.16290  1.0000 -0.0233266897
C   C35       1.0  0.37539  0.56129  0.20370  1.0000 -0.1435351347
C   C36       1.0  0.32042  0.57842  0.24120  1.0000 0.0366210356
C   C37       1.0  0.26560  0.63500  0.24080  1.0000 -0.1065409662
C   C38       1.0  0.42410  0.56730  0.10980  1.0000 0.5881226082
C   C39       1.0  0.32100  0.53530  0.28030  1.0000 0.2160198434
C   C40       1.0  0.38969  0.53729  0.34720  1.0000 -0.2111543094
C   C41       1.0  0.20795  0.99395  0.46540  1.0000 0.5845307698
C   C42       1.0  0.26429  0.05859  0.58790  1.0000 -0.0273903577
C   C43       1.0  0.31836  0.15266  0.66130  1.0000 -0.0894412225
C   C44       1.0  0.37199  0.20909  0.77390  1.0000 -0.0233266897
C   C45       1.0  0.37539  0.17169  0.81410  1.0000 -0.1435351347
C   C46       1.0  0.32042  0.07922  0.74200  1.0000 0.0366210356
C   C47       1.0  0.26560  0.02480  0.63060  1.0000 -0.1065409662
C   C48       1.0  0.42410  0.31430  0.85680  1.0000 0.5881226082
C   C49       1.0  0.32100  0.04070  0.78570  1.0000 0.2160198434
C   C50       1.0  0.38969  0.04249  0.85240  1.0000 -0.2111543094
C   C51       1.0  0.02855  0.74255  0.03460  1.0000 0.5845307698
C   C52       1.0  0.97069  0.67639  0.91210  1.0000 -0.0273903577
C   C53       1.0  0.99136  0.65706  0.83870  1.0000 -0.0894412225
C   C54       1.0  0.93519  0.59809  0.72610  1.0000 -0.0233266897
C   C55       1.0  0.85759  0.56129  0.68590  1.0000 -0.1435351347
C   C56       1.0  0.83722  0.57842  0.75800  1.0000 0.0366210356
C   C57       1.0  0.89420  0.63500  0.86940  1.0000 -0.1065409662
C   C58       1.0  0.95750  0.56730  0.64320  1.0000 0.5881226082
C   C59       1.0  0.75500  0.53530  0.71430  1.0000 0.2160198434
C   C60       1.0  0.69009  0.53729  0.64760  1.0000 -0.2111543094
C   C61       1.0  0.97145  0.00605  0.71400  1.0000 0.5845307698
C   C62       1.0  0.02931  0.94141  0.70570  1.0000 -0.0273903577
C   C63       1.0  0.00864  0.84734  0.66570  1.0000 -0.0894412225
C   C64       1.0  0.06481  0.79091  0.66290  1.0000 -0.0233266897
C   C65       1.0  0.14241  0.82831  0.70370  1.0000 -0.1435351347
C   C66       1.0  0.16278  0.92078  0.74120  1.0000 0.0366210356
C   C67       1.0  0.10580  0.97520  0.74080  1.0000 -0.1065409662
C   C68       1.0  0.04250  0.68570  0.60980  1.0000 0.5881226082
C   C69       1.0  0.24500  0.95930  0.78030  1.0000 0.2160198434
C   C70       1.0  0.30991  0.95751  0.84720  1.0000 -0.2111543094
C   C71       1.0  0.79205  0.25745  0.78600  1.0000 0.5845307698
C   C72       1.0  0.73571  0.32361  0.79430  1.0000 -0.0273903577
C   C73       1.0  0.68164  0.34294  0.83430  1.0000 -0.0894412225
C   C74       1.0  0.62801  0.40191  0.83710  1.0000 -0.0233266897
C   C75       1.0  0.62461  0.43871  0.79630  1.0000 -0.1435351347
C   C76       1.0  0.67958  0.42158  0.75880  1.0000 0.0366210356
C   C77       1.0  0.73440  0.36500  0.75920  1.0000 -0.1065409662
C   C78       1.0  0.57590  0.43270  0.89020  1.0000 0.5881226082
C   C79       1.0  0.67900  0.46470  0.71970  1.0000 0.2160198434
C   C80       1.0  0.61031  0.46271  0.65280  1.0000 -0.2111543094
C   C81       1.0  0.61550  0.00000  0.11550  1.0000 -0.0418337317
C   C82       1.0  0.38450  0.50000  0.38450  1.0000 -0.0418337317
C   C83       1.0  0.38450  0.00000  0.88450  1.0000 -0.0418337317
C   C84       1.0  0.61550  0.50000  0.61550  1.0000 -0.0418337317
N   N1        1.0  0.74970  0.00000  0.24970  1.0000 -0.3163140969
N   N2        1.0  0.25030  0.50000  0.25030  1.0000 -0.3163140969
N   N3        1.0  0.25030  0.00000  0.75030  1.0000 -0.3163140969
N   N4        1.0  0.74970  0.50000  0.74970  1.0000 -0.3163140969
O   O1        1.0  0.85059  0.07015  0.58304  1.0000 -0.5211611943
O   O2        1.0  0.77573  0.99438  0.58255  1.0000 -0.5302990408
O   O3        1.0  0.60102  0.63687  0.16655  1.0000 -0.5302990408
O   O4        1.0  0.51400  0.65260  0.05700  1.0000 -0.5105212511
O   O5        1.0  0.98711  0.26755  0.91696  1.0000 -0.5211611943
O   O6        1.0  0.91183  0.19318  0.91745  1.0000 -0.5302990408
O   O7        1.0  0.97032  0.43447  0.33345  1.0000 -0.5302990408
O   O8        1.0  0.09560  0.45700  0.44300  1.0000 -0.5105212511
O   O9        1.0  0.01289  0.92985  0.28044  1.0000 -0.5211611943
O   O10       1.0  0.08817  0.00562  0.28135  1.0000 -0.5302990408
O   O11       1.0  0.02968  0.36313  0.46415  1.0000 -0.5302990408
O   O12       1.0  0.90440  0.34740  0.36140  1.0000 -0.5105212511
O   O13       1.0  0.14941  0.73245  0.21956  1.0000 -0.5211611943
O   O14       1.0  0.22427  0.80682  0.21865  1.0000 -0.5302990408
O   O15       1.0  0.39898  0.56553  0.03585  1.0000 -0.5302990408
O   O16       1.0  0.48600  0.54300  0.13860  1.0000 -0.5105212511
O   O17       1.0  0.14941  0.92985  0.41696  1.0000 -0.5211611943
O   O18       1.0  0.22427  0.00562  0.41745  1.0000 -0.5302990408
O   O19       1.0  0.39898  0.36313  0.83345  1.0000 -0.5302990408
O   O20       1.0  0.48600  0.34740  0.94300  1.0000 -0.5105212511
O   O21       1.0  0.01289  0.73245  0.08304  1.0000 -0.5211611943
O   O22       1.0  0.08817  0.80682  0.08255  1.0000 -0.5302990408
O   O23       1.0  0.02968  0.56553  0.66655  1.0000 -0.5302990408
O   O24       1.0  0.90440  0.54300  0.55700  1.0000 -0.5105212511
O   O25       1.0  0.98711  0.07015  0.71956  1.0000 -0.5211611943
O   O26       1.0  0.91183  0.99438  0.71865  1.0000 -0.5302990408
O   O27       1.0  0.97032  0.63687  0.53585  1.0000 -0.5302990408
O   O28       1.0  0.09560  0.65260  0.63860  1.0000 -0.5105212511
O   O29       1.0  0.85059  0.26755  0.78044  1.0000 -0.5211611943
O   O30       1.0  0.77573  0.19318  0.78135  1.0000 -0.5302990408
O   O31       1.0  0.60102  0.43447  0.96415  1.0000 -0.5302990408
O   O32       1.0  0.51400  0.45700  0.86140  1.0000 -0.5105212511
