# DDEC6 charges by PACMAN v1.1 (https://github.com/mtap-research/PACMAN-charge/)
data_2017[SiMn][nan]3[ASR]1
_chemical_formula_sum              "Mn9 Si6 H96 C168 O48"
_cell_length_a       13.736
_cell_length_b       22.64
_cell_length_c       23.01
_cell_angle_alpha    114.974
_cell_angle_beta     104.882
_cell_angle_gamma    87.591

_symmetry_space_group_name_H-M    "P 1"
_symmetry_Int_Tables_number       1

loop_
  _symmetry_equiv_pos_as_xyz
  'x, y, z'

loop_
  _atom_site_type_symbol
  _atom_site_label
  _atom_site_symmetry_multiplicity
  _atom_site_fract_x
  _atom_site_fract_y
  _atom_site_fract_z
  _atom_site_occupancy
  _atom_site_charge
Mn  Mn1       1.0  0.95644  0.24855  0.34270  1.0000 0.9680039875
Mn  Mn2       1.0  0.04356  0.75145  0.65730  1.0000 0.9680039875
Mn  Mn3       1.0  0.17825  0.17598  0.33290  1.0000 1.0606039158
Mn  Mn4       1.0  0.82175  0.82402  0.66710  1.0000 1.0606039158
Mn  Mn5       1.0  0.41049  0.11210  0.33595  1.0000 1.0011693231
Mn  Mn6       1.0  0.58951  0.88790  0.66405  1.0000 1.0011693231
Mn  Mn7       1.0  0.00000  0.50000  0.00000  1.0000 1.089869558
Mn  Mn8       1.0  0.22785  0.54075  0.96885  1.0000 1.0011693231
Mn  Mn9       1.0  0.77215  0.45925  0.03115  1.0000 1.0011693231
Si  Si1       1.0  0.07560  0.12756  0.67140  1.0000 0.6422697894
Si  Si2       1.0  0.92440  0.87244  0.32860  1.0000 0.6422697894
Si  Si3       1.0  0.79100  0.83790  0.03870  1.0000 0.6292392752
Si  Si4       1.0  0.20900  0.16210  0.96130  1.0000 0.6292392752
Si  Si5       1.0  0.56080  0.51504  0.65610  1.0000 0.6292392752
Si  Si6       1.0  0.43920  0.48496  0.34390  1.0000 0.6292392752
H   H1        1.0  0.11920  0.08920  0.45480  1.0000 0.1195312444
H   H2        1.0  0.88080  0.91080  0.54520  1.0000 0.1195312444
H   H3        1.0  0.97670  0.25180  0.53820  1.0000 0.1298185329
H   H4        1.0  0.02330  0.74820  0.46180  1.0000 0.1298185329
H   H5        1.0  0.01420  0.03530  0.13700  1.0000 0.1298185329
H   H6        1.0  0.98580  0.96470  0.86300  1.0000 0.1298185329
H   H7        1.0  0.80760  0.04450  0.23790  1.0000 0.1298185329
H   H8        1.0  0.19240  0.95550  0.76210  1.0000 0.1298185329
H   H9        1.0  0.12970  0.06570  0.54580  1.0000 0.1195312444
H   H10       1.0  0.87030  0.93430  0.45420  1.0000 0.1195312444
H   H11       1.0  0.98720  0.22830  0.62920  1.0000 0.1129454136
H   H12       1.0  0.01280  0.77170  0.37080  1.0000 0.1129454136
H   H13       1.0  0.94980  0.92890  0.06100  1.0000 0.1129454136
H   H14       1.0  0.05020  0.07110  0.93900  1.0000 0.1129454136
H   H15       1.0  0.74310  0.93810  0.16190  1.0000 0.1195312444
H   H16       1.0  0.25690  0.06190  0.83810  1.0000 0.1195312444
H   H17       1.0  0.29460  0.35330  0.48930  1.0000 0.1195312444
H   H18       1.0  0.70540  0.64670  0.51070  1.0000 0.1195312444
H   H19       1.0  0.57360  0.28560  0.50250  1.0000 0.1298185329
H   H20       1.0  0.42640  0.71440  0.49750  1.0000 0.1298185329
H   H21       1.0  0.36500  0.45660  0.57080  1.0000 0.1195312444
H   H22       1.0  0.63500  0.54340  0.42920  1.0000 0.1195312444
H   H23       1.0  0.64400  0.38890  0.58390  1.0000 0.1129454136
H   H24       1.0  0.35600  0.61110  0.41610  1.0000 0.1129454136
H   H25       1.0  0.74450  0.07060  0.38170  1.0000 0.1298185329
H   H26       1.0  0.25550  0.92940  0.61830  1.0000 0.1298185329
H   H27       1.0  0.56680  0.90430  0.25650  1.0000 0.1387154799
H   H28       1.0  0.43320  0.09570  0.74350  1.0000 0.1387154799
H   H29       1.0  0.11360  0.99020  0.61690  1.0000 0.1129454136
H   H30       1.0  0.88640  0.00980  0.38310  1.0000 0.1129454136
H   H31       1.0  0.29120  0.15640  0.74210  1.0000 0.1023300791
H   H32       1.0  0.70880  0.84360  0.25790  1.0000 0.1023300791
H   H33       1.0  0.03350  0.05450  0.74060  1.0000 0.1129454136
H   H34       1.0  0.96650  0.94550  0.25940  1.0000 0.1129454136
H   H35       1.0  0.86830  0.08650  0.58470  1.0000 0.1129454136
H   H36       1.0  0.13170  0.91350  0.41530  1.0000 0.1129454136
H   H37       1.0  0.21750  0.24120  0.72870  1.0000 0.1195312444
H   H38       1.0  0.78250  0.75880  0.27130  1.0000 0.1195312444
H   H39       1.0  0.97590  0.19620  0.77700  1.0000 0.1195312444
H   H40       1.0  0.02410  0.80380  0.22300  1.0000 0.1195312444
H   H41       1.0  0.78580  0.69990  0.98730  1.0000 0.1298185329
H   H42       1.0  0.21420  0.30010  0.01270  1.0000 0.1298185329
H   H43       1.0  0.01690  0.84070  0.08350  1.0000 0.1129454136
H   H44       1.0  0.98310  0.15930  0.91650  1.0000 0.1129454136
H   H45       1.0  0.85090  0.77570  0.91550  1.0000 0.1195312444
H   H46       1.0  0.14910  0.22430  0.08450  1.0000 0.1195312444
H   H47       1.0  0.65940  0.91570  0.97790  1.0000 0.1195312444
H   H48       1.0  0.34060  0.08430  0.02210  1.0000 0.1195312444
H   H49       1.0  0.74280  0.80520  0.13890  1.0000 0.1129454136
H   H50       1.0  0.25720  0.19480  0.86110  1.0000 0.1129454136
H   H51       1.0  0.57850  0.80920  0.96710  1.0000 0.1023300791
H   H52       1.0  0.42150  0.19080  0.03290  1.0000 0.1023300791
H   H53       1.0  0.90150  0.98370  0.72680  1.0000 0.1195312444
H   H54       1.0  0.09850  0.01630  0.27320  1.0000 0.1195312444
H   H55       1.0  0.73640  0.01570  0.57080  1.0000 0.1298185329
H   H56       1.0  0.26360  0.98430  0.42920  1.0000 0.1298185329
H   H57       1.0  0.23280  0.34710  0.81340  1.0000 0.1298185329
H   H58       1.0  0.76720  0.65290  0.18660  1.0000 0.1298185329
H   H59       1.0  0.99120  0.30200  0.86170  1.0000 0.1195312444
H   H60       1.0  0.00880  0.69800  0.13830  1.0000 0.1195312444
H   H61       1.0  0.90170  0.61960  0.97000  1.0000 0.1195312444
H   H62       1.0  0.09830  0.38040  0.03000  1.0000 0.1195312444
H   H63       1.0  0.13290  0.76040  0.06620  1.0000 0.1387154799
H   H64       1.0  0.86710  0.23960  0.93380  1.0000 0.1387154799
H   H65       1.0  0.81480  0.78270  0.81360  1.0000 0.1298185329
H   H66       1.0  0.18520  0.21730  0.18640  1.0000 0.1298185329
H   H67       1.0  0.62330  0.92270  0.87600  1.0000 0.1298185329
H   H68       1.0  0.37670  0.07730  0.12400  1.0000 0.1298185329
H   H69       1.0  0.59740  0.76850  0.15280  1.0000 0.1129454136
H   H70       1.0  0.40260  0.23150  0.84720  1.0000 0.1129454136
H   H71       1.0  0.43310  0.77240  0.98100  1.0000 0.1195312444
H   H72       1.0  0.56690  0.22760  0.01900  1.0000 0.1195312444
H   H73       1.0  0.51050  0.44380  0.72620  1.0000 0.1129454136
H   H74       1.0  0.48950  0.55620  0.27380  1.0000 0.1129454136
H   H75       1.0  0.74610  0.56630  0.75970  1.0000 0.1129454136
H   H76       1.0  0.25390  0.43370  0.24030  1.0000 0.1129454136
H   H77       1.0  0.61920  0.65060  0.69980  1.0000 0.1195312444
H   H78       1.0  0.38080  0.34940  0.30020  1.0000 0.1195312444
H   H79       1.0  0.71500  0.48320  0.57850  1.0000 0.1023300791
H   H80       1.0  0.28500  0.51680  0.42150  1.0000 0.1023300791
H   H81       1.0  0.43540  0.57720  0.58110  1.0000 0.1195312444
H   H82       1.0  0.56460  0.42280  0.41890  1.0000 0.1195312444
H   H83       1.0  0.43350  0.56670  0.75230  1.0000 0.1129454136
H   H84       1.0  0.56650  0.43330  0.24770  1.0000 0.1129454136
H   H85       1.0  0.58960  0.43240  0.82350  1.0000 0.1387154799
H   H86       1.0  0.41040  0.56760  0.17650  1.0000 0.1387154799
H   H87       1.0  0.82520  0.55480  0.85690  1.0000 0.1195312444
H   H88       1.0  0.17480  0.44520  0.14310  1.0000 0.1195312444
H   H89       1.0  0.74930  0.71100  0.69560  1.0000 0.1298185329
H   H90       1.0  0.25070  0.28900  0.30440  1.0000 0.1298185329
H   H91       1.0  0.84500  0.54350  0.57430  1.0000 0.1298185329
H   H92       1.0  0.15500  0.45650  0.42570  1.0000 0.1298185329
H   H93       1.0  0.29870  0.64270  0.59020  1.0000 0.1298185329
H   H94       1.0  0.70130  0.35730  0.40980  1.0000 0.1298185329
H   H95       1.0  0.29680  0.63220  0.76150  1.0000 0.1298185329
H   H96       1.0  0.70320  0.36780  0.23850  1.0000 0.1298185329
C   C1        1.0  0.04910  0.19080  0.43200  1.0000 0.5908818039
C   C2        1.0  0.95090  0.80920  0.56800  1.0000 0.5908818039
C   C3        1.0  0.96930  0.11840  0.24470  1.0000 0.5779107205
C   C4        1.0  0.03070  0.88160  0.75530  1.0000 0.5779107205
C   C5        1.0  0.04700  0.17270  0.48790  1.0000 0.0017458359
C   C6        1.0  0.95300  0.82730  0.51210  1.0000 0.0017458359
C   C7        1.0  0.91700  0.04990  0.19460  1.0000 0.0096175034
C   C8        1.0  0.08300  0.95010  0.80540  1.0000 0.0096175034
C   C9        1.0  0.09240  0.11740  0.49020  1.0000 -0.089490382
C   C10       1.0  0.90760  0.88260  0.50980  1.0000 -0.089490382
C   C11       1.0  0.00780  0.21400  0.53970  1.0000 -0.0977019931
C   C12       1.0  0.99220  0.78600  0.46030  1.0000 -0.0977019931
C   C13       1.0  0.95920  0.01560  0.14200  1.0000 -0.0977019931
C   C14       1.0  0.04080  0.98440  0.85800  1.0000 -0.0977019931
C   C15       1.0  0.83640  0.02110  0.20200  1.0000 -0.089490382
C   C16       1.0  0.16360  0.97890  0.79800  1.0000 -0.089490382
C   C17       1.0  0.37810  0.24890  0.43510  1.0000 0.5699734233
C   C18       1.0  0.62190  0.75110  0.56490  1.0000 0.5699734233
C   C19       1.0  0.09860  0.10350  0.54430  1.0000 -0.089490382
C   C20       1.0  0.90140  0.89650  0.45570  1.0000 -0.0820571525
C   C21       1.0  0.01400  0.20000  0.59380  1.0000 -0.089490382
C   C22       1.0  0.98600  0.80000  0.40620  1.0000 -0.089490382
C   C23       1.0  0.92090  0.95240  0.09690  1.0000 -0.089490382
C   C24       1.0  0.07910  0.04760  0.90310  1.0000 -0.089490382
C   C25       1.0  0.79820  0.95780  0.15690  1.0000 -0.089490382
C   C26       1.0  0.20180  0.04220  0.84310  1.0000 -0.089490382
C   C27       1.0  0.42750  0.30970  0.48820  1.0000 -0.0476210014
C   C28       1.0  0.57250  0.69030  0.51180  1.0000 -0.0476210014
C   C29       1.0  0.05940  0.14480  0.59610  1.0000 -0.1987015828
C   C30       1.0  0.94060  0.85520  0.40390  1.0000 -0.1987015828
C   C31       1.0  0.84040  0.92350  0.10430  1.0000 -0.1987015828
C   C32       1.0  0.15960  0.07650  0.89570  1.0000 -0.1987015828
C   C33       1.0  0.36550  0.36050  0.50850  1.0000 -0.0820571525
C   C34       1.0  0.63450  0.63950  0.49150  1.0000 -0.0820571525
C   C35       1.0  0.53130  0.32030  0.51630  1.0000 -0.0820571525
C   C36       1.0  0.46870  0.67970  0.48370  1.0000 -0.0820571525
C   C37       1.0  0.55210  0.03500  0.32300  1.0000 0.5410520228
C   C38       1.0  0.44790  0.96500  0.67700  1.0000 0.5410520228
C   C39       1.0  0.40740  0.42190  0.55690  1.0000 -0.089490382
C   C40       1.0  0.59260  0.57810  0.44310  1.0000 -0.089490382
C   C41       1.0  0.57310  0.38170  0.56470  1.0000 -0.089490382
C   C42       1.0  0.42690  0.61830  0.43530  1.0000 -0.089490382
C   C43       1.0  0.64230  0.99320  0.31900  1.0000 0.0096175034
C   C44       1.0  0.35770  0.00680  0.68100  1.0000 0.0096175034
C   C45       1.0  0.18900  0.07900  0.67940  1.0000 -0.1987015828
C   C46       1.0  0.81100  0.92100  0.32060  1.0000 -0.1987015828
C   C47       1.0  0.96330  0.07720  0.66390  1.0000 -0.1910710939
C   C48       1.0  0.03670  0.92280  0.33610  1.0000 -0.1910710939
C   C49       1.0  0.09530  0.20870  0.74490  1.0000 -0.1987015828
C   C50       1.0  0.90470  0.79130  0.25510  1.0000 -0.1987015828
C   C51       1.0  0.89050  0.77790  0.03710  1.0000 -0.1910710939
C   C52       1.0  0.10950  0.22210  0.96290  1.0000 -0.1910710939
C   C53       1.0  0.75860  0.84500  0.95620  1.0000 -0.1987015828
C   C54       1.0  0.24140  0.15500  0.04380  1.0000 -0.1987015828
C   C55       1.0  0.67430  0.81060  0.05170  1.0000 -0.1987015828
C   C56       1.0  0.32570  0.18940  0.94830  1.0000 -0.1987015828
C   C57       1.0  0.51120  0.43240  0.58500  1.0000 -0.1987015828
C   C58       1.0  0.48880  0.56760  0.41500  1.0000 -0.1987015828
C   C59       1.0  0.73720  0.02450  0.35660  1.0000 -0.0977019931
C   C60       1.0  0.26280  0.97550  0.64340  1.0000 -0.0977019931
C   C61       1.0  0.63170  0.92580  0.28220  1.0000 -0.0820571525
C   C62       1.0  0.36830  0.07420  0.71780  1.0000 -0.0820571525
C   C63       1.0  0.17840  0.01160  0.64260  1.0000 -0.089490382
C   C64       1.0  0.82160  0.98840  0.35740  1.0000 -0.089490382
C   C65       1.0  0.28400  0.11030  0.71700  1.0000 -0.089490382
C   C66       1.0  0.71600  0.88970  0.28300  1.0000 -0.089490382
C   C67       1.0  0.97320  0.04660  0.70620  1.0000 -0.089490382
C   C68       1.0  0.02680  0.95340  0.29380  1.0000 -0.089490382
C   C69       1.0  0.87510  0.06570  0.61350  1.0000 -0.089490382
C   C70       1.0  0.12490  0.93430  0.38650  1.0000 -0.089490382
C   C71       1.0  0.17160  0.25360  0.75570  1.0000 -0.089490382
C   C72       1.0  0.82840  0.74640  0.24430  1.0000 -0.089490382
C   C73       1.0  0.02810  0.22680  0.78440  1.0000 -0.089490382
C   C74       1.0  0.97190  0.77320  0.21560  1.0000 -0.089490382
C   C75       1.0  0.85620  0.71220  0.00330  1.0000 -0.089490382
C   C76       1.0  0.14380  0.28780  0.99670  1.0000 -0.089490382
C   C77       1.0  0.99350  0.79580  0.06050  1.0000 -0.089490382
C   C78       1.0  0.00650  0.20420  0.93950  1.0000 -0.089490382
C   C79       1.0  0.80470  0.80550  0.90740  1.0000 -0.089490382
C   C80       1.0  0.19530  0.19450  0.09260  1.0000 -0.089490382
C   C81       1.0  0.69100  0.88870  0.94450  1.0000 -0.089490382
C   C82       1.0  0.30900  0.11130  0.05550  1.0000 -0.089490382
C   C83       1.0  0.67990  0.79850  0.10690  1.0000 -0.0977019931
C   C84       1.0  0.32010  0.20150  0.89310  1.0000 -0.0977019931
C   C85       1.0  0.58230  0.80090  0.00480  1.0000 -0.089490382
C   C86       1.0  0.41770  0.19910  0.99520  1.0000 -0.089490382
C   C87       1.0  0.89480  0.00450  0.69790  1.0000 -0.0820571525
C   C88       1.0  0.10520  0.99550  0.30210  1.0000 -0.0820571525
C   C89       1.0  0.79670  0.02360  0.60530  1.0000 -0.089490382
C   C90       1.0  0.20330  0.97640  0.39470  1.0000 -0.089490382
C   C91       1.0  0.18070  0.31640  0.80600  1.0000 -0.0977019931
C   C92       1.0  0.81930  0.68360  0.19400  1.0000 -0.0977019931
C   C93       1.0  0.03720  0.28970  0.83470  1.0000 -0.0820571525
C   C94       1.0  0.96280  0.71030  0.16530  1.0000 -0.0820571525
C   C95       1.0  0.92510  0.66450  0.99300  1.0000 -0.0977019931
C   C96       1.0  0.07490  0.33550  0.00700  1.0000 -0.0977019931
C   C97       1.0  0.06240  0.74810  0.05020  1.0000 -0.0820571525
C   C98       1.0  0.93760  0.25190  0.94980  1.0000 -0.0820571525
C   C99       1.0  0.78330  0.80970  0.84690  1.0000 -0.0820571525
C   C100      1.0  0.21670  0.19030  0.15310  1.0000 -0.0820571525
C   C101      1.0  0.66950  0.89280  0.88400  1.0000 -0.0820571525
C   C102      1.0  0.33050  0.10720  0.11600  1.0000 -0.0820571525
C   C103      1.0  0.59350  0.77670  0.11510  1.0000 -0.0977019931
C   C104      1.0  0.40650  0.22330  0.88490  1.0000 -0.0977019931
C   C105      1.0  0.49590  0.77910  0.01310  1.0000 -0.089490382
C   C106      1.0  0.50410  0.22090  0.98690  1.0000 -0.089490382
C   C107      1.0  0.62080  0.50620  0.73380  1.0000 -0.1987015828
C   C108      1.0  0.37920  0.49380  0.26620  1.0000 -0.1987015828
C   C109      1.0  0.65490  0.56120  0.63960  1.0000 -0.1987015828
C   C110      1.0  0.34510  0.43880  0.36040  1.0000 -0.1987015828
C   C111      1.0  0.44730  0.56580  0.66580  1.0000 -0.2083273315
C   C112      1.0  0.55270  0.43420  0.33420  1.0000 -0.2083273315
C   C113      1.0  0.80650  0.99300  0.64750  1.0000 0.0096175034
C   C114      1.0  0.19350  0.00700  0.35250  1.0000 0.0096175034
C   C115      1.0  0.11340  0.33450  0.84560  1.0000 -0.0082560218
C   C116      1.0  0.88660  0.66550  0.15440  1.0000 -0.0082560218
C   C117      1.0  0.02820  0.68240  0.01640  1.0000 0.0096175034
C   C118      1.0  0.97180  0.31760  0.98360  1.0000 0.0096175034
C   C119      1.0  0.71560  0.85330  0.83520  1.0000 -0.0598099761
C   C120      1.0  0.28440  0.14670  0.16480  1.0000 -0.0598099761
C   C121      1.0  0.50150  0.76700  0.06820  1.0000 0.0096175034
C   C122      1.0  0.49850  0.23300  0.93180  1.0000 0.0096175034
C   C123      1.0  0.57440  0.46640  0.75270  1.0000 -0.089490382
C   C124      1.0  0.42560  0.53360  0.24730  1.0000 -0.089490382
C   C125      1.0  0.71430  0.53910  0.77260  1.0000 -0.089490382
C   C126      1.0  0.28570  0.46090  0.22740  1.0000 -0.089490382
C   C127      1.0  0.66510  0.62890  0.67430  1.0000 -0.089490382
C   C128      1.0  0.33490  0.37110  0.32570  1.0000 -0.089490382
C   C129      1.0  0.72200  0.52940  0.60230  1.0000 -0.089490382
C   C130      1.0  0.27800  0.47060  0.39770  1.0000 -0.089490382
C   C131      1.0  0.40730  0.58830  0.61770  1.0000 -0.0977019931
C   C132      1.0  0.59270  0.41170  0.38230  1.0000 -0.0977019931
C   C133      1.0  0.40620  0.58210  0.71940  1.0000 -0.089490382
C   C134      1.0  0.59380  0.41790  0.28060  1.0000 -0.089490382
C   C135      1.0  0.72250  0.94620  0.63760  1.0000 0.5699734233
C   C136      1.0  0.27750  0.05380  0.36240  1.0000 0.5699734233
C   C137      1.0  0.12440  0.40380  0.89920  1.0000 0.5908818039
C   C138      1.0  0.87560  0.59620  0.10080  1.0000 0.5908818039
C   C139      1.0  0.10610  0.63040  0.00370  1.0000 0.5699734233
C   C140      1.0  0.89390  0.36960  0.99630  1.0000 0.5699734233
C   C141      1.0  0.68680  0.85600  0.77210  1.0000 0.5699734233
C   C142      1.0  0.31320  0.14400  0.22790  1.0000 0.5699734233
C   C143      1.0  0.40580  0.74320  0.07540  1.0000 0.5510180783
C   C144      1.0  0.59420  0.25680  0.92460  1.0000 0.5410520228
C   C145      1.0  0.62130  0.45950  0.81050  1.0000 -0.089490382
C   C146      1.0  0.37870  0.54050  0.18950  1.0000 -0.089490382
C   C147      1.0  0.76130  0.53230  0.83040  1.0000 -0.0977019931
C   C148      1.0  0.23870  0.46770  0.16960  1.0000 -0.089490382
C   C149      1.0  0.74230  0.66470  0.67180  1.0000 -0.0977019931
C   C150      1.0  0.25770  0.33530  0.32820  1.0000 -0.0977019931
C   C151      1.0  0.79920  0.56530  0.59980  1.0000 -0.089490382
C   C152      1.0  0.20080  0.43470  0.40020  1.0000 -0.089490382
C   C153      1.0  0.32600  0.62720  0.62310  1.0000 -0.0977019931
C   C154      1.0  0.67400  0.37280  0.37690  1.0000 -0.0977019931
C   C155      1.0  0.32490  0.62100  0.72490  1.0000 -0.089490382
C   C156      1.0  0.67510  0.37900  0.27510  1.0000 -0.089490382
C   C157      1.0  0.71480  0.49250  0.84930  1.0000 -0.0082560218
C   C158      1.0  0.28520  0.50750  0.15070  1.0000 -0.0082560218
C   C159      1.0  0.80940  0.63290  0.63450  1.0000 0.0096175034
C   C160      1.0  0.19060  0.36710  0.36550  1.0000 0.0096175034
C   C161      1.0  0.28490  0.64360  0.67670  1.0000 0.0096175034
C   C162      1.0  0.71510  0.35640  0.32330  1.0000 0.0096175034
C   C163      1.0  0.77290  0.48470  0.91090  1.0000 0.5908818039
C   C164      1.0  0.22710  0.51530  0.08910  1.0000 0.5908818039
C   C165      1.0  0.89470  0.67690  0.63710  1.0000 0.5510180783
C   C166      1.0  0.10530  0.32310  0.36290  1.0000 0.5510180783
C   C167      1.0  0.19640  0.68610  0.68430  1.0000 0.5286135367
C   C168      1.0  0.80360  0.31390  0.31570  1.0000 0.5286135367
O   O1        1.0  0.99320  0.23400  0.42640  1.0000 -0.519189746
O   O2        1.0  0.00680  0.76600  0.57360  1.0000 -0.519189746
O   O3        1.0  0.91040  0.15550  0.27420  1.0000 -0.519189746
O   O4        1.0  0.08960  0.84450  0.72580  1.0000 -0.519189746
O   O5        1.0  0.09820  0.26510  0.33120  1.0000 -0.5055897244
O   O6        1.0  0.90180  0.73490  0.66880  1.0000 -0.501553321
O   O7        1.0  0.04840  0.35390  0.39640  1.0000 -0.4786608942
O   O8        1.0  0.95160  0.64610  0.60360  1.0000 -0.4786608942
O   O9        1.0  0.82930  0.29430  0.35990  1.0000 -0.501553321
O   O10       1.0  0.17070  0.70570  0.64010  1.0000 -0.501553321
O   O11       1.0  0.10240  0.15920  0.39370  1.0000 -0.5681301959
O   O12       1.0  0.89760  0.84080  0.60630  1.0000 -0.5681301959
O   O13       1.0  0.06000  0.12690  0.24970  1.0000 -0.549288825
O   O14       1.0  0.94000  0.87310  0.75030  1.0000 -0.549288825
O   O15       1.0  0.28920  0.23650  0.41400  1.0000 -0.4893854765
O   O16       1.0  0.71080  0.76350  0.58600  1.0000 -0.4893854765
O   O17       1.0  0.26100  0.08530  0.32760  1.0000 -0.549288825
O   O18       1.0  0.73900  0.91470  0.67240  1.0000 -0.549288825
O   O19       1.0  0.26880  0.17720  0.27070  1.0000 -0.549288825
O   O20       1.0  0.73120  0.82280  0.72930  1.0000 -0.549288825
O   O21       1.0  0.44380  0.20390  0.41260  1.0000 -0.5612582275
O   O22       1.0  0.55620  0.79610  0.58740  1.0000 -0.5612582275
O   O23       1.0  0.56570  0.09260  0.35900  1.0000 -0.501553321
O   O24       1.0  0.43430  0.90740  0.64100  1.0000 -0.501553321
O   O25       1.0  0.46680  0.00360  0.28590  1.0000 -0.5285379001
O   O26       1.0  0.53320  0.99640  0.71410  1.0000 -0.5285379001
O   O27       1.0  0.38190  0.10930  0.24410  1.0000 -0.501553321
O   O28       1.0  0.61810  0.89070  0.75590  1.0000 -0.501553321
O   O29       1.0  0.64250  0.93990  0.59730  1.0000 -0.4669542172
O   O30       1.0  0.35750  0.06010  0.40270  1.0000 -0.4620544322
O   O31       1.0  0.04130  0.42110  0.91910  1.0000 -0.5907032299
O   O32       1.0  0.95870  0.57890  0.08090  1.0000 -0.5907032299
O   O33       1.0  0.19610  0.43990  0.91360  1.0000 -0.4786608942
O   O34       1.0  0.80390  0.56010  0.08640  1.0000 -0.4786608942
O   O35       1.0  0.07250  0.57180  0.98080  1.0000 -0.5907032299
O   O36       1.0  0.92750  0.42820  0.01920  1.0000 -0.5837537654
O   O37       1.0  0.19480  0.64820  0.01850  1.0000 -0.4364997604
O   O38       1.0  0.80520  0.35180  0.98150  1.0000 -0.4364997604
O   O39       1.0  0.33150  0.72350  0.02280  1.0000 -0.4620544322
O   O40       1.0  0.66850  0.27650  0.97720  1.0000 -0.4669542172
O   O41       1.0  0.41050  0.73750  0.12700  1.0000 -0.4893854765
O   O42       1.0  0.58950  0.26250  0.87300  1.0000 -0.4786608942
O   O43       1.0  0.27810  0.53990  0.06240  1.0000 -0.549288825
O   O44       1.0  0.72190  0.46010  0.93760  1.0000 -0.549288825
O   O45       1.0  0.14000  0.49720  0.06490  1.0000 -0.501553321
O   O46       1.0  0.86000  0.50280  0.93510  1.0000 -0.501553321
O   O47       1.0  0.15440  0.69820  0.72690  1.0000 -0.4525864579
O   O48       1.0  0.84560  0.30180  0.27310  1.0000 -0.4525864579
