# DDEC6 charges by PACMAN v1.1 (https://github.com/mtap-research/PACMAN-charge/)
data_2017[Cd][pcu]3[ASR]4
_chemical_formula_sum              "Cd2 H44 C46 N8 O8"
_cell_length_a       10.0425
_cell_length_b       10.7819
_cell_length_c       15.1215
_cell_angle_alpha    74.98
_cell_angle_beta     77.163
_cell_angle_gamma    64.873

_symmetry_space_group_name_H-M    "P 1"
_symmetry_Int_Tables_number       1

loop_
  _symmetry_equiv_pos_as_xyz
  'x, y, z'

loop_
  _atom_site_type_symbol
  _atom_site_label
  _atom_site_symmetry_multiplicity
  _atom_site_fract_x
  _atom_site_fract_y
  _atom_site_fract_z
  _atom_site_occupancy
  _atom_site_charge
Cd  Cd1       1.0  0.99172  0.20663  0.99366  1.0000 0.8014565875
Cd  Cd2       1.0  0.97968  0.56498  0.04482  1.0000 0.8850579431
H   H1        1.0  0.16580  0.39700  0.20580  1.0000 0.1104922145
H   H2        1.0  0.46530  0.21360  0.93550  1.0000 0.0890095974
H   H3        1.0  0.75530  0.20730  0.18130  1.0000 0.1104922145
H   H4        1.0  0.19020  0.03170  0.15500  1.0000 0.1104922145
H   H5        1.0  0.74210  0.16550  0.33710  1.0000 0.12978182
H   H6        1.0  0.71530  0.50730  0.37810  1.0000 0.12978182
H   H7        1.0  0.15570  0.34350  0.36370  1.0000 0.1201937911
H   H8        1.0  0.56120  0.63210  0.89700  1.0000 0.0890095974
H   H9        1.0  0.49380  0.51790  0.93040  1.0000 0.1007878307
H   H10       1.0  0.17770  0.98980  0.31650  1.0000 0.12978182
H   H11       1.0  0.73980  0.54550  0.21990  1.0000 0.1104922145
H   H12       1.0  0.36610  0.33590  0.08210  1.0000 0.2878391415
H   H13       1.0  0.53010  0.27470  0.05770  1.0000 0.2835803797
H   H14       1.0  0.21360  0.22300  0.80860  1.0000 0.1007878307
H   H15       1.0  0.43920  0.83480  0.98050  1.0000 0.2878391415
H   H16       1.0  0.27460  0.90470  0.98660  1.0000 0.2878391415
H   H17       1.0  0.85860  0.09320  0.47520  1.0000 0.12978182
H   H18       1.0  0.30490  0.73300  0.90240  1.0000 0.0807064643
H   H19       1.0  0.68910  0.03740  0.08560  1.0000 0.12978182
H   H20       1.0  0.72060  0.04560  0.97870  1.0000 0.12978182
H   H21       1.0  0.48020  0.00690  0.09470  1.0000 0.1007878307
H   H22       1.0  0.51740  0.98170  0.99330  1.0000 0.0890095974
H   H23       1.0  0.12400  0.33950  0.50970  1.0000 0.1201937911
H   H24       1.0  0.82610  0.39720  0.52500  1.0000 0.1104922145
H   H25       1.0  0.14580  0.97760  0.46750  1.0000 0.12978182
H   H26       1.0  0.24660  0.93760  0.60090  1.0000 0.12978182
H   H27       1.0  0.21970  0.90970  0.75820  1.0000 0.1007878307
H   H28       1.0  0.79920  0.06340  0.63350  1.0000 0.1201937911
H   H29       1.0  0.81020  0.03500  0.78560  1.0000 0.1104922145
H   H30       1.0  0.78390  0.35300  0.82980  1.0000 0.1104922145
H   H31       1.0  0.78840  0.40080  0.67380  1.0000 0.12978182
H   H32       1.0  0.22750  0.27520  0.64870  1.0000 0.12978182
H   H33       1.0  0.59170  0.61980  0.04930  1.0000 0.1361767819
H   H34       1.0  0.51080  0.51620  0.08740  1.0000 0.12978182
H   H35       1.0  0.80050  0.72650  0.72680  1.0000 0.12978182
H   H36       1.0  0.79270  0.69810  0.87940  1.0000 0.1104922145
H   H37       1.0  0.24550  0.55460  0.71200  1.0000 0.12978182
H   H38       1.0  0.21790  0.53330  0.86700  1.0000 0.1104922145
H   H39       1.0  0.84060  0.73510  0.57620  1.0000 0.1201937911
H   H40       1.0  0.17550  0.64510  0.42730  1.0000 0.1201937911
H   H41       1.0  0.13900  0.65150  0.56680  1.0000 0.1201937911
H   H42       1.0  0.74490  0.80620  0.42910  1.0000 0.1201937911
H   H43       1.0  0.20760  0.67690  0.26430  1.0000 0.1007878307
H   H44       1.0  0.76900  0.82370  0.27380  1.0000 0.1007878307
C   C1        1.0  0.07280  0.42000  0.24080  1.0000 0.1104922145
C   C2        1.0  0.42840  0.18750  0.00030  1.0000 0.0013159971
C   C3        1.0  0.84280  0.16210  0.20810  1.0000 0.0538383407
C   C4        1.0  0.09860  0.05950  0.19130  1.0000 0.1104922145
C   C5        1.0  0.83490  0.13900  0.30200  1.0000 -0.1987078915
C   C6        1.0  0.80930  0.48170  0.34430  1.0000 -0.2098755519
C   C7        1.0  0.06850  0.38620  0.33670  1.0000 -0.2098755519
C   C8        1.0  0.50060  0.59590  0.94710  1.0000 -0.1804178983
C   C9        1.0  0.09080  0.03570  0.28930  1.0000 -0.218184191
C   C10       1.0  0.82440  0.50780  0.24930  1.0000 0.0428779145
C   C11       1.0  0.12710  0.25890  0.78140  1.0000 0.1007878307
C   C12       1.0  0.95480  0.08030  0.34460  1.0000 0.12978182
C   C13       1.0  0.26940  0.21440  0.00510  1.0000 0.5335008671
C   C14       1.0  0.95400  0.06040  0.44390  1.0000 -0.1273494566
C   C15       1.0  0.24500  0.66140  0.03970  1.0000 0.5553868582
C   C16       1.0  0.34910  0.70690  0.95950  1.0000 0.0175894295
C   C17       1.0  0.68150  0.99990  0.03600  1.0000 -0.3194102178
C   C18       1.0  0.52350  0.03620  0.03310  1.0000 -0.1804178983
C   C19       1.0  0.93490  0.41680  0.38970  1.0000 0.1497405688
C   C20       1.0  0.02990  0.35280  0.54160  1.0000 -0.1627681086
C   C21       1.0  0.91900  0.38890  0.49280  1.0000 -0.1627681086
C   C22       1.0  0.04770  0.01170  0.49450  1.0000 -0.1273494566
C   C23       1.0  0.02080  0.00050  0.59820  1.0000 0.12978182
C   C24       1.0  0.15410  0.95710  0.63630  1.0000 -0.2407412844
C   C25       1.0  0.13340  0.94650  0.73070  1.0000 0.0609767038
C   C26       1.0  0.88970  0.03250  0.65530  1.0000 -0.2407412844
C   C27       1.0  0.89990  0.01630  0.74710  1.0000 0.0807064643
C   C28       1.0  0.87500  0.33470  0.79270  1.0000 0.0609767038
C   C29       1.0  0.87690  0.36250  0.69920  1.0000 -0.2098755519
C   C30       1.0  0.01170  0.33320  0.64180  1.0000 0.1497405688
C   C31       1.0  0.13610  0.28740  0.68440  1.0000 -0.218184191
C   C32       1.0  0.72220  0.42240  0.02330  1.0000 0.6069134643
C   C33       1.0  0.57520  0.54460  0.03580  1.0000 -0.33655457
C   C34       1.0  0.77920  0.84420  0.05010  1.0000 0.596980231
C   C35       1.0  0.88840  0.68670  0.75280  1.0000 -0.1987078915
C   C36       1.0  0.02360  0.64680  0.69750  1.0000 0.1497405688
C   C37       1.0  0.88530  0.66740  0.84440  1.0000 0.0609767038
C   C38       1.0  0.15100  0.58510  0.74470  1.0000 -0.2098755519
C   C39       1.0  0.13340  0.57120  0.83760  1.0000 0.0662894344
C   C40       1.0  0.93650  0.71330  0.54540  1.0000 -0.1524752805
C   C41       1.0  0.95220  0.73150  0.44590  1.0000 0.12978182
C   C42       1.0  0.09280  0.68670  0.39590  1.0000 -0.2407412844
C   C43       1.0  0.04310  0.66960  0.59690  1.0000 -0.1627681086
C   C44       1.0  0.84010  0.77930  0.39690  1.0000 -0.218184191
C   C45       1.0  0.11370  0.70280  0.29810  1.0000 0.1007878307
C   C46       1.0  0.85190  0.79240  0.30400  1.0000 0.0609767038
N   N1        1.0  0.97480  0.12120  0.15220  1.0000 -0.218184191
N   N2        1.0  0.95900  0.48020  0.19710  1.0000 -0.218184191
N   N3        1.0  0.99960  0.28170  0.83420  1.0000 -0.2407412844
N   N4        1.0  0.44370  0.27920  0.05450  1.0000 -0.5569317172
N   N5        1.0  0.00220  0.60870  0.88900  1.0000 -0.218184191
N   N6        1.0  0.35510  0.83320  0.97810  1.0000 -0.5542937348
N   N7        1.0  0.01030  0.98050  0.78700  1.0000 -0.2808192203
N   N8        1.0  0.99050  0.75740  0.25770  1.0000 -0.1804178983
O   O1        1.0  0.84160  0.43040  0.02700  1.0000 -0.5722834497
O   O2        1.0  0.21860  0.56010  0.03090  1.0000 -0.5965264867
O   O3        1.0  0.71990  0.31260  0.00940  1.0000 -0.5722834497
O   O4        1.0  0.24450  0.12500  0.97720  1.0000 -0.5773433278
O   O5        1.0  0.19900  0.72140  0.10550  1.0000 -0.4896225462
O   O6        1.0  0.17030  0.31710  0.03390  1.0000 -0.5423615406
O   O7        1.0  0.73280  0.75780  0.04180  1.0000 -0.5892003606
O   O8        1.0  0.91040  0.80700  0.06600  1.0000 -0.5722834497
