# DDEC6 charges by PACMAN v1.1 (https://github.com/mtap-research/PACMAN-charge/)
data_2017[Tb][nan]2[ASR]1
_chemical_formula_sum              "Tb4 H24 C68 O36"
_cell_length_a       13.9282
_cell_length_b       13.9282
_cell_length_c       21.8298
_cell_angle_alpha    64.9419
_cell_angle_beta     115.058
_cell_angle_gamma    145.899

_symmetry_space_group_name_H-M    "P 1"
_symmetry_Int_Tables_number       1

loop_
  _symmetry_equiv_pos_as_xyz
  'x, y, z'

loop_
  _atom_site_type_symbol
  _atom_site_label
  _atom_site_symmetry_multiplicity
  _atom_site_fract_x
  _atom_site_fract_y
  _atom_site_fract_z
  _atom_site_occupancy
  _atom_site_charge
Tb  Tb1       1.0  0.93668  0.44396  0.46461  1.0000 2.0976791566
Tb  Tb2       1.0  0.44396  0.93668  0.53539  1.0000 2.0976791566
Tb  Tb3       1.0  0.22784  0.72440  0.97252  1.0000 2.0976791566
Tb  Tb4       1.0  0.72440  0.22784  0.02748  1.0000 2.0976791566
H   H1        1.0  0.10330  0.98610  0.45730  1.0000 0.1319792559
H   H2        1.0  0.69040  0.76840  0.31490  1.0000 0.1319792559
H   H3        1.0  0.71180  0.64840  0.28340  1.0000 0.1319792559
H   H4        1.0  0.58690  0.66090  0.42620  1.0000 0.1234428545
H   H5        1.0  0.35450  0.54310  0.44820  1.0000 0.1502119375
H   H6        1.0  0.84300  0.13460  0.39210  1.0000 0.1502119375
H   H7        1.0  0.98610  0.10330  0.54270  1.0000 0.1319792559
H   H8        1.0  0.76840  0.69040  0.68510  1.0000 0.1319792559
H   H9        1.0  0.64840  0.71180  0.71660  1.0000 0.1319792559
H   H10       1.0  0.66090  0.58690  0.57380  1.0000 0.1234428545
H   H11       1.0  0.54310  0.35450  0.55180  1.0000 0.1502119375
H   H12       1.0  0.13460  0.84300  0.60790  1.0000 0.1502119375
H   H13       1.0  0.69600  0.56840  0.93700  1.0000 0.137363035
H   H14       1.0  0.96710  0.02250  0.81560  1.0000 0.1319792559
H   H15       1.0  0.08980  0.00420  0.78570  1.0000 0.1319792559
H   H16       1.0  0.56170  0.82430  0.89360  1.0000 0.1502119375
H   H17       1.0  0.14910  0.32790  0.94890  1.0000 0.1502119375
H   H18       1.0  0.04660  0.10800  0.91980  1.0000 0.1234428545
H   H19       1.0  0.56840  0.69600  0.06300  1.0000 0.137363035
H   H20       1.0  0.02250  0.96710  0.18440  1.0000 0.1319792559
H   H21       1.0  0.00420  0.08980  0.21430  1.0000 0.1319792559
H   H22       1.0  0.82430  0.56170  0.10640  1.0000 0.1502119375
H   H23       1.0  0.32790  0.14910  0.05110  1.0000 0.1502119375
H   H24       1.0  0.10800  0.04660  0.08020  1.0000 0.1234428545
C   C1        1.0  0.17000  0.86560  0.44790  1.0000 0.6209260111
C   C2        1.0  0.03320  0.83820  0.40710  1.0000 -0.0440912435
C   C3        1.0  0.02340  0.91660  0.42280  1.0000 -0.0821526276
C   C4        1.0  0.89570  0.89270  0.38770  1.0000 -0.0089583069
C   C5        1.0  0.77910  0.78930  0.33730  1.0000 -0.0894972488
C   C6        1.0  0.79010  0.71490  0.31880  1.0000 -0.1001593659
C   C7        1.0  0.91840  0.74040  0.35350  1.0000 0.0086356538
C   C8        1.0  0.94200  0.67420  0.32910  1.0000 0.6104818916
C   C9        1.0  0.90400  0.99440  0.40280  1.0000 0.3657432979
C   C10       1.0  0.74100  0.91040  0.40810  1.0000 0.0034052556
C   C11       1.0  0.59240  0.73340  0.42430  1.0000 -0.1060734673
C   C12       1.0  0.45290  0.66250  0.43750  1.0000 -0.1001593659
C   C13       1.0  0.45790  0.76850  0.43500  1.0000 0.0155290782
C   C14       1.0  0.60600  0.94880  0.41590  1.0000 -0.0575691427
C   C15       1.0  0.74470  0.01570  0.40370  1.0000 -0.0675660597
C   C16       1.0  0.30790  0.68290  0.45720  1.0000 0.6397443598
C   C17       1.0  0.61640  0.06720  0.41180  1.0000 0.6470961159
C   C18       1.0  0.86560  0.17000  0.55210  1.0000 0.6209260111
C   C19       1.0  0.83820  0.03320  0.59290  1.0000 -0.0440912435
C   C20       1.0  0.91660  0.02340  0.57720  1.0000 -0.0821526276
C   C21       1.0  0.89270  0.89570  0.61230  1.0000 -0.0089583069
C   C22       1.0  0.78930  0.77910  0.66270  1.0000 -0.0894972488
C   C23       1.0  0.71490  0.79010  0.68120  1.0000 -0.1001593659
C   C24       1.0  0.74040  0.91840  0.64650  1.0000 0.0086356538
C   C25       1.0  0.67420  0.94200  0.67090  1.0000 0.6104818916
C   C26       1.0  0.99440  0.90400  0.59720  1.0000 0.3657432979
C   C27       1.0  0.91040  0.74100  0.59190  1.0000 0.0034052556
C   C28       1.0  0.73340  0.59240  0.57570  1.0000 -0.1060734673
C   C29       1.0  0.66250  0.45290  0.56250  1.0000 -0.1001593659
C   C30       1.0  0.76850  0.45790  0.56500  1.0000 0.0155290782
C   C31       1.0  0.94880  0.60600  0.58410  1.0000 -0.0575691427
C   C32       1.0  0.01570  0.74470  0.59630  1.0000 -0.0675660597
C   C33       1.0  0.68290  0.30790  0.54280  1.0000 0.6397443598
C   C34       1.0  0.06720  0.61640  0.58820  1.0000 0.6470961159
C   C35       1.0  0.80820  0.49720  0.92780  1.0000 0.6209260111
C   C36       1.0  0.85900  0.65120  0.89150  1.0000 -0.0324785935
C   C37       1.0  0.77820  0.65800  0.90730  1.0000 -0.0894972488
C   C38       1.0  0.81900  0.79780  0.87930  1.0000 -0.0089583069
C   C39       1.0  0.93760  0.92780  0.83440  1.0000 -0.1001593659
C   C40       1.0  0.01260  0.91700  0.81740  1.0000 -0.0894972488
C   C41       1.0  0.97850  0.78090  0.84550  1.0000 0.0086356538
C   C42       1.0  0.06220  0.77800  0.82010  1.0000 0.6104818916
C   C43       1.0  0.71490  0.78550  0.89540  1.0000 0.3657432979
C   C44       1.0  0.79190  0.94110  0.90600  1.0000 0.0086356538
C   C45       1.0  0.67960  0.92420  0.90590  1.0000 -0.0821526276
C   C46       1.0  0.73850  0.05390  0.92380  1.0000 -0.0324785935
C   C47       1.0  0.91560  0.20420  0.94090  1.0000 0.0034052556
C   C48       1.0  0.03070  0.22570  0.93870  1.0000 -0.0894972488
C   C49       1.0  0.96940  0.09360  0.92120  1.0000 -0.1060734673
C   C50       1.0  0.60460  0.02160  0.92420  1.0000 0.6397443598
C   C51       1.0  0.99300  0.34540  0.96730  1.0000 0.6470961159
C   C52       1.0  0.49720  0.80820  0.07220  1.0000 0.6209260111
C   C53       1.0  0.65120  0.85900  0.10850  1.0000 -0.0324785935
C   C54       1.0  0.65800  0.77820  0.09270  1.0000 -0.0894972488
C   C55       1.0  0.79780  0.81900  0.12070  1.0000 -0.0089583069
C   C56       1.0  0.92780  0.93760  0.16560  1.0000 -0.1001593659
C   C57       1.0  0.91700  0.01260  0.18260  1.0000 -0.0894972488
C   C58       1.0  0.78090  0.97850  0.15450  1.0000 0.0086356538
C   C59       1.0  0.77800  0.06220  0.17990  1.0000 0.6104818916
C   C60       1.0  0.78550  0.71490  0.10460  1.0000 0.3657432979
C   C61       1.0  0.94110  0.79190  0.09400  1.0000 0.0086356538
C   C62       1.0  0.92420  0.67960  0.09410  1.0000 -0.0821526276
C   C63       1.0  0.05390  0.73850  0.07620  1.0000 -0.0324785935
C   C64       1.0  0.20420  0.91560  0.05910  1.0000 0.0034052556
C   C65       1.0  0.22570  0.03070  0.06130  1.0000 -0.0894972488
C   C66       1.0  0.09360  0.96940  0.07880  1.0000 -0.1060734673
C   C67       1.0  0.02160  0.60460  0.07580  1.0000 0.6397443598
C   C68       1.0  0.34540  0.99300  0.03270  1.0000 0.6470961159
O   O1        1.0  0.14232  0.74648  0.45842  1.0000 -0.7235090548
O   O2        1.0  0.31040  0.00440  0.47181  1.0000 -0.5547987635
O   O3        1.0  0.87133  0.52907  0.35632  1.0000 -0.6100512782
O   O4        1.0  0.02546  0.76714  0.28090  1.0000 -0.4706823344
O   O5        1.0  0.04162  0.14178  0.41390  1.0000 -0.3649329359
O   O6        1.0  0.16645  0.59055  0.41800  1.0000 -0.5706170911
O   O7        1.0  0.33355  0.70325  0.51577  1.0000 -0.6598440523
O   O8        1.0  0.49095  0.00485  0.42501  1.0000 -0.6100512782
O   O9        1.0  0.75726  0.22914  0.39785  1.0000 -0.6100512782
O   O10       1.0  0.74648  0.14232  0.54158  1.0000 -0.7235090548
O   O11       1.0  0.00440  0.31040  0.52819  1.0000 -0.5547987635
O   O12       1.0  0.52907  0.87133  0.64368  1.0000 -0.6100512782
O   O13       1.0  0.76714  0.02546  0.71910  1.0000 -0.4706823344
O   O14       1.0  0.14178  0.04162  0.58610  1.0000 -0.3649329359
O   O15       1.0  0.59055  0.16645  0.58200  1.0000 -0.5706170911
O   O16       1.0  0.70325  0.33355  0.48423  1.0000 -0.6598440523
O   O17       1.0  0.00485  0.49095  0.57499  1.0000 -0.6100512782
O   O18       1.0  0.22914  0.75726  0.60215  1.0000 -0.6100512782
O   O19       1.0  0.92358  0.51542  0.94823  1.0000 -0.743648749
O   O20       1.0  0.65817  0.35623  0.94003  1.0000 -0.5379842932
O   O21       1.0  0.17057  0.79523  0.85987  1.0000 -0.6100512782
O   O22       1.0  0.01982  0.76178  0.75950  1.0000 -0.4706823344
O   O23       1.0  0.56230  0.64450  0.90100  1.0000 -0.3769822532
O   O24       1.0  0.45003  0.86817  0.92190  1.0000 -0.6032061393
O   O25       1.0  0.65349  0.14491  0.92794  1.0000 -0.6154154355
O   O26       1.0  0.94839  0.30801  0.02070  1.0000 -0.6598440523
O   O27       1.0  0.10480  0.49560  0.93550  1.0000 -0.5772088582
O   O28       1.0  0.51542  0.92358  0.05177  1.0000 -0.743648749
O   O29       1.0  0.35623  0.65817  0.05997  1.0000 -0.5379842932
O   O30       1.0  0.79523  0.17057  0.14013  1.0000 -0.6100512782
O   O31       1.0  0.76178  0.01982  0.24050  1.0000 -0.4706823344
O   O32       1.0  0.64450  0.56230  0.09900  1.0000 -0.3769822532
O   O33       1.0  0.86817  0.45003  0.07810  1.0000 -0.6032061393
O   O34       1.0  0.14491  0.65349  0.07206  1.0000 -0.6154154355
O   O35       1.0  0.30801  0.94839  0.97930  1.0000 -0.6598440523
O   O36       1.0  0.49560  0.10480  0.06450  1.0000 -0.5772088582
