# DDEC6 charges by PACMAN v1.1 (https://github.com/mtap-research/PACMAN-charge/)
data_2017[Ag][hcb]2[ASR]17
_chemical_formula_sum              "Ag2 H42 C54 N6 O12"
_cell_length_a       9.4705
_cell_length_b       12.9165
_cell_length_c       15.2835
_cell_angle_alpha    106.265
_cell_angle_beta     91.822
_cell_angle_gamma    103.328

_symmetry_space_group_name_H-M    "P 1"
_symmetry_Int_Tables_number       1

loop_
  _symmetry_equiv_pos_as_xyz
  'x, y, z'

loop_
  _atom_site_type_symbol
  _atom_site_label
  _atom_site_symmetry_multiplicity
  _atom_site_fract_x
  _atom_site_fract_y
  _atom_site_fract_z
  _atom_site_occupancy
  _atom_site_charge
Ag  Ag1       1.0  0.73190  0.90697  0.28336  1.0000 0.2287022759
Ag  Ag2       1.0  0.26810  0.09303  0.71664  1.0000 0.2287022759
H   H1        1.0  0.76670  0.98010  0.50140  1.0000 0.0903546328
H   H2        1.0  0.72410  0.10930  0.62930  1.0000 0.1308643048
H   H3        1.0  0.52170  0.23530  0.46100  1.0000 0.1308643048
H   H4        1.0  0.56960  0.10140  0.33780  1.0000 0.1007752893
H   H5        1.0  0.43750  0.38870  0.74330  1.0000 0.1007752893
H   H6        1.0  0.58160  0.47400  0.72930  1.0000 0.1081093689
H   H7        1.0  0.83380  0.69430  0.17290  1.0000 0.1007752893
H   H8        1.0  0.97030  0.57250  0.18840  1.0000 0.1394513836
H   H9        1.0  0.01300  0.71410  0.46120  1.0000 0.1308643048
H   H10       1.0  0.88460  0.83750  0.43830  1.0000 0.0903546328
H   H11       1.0  0.14190  0.41040  0.42270  1.0000 0.1081093689
H   H12       1.0  0.29450  0.48330  0.40560  1.0000 0.1007752893
H   H13       1.0  0.78190  0.97730  0.10250  1.0000 0.0903546328
H   H14       1.0  0.67530  0.94780  0.95450  1.0000 0.1308643048
H   H15       1.0  0.32410  0.74170  0.01080  1.0000 0.1308643048
H   H16       1.0  0.43890  0.77770  0.15450  1.0000 0.1081093689
H   H17       1.0  0.10830  0.69660  0.76700  1.0000 0.1167157525
H   H18       1.0  0.23380  0.78850  0.74360  1.0000 0.1007752893
H   H19       1.0  0.38670  0.58800  0.78910  1.0000 0.1167157525
H   H20       1.0  0.37830  0.40390  0.52760  1.0000 0.1167157525
H   H21       1.0  0.15870  0.64440  0.58660  1.0000 0.1167157525
H   H22       1.0  0.23330  0.01990  0.49860  1.0000 0.0903546328
H   H23       1.0  0.27590  0.89070  0.37070  1.0000 0.1308643048
H   H24       1.0  0.47830  0.76470  0.53900  1.0000 0.1308643048
H   H25       1.0  0.43040  0.89860  0.66220  1.0000 0.1007752893
H   H26       1.0  0.56250  0.61130  0.25670  1.0000 0.1007752893
H   H27       1.0  0.41840  0.52600  0.27070  1.0000 0.1081093689
H   H28       1.0  0.16620  0.30570  0.82710  1.0000 0.1007752893
H   H29       1.0  0.02970  0.42750  0.81160  1.0000 0.1394513836
H   H30       1.0  0.98700  0.28590  0.53880  1.0000 0.1308643048
H   H31       1.0  0.11540  0.16250  0.56170  1.0000 0.0903546328
H   H32       1.0  0.85810  0.58960  0.57730  1.0000 0.1081093689
H   H33       1.0  0.70550  0.51670  0.59440  1.0000 0.1007752893
H   H34       1.0  0.21810  0.02270  0.89750  1.0000 0.0903546328
H   H35       1.0  0.32470  0.05220  0.04550  1.0000 0.1308643048
H   H36       1.0  0.67590  0.25830  0.98920  1.0000 0.1308643048
H   H37       1.0  0.56110  0.22230  0.84550  1.0000 0.1081093689
H   H38       1.0  0.89170  0.30340  0.23300  1.0000 0.1167157525
H   H39       1.0  0.76620  0.21150  0.25640  1.0000 0.1007752893
H   H40       1.0  0.61330  0.41200  0.21090  1.0000 0.1167157525
H   H41       1.0  0.62170  0.59610  0.47240  1.0000 0.1167157525
H   H42       1.0  0.84130  0.35560  0.41340  1.0000 0.1167157525
C   C1        1.0  0.71620  0.03290  0.49330  1.0000 0.0334749485
C   C2        1.0  0.69140  0.10930  0.56990  1.0000 -0.1775742332
C   C3        1.0  0.61730  0.18680  0.55890  1.0000 0.0122363613
C   C4        1.0  0.57220  0.18330  0.47090  1.0000 -0.1708344902
C   C5        1.0  0.60160  0.10350  0.39800  1.0000 0.0417674424
C   C6        1.0  0.59220  0.27130  0.64300  1.0000 0.4860650887
C   C7        1.0  0.48780  0.42230  0.69840  1.0000 -0.0884981165
C   C8        1.0  0.87290  0.69970  0.23250  1.0000 0.0417674424
C   C9        1.0  0.95230  0.62580  0.24100  1.0000 -0.1603128734
C   C10       1.0  0.00540  0.63060  0.32760  1.0000 0.0122363613
C   C11       1.0  0.97850  0.70940  0.40090  1.0000 -0.1708344902
C   C12       1.0  0.90110  0.78210  0.38660  1.0000 0.0334749485
C   C13       1.0  0.08760  0.54640  0.33680  1.0000 0.4965912392
C   C14       1.0  0.20940  0.48560  0.44150  1.0000 -0.0831779252
C   C15       1.0  0.68740  0.92860  0.08320  1.0000 0.0417674424
C   C16       1.0  0.62440  0.91170  0.99460  1.0000 -0.1603128734
C   C17       1.0  0.48750  0.84180  0.96690  1.0000 -0.0084393651
C   C18       1.0  0.41850  0.79100  0.02790  1.0000 -0.1708344902
C   C19       1.0  0.48830  0.81260  0.11310  1.0000 0.0549129499
C   C20       1.0  0.41820  0.82340  0.87360  1.0000 0.4860650887
C   C21       1.0  0.21480  0.72160  0.76510  1.0000 -0.097355024
C   C22       1.0  0.26640  0.63030  0.69850  1.0000 0.1007752893
C   C23       1.0  0.35390  0.57040  0.72600  1.0000 -0.220320191
C   C24       1.0  0.39380  0.48510  0.66270  1.0000 0.1081093689
C   C25       1.0  0.34850  0.46100  0.57140  1.0000 -0.220320191
C   C26       1.0  0.25900  0.51950  0.54240  1.0000 0.1007752893
C   C27       1.0  0.21910  0.60390  0.60600  1.0000 -0.220320191
C   C28       1.0  0.28380  0.96710  0.50670  1.0000 0.0417674424
C   C29       1.0  0.30860  0.89070  0.43010  1.0000 -0.1775742332
C   C30       1.0  0.38270  0.81320  0.44110  1.0000 0.0122363613
C   C31       1.0  0.42780  0.81670  0.52910  1.0000 -0.1708344902
C   C32       1.0  0.39840  0.89650  0.60200  1.0000 0.0417674424
C   C33       1.0  0.40780  0.72870  0.35700  1.0000 0.4845435013
C   C34       1.0  0.51220  0.57770  0.30160  1.0000 -0.0884981165
C   C35       1.0  0.12710  0.30030  0.76750  1.0000 0.0417674424
C   C36       1.0  0.04770  0.37420  0.75900  1.0000 -0.1603128734
C   C37       1.0  0.99460  0.36940  0.67240  1.0000 0.0122363613
C   C38       1.0  0.02150  0.29060  0.59910  1.0000 -0.1708344902
C   C39       1.0  0.09890  0.21790  0.61340  1.0000 0.0334749485
C   C40       1.0  0.91240  0.45360  0.66320  1.0000 0.4965912392
C   C41       1.0  0.79060  0.51440  0.55850  1.0000 -0.0831779252
C   C42       1.0  0.31260  0.07140  0.91680  1.0000 0.0417674424
C   C43       1.0  0.37560  0.08830  0.00540  1.0000 -0.1603128734
C   C44       1.0  0.51250  0.15820  0.03310  1.0000 -0.0084393651
C   C45       1.0  0.58150  0.20900  0.97210  1.0000 -0.1708344902
C   C46       1.0  0.51170  0.18740  0.88690  1.0000 0.055231153
C   C47       1.0  0.58180  0.17660  0.12640  1.0000 0.4860650887
C   C48       1.0  0.78520  0.27840  0.23490  1.0000 -0.097355024
C   C49       1.0  0.73360  0.36970  0.30150  1.0000 0.1007752893
C   C50       1.0  0.64610  0.42960  0.27400  1.0000 -0.220320191
C   C51       1.0  0.60620  0.51490  0.33730  1.0000 0.1081093689
C   C52       1.0  0.65150  0.53900  0.42860  1.0000 -0.220320191
C   C53       1.0  0.74100  0.48050  0.45760  1.0000 0.1007752893
C   C54       1.0  0.78090  0.39610  0.39400  1.0000 -0.220320191
N   N1        1.0  0.67350  0.02800  0.40750  1.0000 -0.1988313357
N   N2        1.0  0.84780  0.77870  0.30360  1.0000 -0.1919926713
N   N3        1.0  0.62030  0.87910  0.14160  1.0000 -0.1988313357
N   N4        1.0  0.32650  0.97200  0.59250  1.0000 -0.1988313357
N   N5        1.0  0.15220  0.22130  0.69640  1.0000 -0.1919926713
N   N6        1.0  0.37970  0.12090  0.85840  1.0000 -0.1988313357
O   O1        1.0  0.63880  0.28060  0.71940  1.0000 -0.4754482816
O   O2        1.0  0.51410  0.33630  0.62180  1.0000 -0.2302178415
O   O3        1.0  0.10820  0.47420  0.27420  1.0000 -0.452967466
O   O4        1.0  0.13660  0.56550  0.42420  1.0000 -0.2438765625
O   O5        1.0  0.47270  0.86890  0.82020  1.0000 -0.4706526707
O   O6        1.0  0.28810  0.75020  0.85660  1.0000 -0.2302178415
O   O7        1.0  0.36120  0.71940  0.28060  1.0000 -0.4754482816
O   O8        1.0  0.48590  0.66370  0.37820  1.0000 -0.2302178415
O   O9        1.0  0.89180  0.52580  0.72580  1.0000 -0.452967466
O   O10       1.0  0.86340  0.43450  0.57580  1.0000 -0.2438765625
O   O11       1.0  0.52730  0.13110  0.17980  1.0000 -0.4706526707
O   O12       1.0  0.71190  0.24980  0.14340  1.0000 -0.2302178415
