# DDEC6 charges by PACMAN v1.1 (https://github.com/mtap-research/PACMAN-charge/)
data_2017[Cu][cpr]2[ASR]1
_chemical_formula_sum              "Cu4 H16 C16 O24"
_cell_length_a       8.3488
_cell_length_b       8.7335
_cell_length_c       12.0342
_cell_angle_alpha    90
_cell_angle_beta     104.104
_cell_angle_gamma    90

_symmetry_space_group_name_H-M    "P 1"
_symmetry_Int_Tables_number       1

loop_
  _symmetry_equiv_pos_as_xyz
  'x, y, z'

loop_
  _atom_site_type_symbol
  _atom_site_label
  _atom_site_symmetry_multiplicity
  _atom_site_fract_x
  _atom_site_fract_y
  _atom_site_fract_z
  _atom_site_occupancy
  _atom_site_charge
Cu  Cu1       1.0  0.80857  0.47987  0.97396  1.0000 0.870554962
Cu  Cu2       1.0  0.66913  0.48020  0.52209  1.0000 0.870554962
Cu  Cu3       1.0  0.19143  0.97987  0.02604  1.0000 0.870554962
Cu  Cu4       1.0  0.33087  0.98020  0.47791  1.0000 0.870554962
H   H1        1.0  0.99050  0.35900  0.87900  1.0000 0.3761345826
H   H2        1.0  0.65900  0.41900  0.73300  1.0000 0.3232704483
H   H3        1.0  0.55400  0.66200  0.81300  1.0000 0.3678078287
H   H4        1.0  0.92300  0.61100  0.63700  1.0000 0.3761345826
H   H5        1.0  0.88860  0.13030  0.83930  1.0000 0.1115264677
H   H6        1.0  0.62470  0.13060  0.69200  1.0000 0.120666989
H   H7        1.0  0.67870  0.84370  0.80270  1.0000 0.1278666787
H   H8        1.0  0.83710  0.83170  0.65970  1.0000 0.1365358018
H   H9        1.0  0.00950  0.85900  0.12100  1.0000 0.3761345826
H   H10       1.0  0.34100  0.91900  0.26700  1.0000 0.3232704483
H   H11       1.0  0.44600  0.16200  0.18700  1.0000 0.3678078287
H   H12       1.0  0.07700  0.11100  0.36300  1.0000 0.3761345826
H   H13       1.0  0.11140  0.63030  0.16070  1.0000 0.1115264677
H   H14       1.0  0.37530  0.63060  0.30800  1.0000 0.120666989
H   H15       1.0  0.32130  0.34370  0.19730  1.0000 0.1278666787
H   H16       1.0  0.16290  0.33170  0.34030  1.0000 0.1365358018
C   C1        1.0  0.69250  0.18940  0.91140  1.0000 0.5504448198
C   C2        1.0  0.80490  0.21420  0.82970  1.0000 -0.0060263988
C   C3        1.0  0.70220  0.21980  0.70470  1.0000 0.0024445588
C   C4        1.0  0.81590  0.20350  0.62390  1.0000 0.5610385917
C   C5        1.0  0.90850  0.75690  0.88220  1.0000 0.575270512
C   C6        1.0  0.74170  0.74920  0.79330  1.0000 -0.001048665
C   C7        1.0  0.76050  0.74780  0.67020  1.0000 0.0024445588
C   C8        1.0  0.59170  0.77060  0.58640  1.0000 0.575270512
C   C9        1.0  0.30750  0.68940  0.08860  1.0000 0.5504448198
C   C10       1.0  0.19510  0.71420  0.17030  1.0000 -0.0060263988
C   C11       1.0  0.29780  0.71980  0.29530  1.0000 0.0024445588
C   C12       1.0  0.18410  0.70350  0.37610  1.0000 0.5610385917
C   C13       1.0  0.09150  0.25690  0.11780  1.0000 0.575270512
C   C14       1.0  0.25830  0.24920  0.20670  1.0000 -0.001048665
C   C15       1.0  0.23950  0.24780  0.32980  1.0000 0.0024445588
C   C16       1.0  0.40830  0.27060  0.41360  1.0000 0.5746986054
O   O1        1.0  0.66590  0.30450  0.96978  1.0000 -0.5190419175
O   O2        1.0  0.62960  0.06130  0.91515  1.0000 -0.4990788914
O   O3        1.0  0.88630  0.35940  0.85501  1.0000 -0.4506283917
O   O4        1.0  0.60600  0.35690  0.68537  1.0000 -0.4506283917
O   O5        1.0  0.81520  0.30480  0.54703  1.0000 -0.5527358867
O   O6        1.0  0.90230  0.08630  0.63544  1.0000 -0.5086657025
O   O7        1.0  0.94480  0.65200  0.95847  1.0000 -0.5527358867
O   O8        1.0  0.99700  0.86950  0.87678  1.0000 -0.525159619
O   O9        1.0  0.64520  0.62090  0.81195  1.0000 -0.4606429256
O   O10       1.0  0.82470  0.60340  0.64518  1.0000 -0.4449679769
O   O11       1.0  0.53790  0.66440  0.51554  1.0000 -0.493732474
O   O12       1.0  0.51830  0.89350  0.59322  1.0000 -0.4825877763
O   O13       1.0  0.33410  0.80450  0.03022  1.0000 -0.5190419175
O   O14       1.0  0.37040  0.56130  0.08485  1.0000 -0.4990788914
O   O15       1.0  0.11370  0.85940  0.14499  1.0000 -0.4506283917
O   O16       1.0  0.39400  0.85690  0.31463  1.0000 -0.4506283917
O   O17       1.0  0.18480  0.80480  0.45297  1.0000 -0.5527358867
O   O18       1.0  0.09770  0.58630  0.36456  1.0000 -0.5086657025
O   O19       1.0  0.05520  0.15200  0.04153  1.0000 -0.5527358867
O   O20       1.0  0.00300  0.36950  0.12322  1.0000 -0.525159619
O   O21       1.0  0.35480  0.12090  0.18805  1.0000 -0.4606429256
O   O22       1.0  0.17530  0.10340  0.35482  1.0000 -0.4449679769
O   O23       1.0  0.46210  0.16440  0.48446  1.0000 -0.493732474
O   O24       1.0  0.48170  0.39350  0.40678  1.0000 -0.4825877763
