# DDEC6 charges by PACMAN v1.1 (https://github.com/mtap-research/PACMAN-charge/)
data_2017[Sm][nan]3[ASR]3
_chemical_formula_sum              "Sm4 H60 C96 N4 O32"
_cell_length_a       15.858
_cell_length_b       10.522
_cell_length_c       20.97
_cell_angle_alpha    90
_cell_angle_beta     107.52
_cell_angle_gamma    90

_symmetry_space_group_name_H-M    "P 1"
_symmetry_Int_Tables_number       1

loop_
  _symmetry_equiv_pos_as_xyz
  'x, y, z'

loop_
  _atom_site_type_symbol
  _atom_site_label
  _atom_site_symmetry_multiplicity
  _atom_site_fract_x
  _atom_site_fract_y
  _atom_site_fract_z
  _atom_site_occupancy
  _atom_site_charge
Sm  Sm1       1.0  0.60068  0.92073  0.45392  1.0000 2.1467501258
Sm  Sm2       1.0  0.39932  0.92073  0.04608  1.0000 2.1467501258
Sm  Sm3       1.0  0.39932  0.07927  0.54608  1.0000 2.1431165075
Sm  Sm4       1.0  0.60068  0.07927  0.95392  1.0000 2.1431165075
H   H1        1.0  0.29320  0.29190  0.34620  1.0000 0.1293128541
H   H2        1.0  0.70680  0.29190  0.15380  1.0000 0.1293128541
H   H3        1.0  0.70680  0.70810  0.65380  1.0000 0.1293128541
H   H4        1.0  0.29320  0.70810  0.84620  1.0000 0.1293128541
H   H5        1.0  0.43150  0.02580  0.28180  1.0000 0.1395314967
H   H6        1.0  0.56850  0.02580  0.21820  1.0000 0.1395314967
H   H7        1.0  0.56850  0.97420  0.71820  1.0000 0.1395314967
H   H8        1.0  0.43150  0.97420  0.78180  1.0000 0.1395314967
H   H9        1.0  0.23570  0.21400  0.14950  1.0000 0.1293128541
H   H10       1.0  0.76430  0.21400  0.35050  1.0000 0.1293128541
H   H11       1.0  0.76430  0.78600  0.85050  1.0000 0.1293128541
H   H12       1.0  0.23570  0.78600  0.64950  1.0000 0.1293128541
H   H13       1.0  0.12050  0.48810  0.16250  1.0000 0.1205160954
H   H14       1.0  0.87950  0.48810  0.33750  1.0000 0.1205160954
H   H15       1.0  0.87950  0.51190  0.83750  1.0000 0.1205160954
H   H16       1.0  0.12050  0.51190  0.66250  1.0000 0.1205160954
H   H17       1.0  0.17040  0.38420  0.13430  1.0000 0.1293128541
H   H18       1.0  0.82960  0.38420  0.36570  1.0000 0.1293128541
H   H19       1.0  0.82960  0.61580  0.86570  1.0000 0.1293128541
H   H20       1.0  0.17040  0.61580  0.63430  1.0000 0.1293128541
H   H21       1.0  0.07700  0.18950  0.21200  1.0000 0.1205160954
H   H22       1.0  0.92300  0.18950  0.28800  1.0000 0.1205160954
H   H23       1.0  0.92300  0.81050  0.78800  1.0000 0.1205160954
H   H24       1.0  0.07700  0.81050  0.71200  1.0000 0.1205160954
H   H25       1.0  0.94900  0.07430  0.17210  1.0000 0.1205160954
H   H26       1.0  0.05100  0.07430  0.32790  1.0000 0.1205160954
H   H27       1.0  0.05100  0.92570  0.82790  1.0000 0.1205160954
H   H28       1.0  0.94900  0.92570  0.67210  1.0000 0.1205160954
H   H29       1.0  0.86540  0.31700  0.02020  1.0000 0.1293128541
H   H30       1.0  0.13460  0.31700  0.47980  1.0000 0.1293128541
H   H31       1.0  0.13460  0.68300  0.97980  1.0000 0.1293128541
H   H32       1.0  0.86540  0.68300  0.52020  1.0000 0.1293128541
H   H33       1.0  0.99310  0.43260  0.06020  1.0000 0.1205160954
H   H34       1.0  0.00690  0.43260  0.43980  1.0000 0.1205160954
H   H35       1.0  0.00690  0.56740  0.93980  1.0000 0.1205160954
H   H36       1.0  0.99310  0.56740  0.56020  1.0000 0.1205160954
H   H37       1.0  0.09950  0.45040  0.26840  1.0000 0.1205160954
H   H38       1.0  0.90050  0.45040  0.23160  1.0000 0.1205160954
H   H39       1.0  0.90050  0.54960  0.73160  1.0000 0.1205160954
H   H40       1.0  0.09950  0.54960  0.76840  1.0000 0.1205160954
H   H41       1.0  0.16220  0.35680  0.31910  1.0000 0.1205160954
H   H42       1.0  0.83780  0.35680  0.18090  1.0000 0.1205160954
H   H43       1.0  0.83780  0.64320  0.68090  1.0000 0.1205160954
H   H44       1.0  0.16220  0.64320  0.81910  1.0000 0.1205160954
H   H45       1.0  0.31230  0.52450  0.27570  1.0000 0.1205160954
H   H46       1.0  0.68770  0.52450  0.22430  1.0000 0.1205160954
H   H47       1.0  0.68770  0.47550  0.72430  1.0000 0.1205160954
H   H48       1.0  0.31230  0.47550  0.77570  1.0000 0.1205160954
H   H49       1.0  0.39880  0.68700  0.33450  1.0000 0.1293128541
H   H50       1.0  0.60120  0.68700  0.16550  1.0000 0.1293128541
H   H51       1.0  0.60120  0.31300  0.66550  1.0000 0.1293128541
H   H52       1.0  0.39880  0.31300  0.83450  1.0000 0.1293128541
H   H53       1.0  0.22220  0.74890  0.43300  1.0000 0.1395314967
H   H54       1.0  0.77780  0.74890  0.06700  1.0000 0.1395314967
H   H55       1.0  0.77780  0.25110  0.56700  1.0000 0.1395314967
H   H56       1.0  0.22220  0.25110  0.93300  1.0000 0.1395314967
H   H57       1.0  0.13890  0.57950  0.37750  1.0000 0.1102473331
H   H58       1.0  0.86110  0.57950  0.12250  1.0000 0.1205160954
H   H59       1.0  0.86110  0.42050  0.62250  1.0000 0.1102473331
H   H60       1.0  0.13890  0.42050  0.87750  1.0000 0.1102473331
C   C1        1.0  0.25130  0.27210  0.24490  1.0000 0.1763243711
C   C2        1.0  0.74870  0.27210  0.25510  1.0000 0.1763243711
C   C3        1.0  0.74870  0.72790  0.75510  1.0000 0.1763243711
C   C4        1.0  0.25130  0.72790  0.74490  1.0000 0.1763243711
C   C5        1.0  0.30350  0.24730  0.31100  1.0000 -0.1983805692
C   C6        1.0  0.69650  0.24730  0.18900  1.0000 -0.1983805692
C   C7        1.0  0.69650  0.75270  0.68900  1.0000 -0.1983805692
C   C8        1.0  0.30350  0.75270  0.81100  1.0000 -0.1983805692
C   C9        1.0  0.37060  0.15630  0.32400  1.0000 0.0071353324
C   C10       1.0  0.62940  0.15630  0.17600  1.0000 0.0071353324
C   C11       1.0  0.62940  0.84370  0.67600  1.0000 0.0071353324
C   C12       1.0  0.37060  0.84370  0.82400  1.0000 0.0071353324
C   C13       1.0  0.38670  0.08620  0.27280  1.0000 -0.1144213269
C   C14       1.0  0.61330  0.08620  0.22720  1.0000 -0.1144213269
C   C15       1.0  0.61330  0.91380  0.72720  1.0000 -0.1144213269
C   C16       1.0  0.38670  0.91380  0.77280  1.0000 -0.1144213269
C   C17       1.0  0.33380  0.10880  0.20800  1.0000 0.0251906885
C   C18       1.0  0.66620  0.10880  0.29200  1.0000 0.0248110795
C   C19       1.0  0.66620  0.89120  0.79200  1.0000 0.0248110795
C   C20       1.0  0.33380  0.89120  0.70800  1.0000 0.0251906885
C   C21       1.0  0.26880  0.19980  0.19370  1.0000 -0.1983805692
C   C22       1.0  0.73120  0.19980  0.30630  1.0000 -0.1983805692
C   C23       1.0  0.73120  0.80020  0.80630  1.0000 -0.1983805692
C   C24       1.0  0.26880  0.80020  0.69370  1.0000 -0.1983805692
C   C25       1.0  0.34600  0.03170  0.15050  1.0000 0.5740046537
C   C26       1.0  0.65400  0.03170  0.34950  1.0000 0.5740046537
C   C27       1.0  0.65400  0.96830  0.84950  1.0000 0.5740046537
C   C28       1.0  0.34600  0.96830  0.65050  1.0000 0.5740046537
C   C29       1.0  0.42400  0.13350  0.39600  1.0000 0.659483928
C   C30       1.0  0.57600  0.13350  0.10400  1.0000 0.659483928
C   C31       1.0  0.57600  0.86650  0.60400  1.0000 0.659483928
C   C32       1.0  0.42400  0.86650  0.89600  1.0000 0.659483928
C   C33       1.0  0.13540  0.39850  0.16440  1.0000 -0.1790465379
C   C34       1.0  0.86460  0.39850  0.33560  1.0000 -0.1790465379
C   C35       1.0  0.86460  0.60150  0.83560  1.0000 -0.1790465379
C   C36       1.0  0.13540  0.60150  0.66440  1.0000 -0.1790465379
C   C37       1.0  0.05050  0.32150  0.14030  1.0000 0.1102473331
C   C38       1.0  0.94950  0.32150  0.35970  1.0000 0.1102473331
C   C39       1.0  0.94950  0.67850  0.85970  1.0000 0.1102473331
C   C40       1.0  0.05050  0.67850  0.64030  1.0000 0.1102473331
C   C41       1.0  0.03480  0.21520  0.17280  1.0000 -0.1570960918
C   C42       1.0  0.96520  0.21520  0.32720  1.0000 -0.1570960918
C   C43       1.0  0.96520  0.78480  0.82720  1.0000 -0.1570960918
C   C44       1.0  0.03480  0.78480  0.67280  1.0000 -0.1570960918
C   C45       1.0  0.95830  0.14570  0.14890  1.0000 -0.0891760059
C   C46       1.0  0.04170  0.14570  0.35110  1.0000 -0.0891760059
C   C47       1.0  0.04170  0.85430  0.85110  1.0000 -0.0891760059
C   C48       1.0  0.95830  0.85430  0.64890  1.0000 -0.0891760059
C   C49       1.0  0.89540  0.18220  0.09060  1.0000 -0.0281386061
C   C50       1.0  0.10460  0.18220  0.40940  1.0000 -0.0281386061
C   C51       1.0  0.10460  0.81780  0.90940  1.0000 -0.0281386061
C   C52       1.0  0.89540  0.81780  0.59060  1.0000 -0.0281386061
C   C53       1.0  0.90860  0.29020  0.05860  1.0000 -0.0891760059
C   C54       1.0  0.09140  0.29020  0.44140  1.0000 -0.0891760059
C   C55       1.0  0.09140  0.70980  0.94140  1.0000 -0.0891760059
C   C56       1.0  0.90860  0.70980  0.55860  1.0000 -0.0891760059
C   C57       1.0  0.98500  0.35950  0.08260  1.0000 -0.1790465379
C   C58       1.0  0.01500  0.35950  0.41740  1.0000 -0.1790465379
C   C59       1.0  0.01500  0.64050  0.91740  1.0000 -0.1790465379
C   C60       1.0  0.98500  0.64050  0.58260  1.0000 -0.1790465379
C   C61       1.0  0.81270  0.10700  0.06270  1.0000 0.6018337345
C   C62       1.0  0.18730  0.10700  0.43730  1.0000 0.6018337345
C   C63       1.0  0.18730  0.89300  0.93730  1.0000 0.6018337345
C   C64       1.0  0.81270  0.89300  0.56270  1.0000 0.6018337345
C   C65       1.0  0.16030  0.42230  0.28620  1.0000 -0.1694475228
C   C66       1.0  0.83970  0.42230  0.21380  1.0000 -0.1694475228
C   C67       1.0  0.83970  0.57770  0.71380  1.0000 -0.1694475228
C   C68       1.0  0.16030  0.57770  0.78620  1.0000 -0.1694475228
C   C69       1.0  0.21690  0.53390  0.32060  1.0000 0.1102473331
C   C70       1.0  0.78310  0.53390  0.17940  1.0000 0.1102473331
C   C71       1.0  0.78310  0.46610  0.67940  1.0000 0.1102473331
C   C72       1.0  0.21690  0.46610  0.82060  1.0000 0.1102473331
C   C73       1.0  0.29450  0.56790  0.30810  1.0000 -0.1510904098
C   C74       1.0  0.70550  0.56790  0.19190  1.0000 -0.1510904098
C   C75       1.0  0.70550  0.43210  0.69190  1.0000 -0.1510904098
C   C76       1.0  0.29450  0.43210  0.80810  1.0000 -0.1510904098
C   C77       1.0  0.34640  0.66600  0.34330  1.0000 -0.0781717787
C   C78       1.0  0.65360  0.66600  0.15670  1.0000 -0.0781717787
C   C79       1.0  0.65360  0.33400  0.65670  1.0000 -0.0781717787
C   C80       1.0  0.34640  0.33400  0.84330  1.0000 -0.0781717787
C   C81       1.0  0.32140  0.73210  0.39060  1.0000 -0.0194664292
C   C82       1.0  0.67860  0.73210  0.10940  1.0000 -0.0194664292
C   C83       1.0  0.67860  0.26790  0.60940  1.0000 -0.0194664292
C   C84       1.0  0.32140  0.26790  0.89060  1.0000 -0.0194664292
C   C85       1.0  0.38060  0.83210  0.43100  1.0000 0.659483928
C   C86       1.0  0.61940  0.83210  0.06900  1.0000 0.659483928
C   C87       1.0  0.61940  0.16790  0.56900  1.0000 0.659483928
C   C88       1.0  0.38060  0.16790  0.93100  1.0000 0.659483928
C   C89       1.0  0.24130  0.70190  0.40240  1.0000 -0.0614382305
C   C90       1.0  0.75870  0.70190  0.09760  1.0000 -0.0614382305
C   C91       1.0  0.75870  0.29810  0.59760  1.0000 -0.0614382305
C   C92       1.0  0.24130  0.29810  0.90240  1.0000 -0.0614382305
C   C93       1.0  0.19080  0.60160  0.36830  1.0000 -0.1694475228
C   C94       1.0  0.80920  0.60160  0.13170  1.0000 -0.1694475228
C   C95       1.0  0.80920  0.39840  0.63170  1.0000 -0.1694475228
C   C96       1.0  0.19080  0.39840  0.86830  1.0000 -0.1694475228
N   N1        1.0  0.18840  0.36730  0.23190  1.0000 -0.0614382305
N   N2        1.0  0.81160  0.36730  0.26810  1.0000 -0.0614382305
N   N3        1.0  0.81160  0.63270  0.76810  1.0000 -0.0614382305
N   N4        1.0  0.18840  0.63270  0.73190  1.0000 -0.0614382305
O   O1        1.0  0.75870  0.13440  0.01030  1.0000 -0.5787856643
O   O2        1.0  0.24130  0.13440  0.48970  1.0000 -0.5787856643
O   O3        1.0  0.24130  0.86560  0.98970  1.0000 -0.5787856643
O   O4        1.0  0.75870  0.86560  0.51030  1.0000 -0.574980464
O   O5        1.0  0.80460  0.01020  0.09890  1.0000 -0.5462046528
O   O6        1.0  0.19540  0.01020  0.40110  1.0000 -0.5462046528
O   O7        1.0  0.19540  0.98980  0.90110  1.0000 -0.5462046528
O   O8        1.0  0.80460  0.98980  0.59890  1.0000 -0.5462046528
O   O9        1.0  0.39440  0.93430  0.16210  1.0000 -0.6404214168
O   O10       1.0  0.60560  0.93430  0.33790  1.0000 -0.6404214168
O   O11       1.0  0.60560  0.06570  0.83790  1.0000 -0.6404214168
O   O12       1.0  0.39440  0.06570  0.66210  1.0000 -0.6404214168
O   O13       1.0  0.49760  0.07860  0.40700  1.0000 -0.6864439512
O   O14       1.0  0.50240  0.07860  0.09300  1.0000 -0.6864439512
O   O15       1.0  0.50240  0.92140  0.59300  1.0000 -0.6864439512
O   O16       1.0  0.49760  0.92140  0.90700  1.0000 -0.6864439512
O   O17       1.0  0.39160  0.16930  0.44060  1.0000 -0.6518785918
O   O18       1.0  0.60840  0.16930  0.05940  1.0000 -0.6518785918
O   O19       1.0  0.60840  0.83070  0.55940  1.0000 -0.6518785918
O   O20       1.0  0.39160  0.83070  0.94060  1.0000 -0.6518785918
O   O21       1.0  0.31110  0.07080  0.09160  1.0000 -0.6092516447
O   O22       1.0  0.68890  0.07080  0.40840  1.0000 -0.6092516447
O   O23       1.0  0.68890  0.92920  0.90840  1.0000 -0.6092516447
O   O24       1.0  0.31110  0.92920  0.59160  1.0000 -0.6092516447
O   O25       1.0  0.45970  0.82990  0.43360  1.0000 -0.6777846778
O   O26       1.0  0.54030  0.82990  0.06640  1.0000 -0.6777846778
O   O27       1.0  0.54030  0.17010  0.56640  1.0000 -0.6777846778
O   O28       1.0  0.45970  0.17010  0.93360  1.0000 -0.6777846778
O   O29       1.0  0.34740  0.91260  0.46140  1.0000 -0.6175675953
O   O30       1.0  0.65260  0.91260  0.03860  1.0000 -0.6175675953
O   O31       1.0  0.65260  0.08740  0.53860  1.0000 -0.6175675953
O   O32       1.0  0.34740  0.08740  0.96140  1.0000 -0.6175675953
