# DDEC6 charges by PACMAN v1.1 (https://github.com/mtap-research/PACMAN-charge/)
data_2017[Mn][nan]3[ASR]5
_chemical_formula_sum              "Mn8 H24 C64 N8 O52"
_cell_length_a       15.5986
_cell_length_b       15.5986
_cell_length_c       13.4894
_cell_angle_alpha    77.9239
_cell_angle_beta     102.076
_cell_angle_gamma    115.927

_symmetry_space_group_name_H-M    "P 1"
_symmetry_Int_Tables_number       1

loop_
  _symmetry_equiv_pos_as_xyz
  'x, y, z'

loop_
  _atom_site_type_symbol
  _atom_site_label
  _atom_site_symmetry_multiplicity
  _atom_site_fract_x
  _atom_site_fract_y
  _atom_site_fract_z
  _atom_site_occupancy
  _atom_site_charge
Mn  Mn1       1.0  0.55156  0.29176  0.85149  1.0000 0.986312207
Mn  Mn2       1.0  0.29176  0.55156  0.64851  1.0000 0.986312207
Mn  Mn3       1.0  0.44844  0.70824  0.14851  1.0000 0.986312207
Mn  Mn4       1.0  0.70824  0.44844  0.35149  1.0000 0.986312207
Mn  Mn5       1.0  0.67522  0.33156  0.61392  1.0000 1.086452868
Mn  Mn6       1.0  0.33156  0.67522  0.88608  1.0000 1.0841868783
Mn  Mn7       1.0  0.32478  0.66844  0.38608  1.0000 1.0841868783
Mn  Mn8       1.0  0.66844  0.32478  0.11392  1.0000 1.086452868
H   H1        1.0  0.74910  0.64650  0.00680  1.0000 0.1433611607
H   H2        1.0  0.64650  0.74910  0.49320  1.0000 0.1433611607
H   H3        1.0  0.25090  0.35350  0.99320  1.0000 0.1433611607
H   H4        1.0  0.35350  0.25090  0.50680  1.0000 0.1433611607
H   H5        1.0  0.49630  0.55350  0.82380  1.0000 0.1341274047
H   H6        1.0  0.55350  0.49630  0.67620  1.0000 0.1341274047
H   H7        1.0  0.50370  0.44650  0.17620  1.0000 0.1341274047
H   H8        1.0  0.44650  0.50370  0.32380  1.0000 0.1341274047
H   H9        1.0  0.68090  0.07470  0.67100  1.0000 0.1502651835
H   H10       1.0  0.07470  0.68090  0.82900  1.0000 0.1502651835
H   H11       1.0  0.31910  0.92530  0.32900  1.0000 0.1502651835
H   H12       1.0  0.92530  0.31910  0.17100  1.0000 0.1502651835
H   H13       1.0  0.55310  0.99910  0.92570  1.0000 0.1433611607
H   H14       1.0  0.99910  0.55310  0.57430  1.0000 0.1433611607
H   H15       1.0  0.44690  0.00090  0.07430  1.0000 0.1433611607
H   H16       1.0  0.00090  0.44690  0.42570  1.0000 0.1433611607
H   H17       1.0  0.62910  0.29470  0.41760  1.0000 0.3763503993
H   H18       1.0  0.29470  0.62910  0.08240  1.0000 0.3763503993
H   H19       1.0  0.37090  0.70530  0.58240  1.0000 0.3763503993
H   H20       1.0  0.70530  0.37090  0.91760  1.0000 0.3763503993
H   H21       1.0  0.72860  0.28880  0.45590  1.0000 0.4087747896
H   H22       1.0  0.28880  0.72860  0.04410  1.0000 0.4087747896
H   H23       1.0  0.27140  0.71120  0.54410  1.0000 0.4087747896
H   H24       1.0  0.71120  0.27140  0.95590  1.0000 0.4087747896
C   C1        1.0  0.61190  0.48170  0.95310  1.0000 0.5984802285
C   C2        1.0  0.48170  0.61190  0.54690  1.0000 0.5984802285
C   C3        1.0  0.38810  0.51830  0.04690  1.0000 0.5984802285
C   C4        1.0  0.51830  0.38810  0.45310  1.0000 0.5984802285
C   C5        1.0  0.62060  0.58320  0.92040  1.0000 -0.0055383459
C   C6        1.0  0.58320  0.62060  0.57960  1.0000 -0.0055383459
C   C7        1.0  0.37940  0.41680  0.07960  1.0000 -0.0055383459
C   C8        1.0  0.41680  0.37940  0.42040  1.0000 -0.0055383459
C   C9        1.0  0.70150  0.65890  0.96010  1.0000 -0.1278699821
C   C10       1.0  0.65890  0.70150  0.53990  1.0000 -0.1278699821
C   C11       1.0  0.29850  0.34110  0.03990  1.0000 -0.1278699821
C   C12       1.0  0.34110  0.29850  0.46010  1.0000 -0.1278699821
C   C13       1.0  0.71040  0.75560  0.92830  1.0000 0.0112984305
C   C14       1.0  0.75560  0.71040  0.57170  1.0000 0.0112984305
C   C15       1.0  0.28960  0.24440  0.07170  1.0000 0.0112984305
C   C16       1.0  0.24440  0.28960  0.42830  1.0000 0.0112984305
C   C17       1.0  0.63770  0.77690  0.85610  1.0000 0.0305809119
C   C18       1.0  0.77690  0.63770  0.64390  1.0000 0.0305809119
C   C19       1.0  0.36230  0.22310  0.14390  1.0000 0.0305809119
C   C20       1.0  0.22310  0.36230  0.35610  1.0000 0.0305809119
C   C21       1.0  0.55750  0.69970  0.81880  1.0000 -0.0605477223
C   C22       1.0  0.69970  0.55750  0.68120  1.0000 -0.0605477223
C   C23       1.0  0.44250  0.30030  0.18120  1.0000 -0.0605477223
C   C24       1.0  0.30030  0.44250  0.31880  1.0000 -0.0605477223
C   C25       1.0  0.55000  0.60400  0.85050  1.0000 -0.0963091792
C   C26       1.0  0.60400  0.55000  0.64950  1.0000 -0.0963091792
C   C27       1.0  0.45000  0.39600  0.14950  1.0000 -0.0963091792
C   C28       1.0  0.39600  0.45000  0.35050  1.0000 -0.0963091792
C   C29       1.0  0.63670  0.87630  0.83510  1.0000 0.0171258177
C   C30       1.0  0.87630  0.63670  0.66490  1.0000 0.0171258177
C   C31       1.0  0.36330  0.12370  0.16490  1.0000 0.0171258177
C   C32       1.0  0.12370  0.36330  0.33510  1.0000 0.0171258177
C   C33       1.0  0.67020  0.94540  0.74910  1.0000 0.0475349214
C   C34       1.0  0.94540  0.67020  0.75090  1.0000 0.0475349214
C   C35       1.0  0.32980  0.05460  0.25090  1.0000 0.0475349214
C   C36       1.0  0.05460  0.32980  0.24910  1.0000 0.0475349214
C   C37       1.0  0.65960  0.03160  0.72880  1.0000 -0.1437439358
C   C38       1.0  0.03160  0.65960  0.77120  1.0000 -0.1456108129
C   C39       1.0  0.34040  0.96840  0.27120  1.0000 -0.1456108129
C   C40       1.0  0.96840  0.34040  0.22880  1.0000 -0.1456108129
C   C41       1.0  0.61620  0.05280  0.79710  1.0000 0.0026257953
C   C42       1.0  0.05280  0.61620  0.70290  1.0000 0.0026257953
C   C43       1.0  0.38380  0.94720  0.20290  1.0000 0.0026257953
C   C44       1.0  0.94720  0.38380  0.29710  1.0000 0.0026257953
C   C45       1.0  0.58230  0.98570  0.88100  1.0000 -0.114835765
C   C46       1.0  0.98570  0.58230  0.61900  1.0000 -0.1158428327
C   C47       1.0  0.41770  0.01430  0.11900  1.0000 -0.1158428327
C   C48       1.0  0.01430  0.41770  0.38100  1.0000 -0.1158428327
C   C49       1.0  0.59130  0.89790  0.89950  1.0000 -0.0434601584
C   C50       1.0  0.89790  0.59130  0.60050  1.0000 -0.0434601584
C   C51       1.0  0.40870  0.10210  0.10050  1.0000 -0.0434601584
C   C52       1.0  0.10210  0.40870  0.39950  1.0000 -0.0434601584
C   C53       1.0  0.54950  0.82550  0.99090  1.0000 0.5875161404
C   C54       1.0  0.82550  0.54950  0.50910  1.0000 0.5875161404
C   C55       1.0  0.45050  0.17450  0.00910  1.0000 0.5875161404
C   C56       1.0  0.17450  0.45050  0.49090  1.0000 0.5875161404
C   C57       1.0  0.60280  0.14740  0.77610  1.0000 0.5984802285
C   C58       1.0  0.14740  0.60280  0.72390  1.0000 0.5984802285
C   C59       1.0  0.39720  0.85260  0.22390  1.0000 0.5984802285
C   C60       1.0  0.85260  0.39720  0.27610  1.0000 0.5984802285
C   C61       1.0  0.47860  0.71620  0.73920  1.0000 0.5794979596
C   C62       1.0  0.71620  0.47860  0.76080  1.0000 0.5794979596
C   C63       1.0  0.52140  0.28380  0.26080  1.0000 0.5794979596
C   C64       1.0  0.28380  0.52140  0.23920  1.0000 0.5794979596
N   N1        1.0  0.79790  0.83050  0.97070  1.0000 0.5081766808
N   N2        1.0  0.83050  0.79790  0.52930  1.0000 0.5081766808
N   N3        1.0  0.20210  0.16950  0.02930  1.0000 0.5081766808
N   N4        1.0  0.16950  0.20210  0.47070  1.0000 0.5081766808
N   N5        1.0  0.71970  0.92750  0.67740  1.0000 0.519787755
N   N6        1.0  0.92750  0.71970  0.82260  1.0000 0.519787755
N   N7        1.0  0.28030  0.07250  0.32260  1.0000 0.519787755
N   N8        1.0  0.07250  0.28030  0.17740  1.0000 0.519787755
O   O1        1.0  0.55849  0.42151  0.88980  1.0000 -0.5938817596
O   O2        1.0  0.42151  0.55849  0.61020  1.0000 -0.5938817596
O   O3        1.0  0.44151  0.57849  0.11020  1.0000 -0.5938817596
O   O4        1.0  0.57849  0.44151  0.38980  1.0000 -0.5938817596
O   O5        1.0  0.65736  0.46164  0.03860  1.0000 -0.5696093774
O   O6        1.0  0.46164  0.65736  0.46140  1.0000 -0.5696093774
O   O7        1.0  0.34264  0.53836  0.96140  1.0000 -0.5696093774
O   O8        1.0  0.53836  0.34264  0.53860  1.0000 -0.5696093774
O   O9        1.0  0.75000  0.86500  0.70260  1.0000 -0.3175919538
O   O10       1.0  0.86500  0.75000  0.79740  1.0000 -0.3175919538
O   O11       1.0  0.25000  0.13500  0.29740  1.0000 -0.3175919538
O   O12       1.0  0.13500  0.25000  0.20260  1.0000 -0.3175919538
O   O13       1.0  0.72560  0.97500  0.59120  1.0000 -0.3097633755
O   O14       1.0  0.97500  0.72560  0.90880  1.0000 -0.3097633755
O   O15       1.0  0.27440  0.02500  0.40880  1.0000 -0.3097633755
O   O16       1.0  0.02500  0.27440  0.09120  1.0000 -0.3097633755
O   O17       1.0  0.84360  0.80920  0.04760  1.0000 -0.2064140922
O   O18       1.0  0.80920  0.84360  0.45240  1.0000 -0.2064140922
O   O19       1.0  0.15640  0.19080  0.95240  1.0000 -0.2064140922
O   O20       1.0  0.19080  0.15640  0.54760  1.0000 -0.2036950028
O   O21       1.0  0.81960  0.91420  0.93110  1.0000 -0.2885929978
O   O22       1.0  0.91420  0.81960  0.56890  1.0000 -0.2885929978
O   O23       1.0  0.18040  0.08580  0.06890  1.0000 -0.2846518492
O   O24       1.0  0.08580  0.18040  0.43110  1.0000 -0.2846518492
O   O25       1.0  0.60460  0.18940  0.68500  1.0000 -0.556440953
O   O26       1.0  0.18940  0.60460  0.81500  1.0000 -0.556440953
O   O27       1.0  0.39540  0.81060  0.31500  1.0000 -0.556440953
O   O28       1.0  0.81060  0.39540  0.18500  1.0000 -0.556440953
O   O29       1.0  0.58840  0.17460  0.85040  1.0000 -0.5696093774
O   O30       1.0  0.17460  0.58840  0.64960  1.0000 -0.5696093774
O   O31       1.0  0.41160  0.82540  0.14960  1.0000 -0.5696093774
O   O32       1.0  0.82540  0.41160  0.35040  1.0000 -0.5696093774
O   O33       1.0  0.46250  0.76510  0.97610  1.0000 -0.6020915246
O   O34       1.0  0.76510  0.46250  0.52390  1.0000 -0.6020915246
O   O35       1.0  0.53750  0.23490  0.02390  1.0000 -0.6020915246
O   O36       1.0  0.23490  0.53750  0.47610  1.0000 -0.6020915246
O   O37       1.0  0.59690  0.82730  0.07690  1.0000 -0.4884783065
O   O38       1.0  0.82730  0.59690  0.42310  1.0000 -0.4884783065
O   O39       1.0  0.40310  0.17270  0.92310  1.0000 -0.4884783065
O   O40       1.0  0.17270  0.40310  0.57690  1.0000 -0.4884783065
O   O41       1.0  0.39063  0.66317  0.75620  1.0000 -0.6374266034
O   O42       1.0  0.66317  0.39063  0.74380  1.0000 -0.6374266034
O   O43       1.0  0.60937  0.33683  0.24380  1.0000 -0.6374266034
O   O44       1.0  0.33683  0.60937  0.25620  1.0000 -0.6374266034
O   O45       1.0  0.50075  0.77565  0.66060  1.0000 -0.4884783065
O   O46       1.0  0.77565  0.50075  0.83940  1.0000 -0.4884783065
O   O47       1.0  0.49925  0.22435  0.33940  1.0000 -0.4884783065
O   O48       1.0  0.22435  0.49925  0.16060  1.0000 -0.4884783065
O   O49       1.0  0.66530  0.26950  0.47250  1.0000 -0.7087882196
O   O50       1.0  0.26950  0.66530  0.02750  1.0000 -0.7087882196
O   O51       1.0  0.33470  0.73050  0.52750  1.0000 -0.7087882196
O   O52       1.0  0.73050  0.33470  0.97250  1.0000 -0.7087882196
