# DDEC6 charges by PACMAN v1.1 (https://github.com/mtap-research/PACMAN-charge/)
data_2017[Zn][kgd]2[ASR]1
_chemical_formula_sum              "Zn24 P16 H192 C336 O96"
_cell_length_a       27.1825
_cell_length_b       27.1825
_cell_length_c       27.1825
_cell_angle_alpha    125.416
_cell_angle_beta     125.416
_cell_angle_gamma    80.8506

_symmetry_space_group_name_H-M    "P 1"
_symmetry_Int_Tables_number       1

loop_
  _symmetry_equiv_pos_as_xyz
  'x, y, z'

loop_
  _atom_site_type_symbol
  _atom_site_label
  _atom_site_symmetry_multiplicity
  _atom_site_fract_x
  _atom_site_fract_y
  _atom_site_fract_z
  _atom_site_occupancy
  _atom_site_charge
Zn  Zn1       1.0  0.02829  0.70124  0.13059  1.0000 0.9222957115
Zn  Zn2       1.0  0.57065  0.89770  0.86941  1.0000 0.9222957115
Zn  Zn3       1.0  0.67935  0.04876  0.82705  1.0000 0.9222957115
Zn  Zn4       1.0  0.22171  0.85230  0.17295  1.0000 0.9222957115
Zn  Zn5       1.0  0.72171  0.54876  0.36941  1.0000 0.9222957115
Zn  Zn6       1.0  0.17935  0.35230  0.63059  1.0000 0.9222957115
Zn  Zn7       1.0  0.07065  0.20124  0.67295  1.0000 0.9222957115
Zn  Zn8       1.0  0.52829  0.39770  0.32705  1.0000 0.9222957115
Zn  Zn9       1.0  0.62500  0.50693  0.38193  1.0000 1.0041714679
Zn  Zn10      1.0  0.12500  0.24307  0.61807  1.0000 1.0041714679
Zn  Zn11      1.0  0.12500  0.74307  0.11807  1.0000 1.0041714679
Zn  Zn12      1.0  0.62500  0.00693  0.88193  1.0000 1.0041714679
Zn  Zn13      1.0  0.64770  0.27829  0.82705  1.0000 0.9222957115
Zn  Zn14      1.0  0.45124  0.82065  0.17295  1.0000 0.9222957115
Zn  Zn15      1.0  0.79876  0.47171  0.86941  1.0000 0.9222957115
Zn  Zn16      1.0  0.60230  0.92935  0.13059  1.0000 0.9222957115
Zn  Zn17      1.0  0.10230  0.97171  0.67295  1.0000 0.9222957115
Zn  Zn18      1.0  0.29876  0.42935  0.32705  1.0000 0.9222957115
Zn  Zn19      1.0  0.95124  0.77829  0.63059  1.0000 0.9222957115
Zn  Zn20      1.0  0.14770  0.32065  0.36941  1.0000 0.9222957115
Zn  Zn21      1.0  0.99307  0.87500  0.61807  1.0000 1.0041714679
Zn  Zn22      1.0  0.25693  0.37500  0.38193  1.0000 1.0041714679
Zn  Zn23      1.0  0.75693  0.37500  0.88193  1.0000 1.0041714679
Zn  Zn24      1.0  0.49307  0.87500  0.11807  1.0000 1.0041714679
P   P1        1.0  0.87748  0.38813  0.66497  1.0000 0.1395812897
P   P2        1.0  0.72316  0.21251  0.33503  1.0000 0.1395812897
P   P3        1.0  0.52684  0.36187  0.98935  1.0000 0.1395812897
P   P4        1.0  0.37252  0.53749  0.01065  1.0000 0.1395812897
P   P5        1.0  0.87252  0.86187  0.83503  1.0000 0.1395812897
P   P6        1.0  0.02684  0.03749  0.16497  1.0000 0.1395812897
P   P7        1.0  0.22316  0.88813  0.51065  1.0000 0.1395812897
P   P8        1.0  0.37748  0.71251  0.48935  1.0000 0.1395812897
P   P9        1.0  0.96251  0.12748  0.98935  1.0000 0.1395812897
P   P10       1.0  0.13813  0.97316  0.01065  1.0000 0.1395812897
P   P11       1.0  0.11187  0.62252  0.33503  1.0000 0.1395812897
P   P12       1.0  0.28749  0.77684  0.66497  1.0000 0.1395812897
P   P13       1.0  0.78749  0.12252  0.51065  1.0000 0.1395812897
P   P14       1.0  0.61187  0.27684  0.48935  1.0000 0.1395812897
P   P15       1.0  0.63813  0.62748  0.16497  1.0000 0.1395812897
P   P16       1.0  0.46251  0.47316  0.83503  1.0000 0.1395812897
H   H1        1.0  0.85814  0.49629  0.65869  1.0000 0.1180812371
H   H2        1.0  0.77586  0.51150  0.57252  1.0000 0.1302049996
H   H3        1.0  0.67219  0.34248  0.45639  1.0000 0.1109494727
H   H4        1.0  0.75430  0.32801  0.54011  1.0000 0.1042097877
H   H5        1.0  0.99317  0.36284  0.71985  1.0000 0.1180812371
H   H6        1.0  0.06818  0.35065  0.70297  1.0000 0.1302049996
H   H7        1.0  0.96717  0.38524  0.55195  1.0000 0.1180812371
H   H8        1.0  0.89337  0.40124  0.57155  1.0000 0.1109494727
H   H9        1.0  0.88323  0.42767  0.78908  1.0000 0.1180812371
H   H10       1.0  0.93331  0.51483  0.91492  1.0000 0.1302049996
H   H11       1.0  0.02096  0.59522  0.89106  1.0000 0.1302049996
H   H12       1.0  0.96849  0.51006  0.76525  1.0000 0.1109494727
H   H13       1.0  0.83760  0.19945  0.34131  1.0000 0.1180812371
H   H14       1.0  0.93898  0.20335  0.42748  1.0000 0.1302049996
H   H15       1.0  0.88609  0.21580  0.54361  1.0000 0.1109494727
H   H16       1.0  0.78790  0.21419  0.45989  1.0000 0.1042097877
H   H17       1.0  0.64299  0.27332  0.28015  1.0000 0.1180812371
H   H18       1.0  0.64768  0.36521  0.29703  1.0000 0.1302049996
H   H19       1.0  0.83329  0.41522  0.44805  1.0000 0.1180812371
H   H20       1.0  0.82969  0.32182  0.42845  1.0000 0.1109494727
H   H21       1.0  0.63859  0.09415  0.21092  1.0000 0.1180812371
H   H22       1.0  0.59991  0.01839  0.08508  1.0000 0.1302049996
H   H23       1.0  0.70416  0.12990  0.10894  1.0000 0.1302049996
H   H24       1.0  0.74481  0.20324  0.23475  1.0000 0.1109494727
H   H25       1.0  0.41240  0.25371  0.86185  1.0000 0.1180812371
H   H26       1.0  0.31102  0.23850  0.76436  1.0000 0.1302049996
H   H27       1.0  0.36391  0.40752  0.82971  1.0000 0.1109494727
H   H28       1.0  0.46210  0.42199  0.92629  1.0000 0.1042097877
H   H29       1.0  0.60701  0.38716  0.13033  1.0000 0.1180812371
H   H30       1.0  0.60232  0.39935  0.21753  1.0000 0.1302049996
H   H31       1.0  0.41671  0.36476  0.08193  1.0000 0.1180812371
H   H32       1.0  0.42031  0.34876  0.99213  1.0000 0.1109494727
H   H33       1.0  0.61141  0.32233  0.95556  1.0000 0.1180812371
H   H34       1.0  0.65009  0.23517  0.91848  1.0000 0.1302049996
H   H35       1.0  0.54584  0.15478  0.92574  1.0000 0.1302049996
H   H36       1.0  0.50519  0.23994  0.95843  1.0000 0.1109494727
H   H37       1.0  0.39186  0.55055  0.13815  1.0000 0.1180812371
H   H38       1.0  0.47413  0.54666  0.23564  1.0000 0.1302049996
H   H39       1.0  0.57781  0.53420  0.17029  1.0000 0.1109494727
H   H40       1.0  0.49570  0.53581  0.07371  1.0000 0.1042097877
H   H41       1.0  0.25683  0.47668  0.86967  1.0000 0.1180812371
H   H42       1.0  0.18182  0.38479  0.78247  1.0000 0.1302049996
H   H43       1.0  0.28283  0.33478  0.91807  1.0000 0.1180812371
H   H44       1.0  0.35663  0.42818  0.00787  1.0000 0.1109494727
H   H45       1.0  0.36677  0.65585  0.04444  1.0000 0.1180812371
H   H46       1.0  0.31669  0.73161  0.08152  1.0000 0.1302049996
H   H47       1.0  0.22904  0.62010  0.07426  1.0000 0.1302049996
H   H48       1.0  0.28151  0.54676  0.04157  1.0000 0.1109494727
H   H49       1.0  0.89186  0.75371  0.84131  1.0000 0.1180812371
H   H50       1.0  0.97413  0.73850  0.92748  1.0000 0.1302049996
H   H51       1.0  0.07781  0.90752  0.04361  1.0000 0.1109494727
H   H52       1.0  0.99570  0.92199  0.95989  1.0000 0.1042097877
H   H53       1.0  0.75683  0.88716  0.78015  1.0000 0.1180812371
H   H54       1.0  0.68182  0.89935  0.79703  1.0000 0.1302049996
H   H55       1.0  0.78283  0.86476  0.94805  1.0000 0.1180812371
H   H56       1.0  0.85663  0.84876  0.92845  1.0000 0.1109494727
H   H57       1.0  0.86677  0.82233  0.71092  1.0000 0.1180812371
H   H58       1.0  0.81669  0.73517  0.58508  1.0000 0.1302049996
H   H59       1.0  0.72904  0.65478  0.60894  1.0000 0.1302049996
H   H60       1.0  0.78151  0.73994  0.73475  1.0000 0.1109494727
H   H61       1.0  0.91240  0.05055  0.15869  1.0000 0.1180812371
H   H62       1.0  0.81102  0.04666  0.07252  1.0000 0.1302049996
H   H63       1.0  0.86391  0.03420  0.95639  1.0000 0.1109494727
H   H64       1.0  0.96210  0.03581  0.04011  1.0000 0.1042097877
H   H65       1.0  0.10701  0.97668  0.21985  1.0000 0.1180812371
H   H66       1.0  0.10232  0.88479  0.20297  1.0000 0.1302049996
H   H67       1.0  0.91671  0.83478  0.05195  1.0000 0.1180812371
H   H68       1.0  0.92031  0.92818  0.07155  1.0000 0.1109494727
H   H69       1.0  0.11141  0.15585  0.28908  1.0000 0.1180812371
H   H70       1.0  0.15009  0.23161  0.41492  1.0000 0.1302049996
H   H71       1.0  0.04584  0.12010  0.39106  1.0000 0.1302049996
H   H72       1.0  0.00519  0.04676  0.26525  1.0000 0.1109494727
H   H73       1.0  0.33760  0.99629  0.63815  1.0000 0.1180812371
H   H74       1.0  0.43898  0.01150  0.73564  1.0000 0.1302049996
H   H75       1.0  0.38609  0.84248  0.67029  1.0000 0.1109494727
H   H76       1.0  0.28790  0.82801  0.57371  1.0000 0.1042097877
H   H77       1.0  0.14299  0.86284  0.36967  1.0000 0.1180812371
H   H78       1.0  0.14768  0.85065  0.28247  1.0000 0.1302049996
H   H79       1.0  0.33329  0.88524  0.41807  1.0000 0.1180812371
H   H80       1.0  0.32969  0.90124  0.50787  1.0000 0.1109494727
H   H81       1.0  0.13859  0.92767  0.54444  1.0000 0.1180812371
H   H82       1.0  0.09991  0.01483  0.58152  1.0000 0.1302049996
H   H83       1.0  0.20416  0.09522  0.57426  1.0000 0.1302049996
H   H84       1.0  0.24481  0.01006  0.54157  1.0000 0.1109494727
H   H85       1.0  0.35814  0.69945  0.36185  1.0000 0.1180812371
H   H86       1.0  0.27587  0.70335  0.26436  1.0000 0.1302049996
H   H87       1.0  0.17219  0.71580  0.32971  1.0000 0.1109494727
H   H88       1.0  0.25430  0.71419  0.42629  1.0000 0.1042097877
H   H89       1.0  0.49317  0.77332  0.63033  1.0000 0.1180812371
H   H90       1.0  0.56818  0.86521  0.71753  1.0000 0.1302049996
H   H91       1.0  0.46717  0.91522  0.58193  1.0000 0.1180812371
H   H92       1.0  0.39337  0.82182  0.49213  1.0000 0.1109494727
H   H93       1.0  0.38323  0.59415  0.45556  1.0000 0.1180812371
H   H94       1.0  0.43331  0.51839  0.41848  1.0000 0.1302049996
H   H95       1.0  0.52096  0.62990  0.42574  1.0000 0.1302049996
H   H96       1.0  0.46849  0.70324  0.45843  1.0000 0.1109494727
H   H97       1.0  0.94945  0.10814  0.86185  1.0000 0.1180812371
H   H98       1.0  0.95334  0.02587  0.76436  1.0000 0.1302049996
H   H99       1.0  0.96580  0.92219  0.82971  1.0000 0.1109494727
H   H100      1.0  0.96419  0.00430  0.92629  1.0000 0.1042097877
H   H101      1.0  0.02332  0.24317  0.13033  1.0000 0.1180812371
H   H102      1.0  0.11521  0.31818  0.21753  1.0000 0.1302049996
H   H103      1.0  0.16522  0.21717  0.08193  1.0000 0.1180812371
H   H104      1.0  0.07182  0.14337  0.99213  1.0000 0.1109494727
H   H105      1.0  0.84415  0.13323  0.95556  1.0000 0.1180812371
H   H106      1.0  0.76839  0.18331  0.91848  1.0000 0.1302049996
H   H107      1.0  0.87990  0.27096  0.92574  1.0000 0.1302049996
H   H108      1.0  0.95324  0.21849  0.95843  1.0000 0.1109494727
H   H109      1.0  0.24629  0.08760  0.13815  1.0000 0.1180812371
H   H110      1.0  0.26150  0.18899  0.23564  1.0000 0.1302049996
H   H111      1.0  0.09248  0.13609  0.17029  1.0000 0.1109494727
H   H112      1.0  0.07801  0.03790  0.07371  1.0000 0.1042097877
H   H113      1.0  0.11284  0.89299  0.86967  1.0000 0.1180812371
H   H114      1.0  0.10065  0.89768  0.78247  1.0000 0.1302049996
H   H115      1.0  0.13524  0.08329  0.91807  1.0000 0.1180812371
H   H116      1.0  0.15124  0.07969  0.00787  1.0000 0.1109494727
H   H117      1.0  0.17767  0.88859  0.04444  1.0000 0.1180812371
H   H118      1.0  0.26483  0.84991  0.08152  1.0000 0.1302049996
H   H119      1.0  0.34522  0.95416  0.07426  1.0000 0.1302049996
H   H120      1.0  0.26006  0.99481  0.04157  1.0000 0.1109494727
H   H121      1.0  0.00371  0.64186  0.34131  1.0000 0.1180812371
H   H122      1.0  0.98850  0.72413  0.42748  1.0000 0.1302049996
H   H123      1.0  0.15752  0.82781  0.54361  1.0000 0.1109494727
H   H124      1.0  0.17199  0.74570  0.45989  1.0000 0.1042097877
H   H125      1.0  0.13716  0.50683  0.28015  1.0000 0.1180812371
H   H126      1.0  0.14935  0.43182  0.29703  1.0000 0.1302049996
H   H127      1.0  0.11476  0.53283  0.44805  1.0000 0.1180812371
H   H128      1.0  0.09876  0.60663  0.42845  1.0000 0.1109494727
H   H129      1.0  0.07233  0.61677  0.21092  1.0000 0.1180812371
H   H130      1.0  0.98517  0.56669  0.08508  1.0000 0.1302049996
H   H131      1.0  0.90478  0.47904  0.10894  1.0000 0.1302049996
H   H132      1.0  0.98994  0.53151  0.23475  1.0000 0.1109494727
H   H133      1.0  0.30055  0.66240  0.65869  1.0000 0.1180812371
H   H134      1.0  0.29666  0.56102  0.57252  1.0000 0.1302049996
H   H135      1.0  0.28420  0.61391  0.45639  1.0000 0.1109494727
H   H136      1.0  0.28581  0.71210  0.54011  1.0000 0.1042097877
H   H137      1.0  0.22668  0.85701  0.71985  1.0000 0.1180812371
H   H138      1.0  0.13479  0.85232  0.70297  1.0000 0.1302049996
H   H139      1.0  0.08478  0.66667  0.55195  1.0000 0.1180812371
H   H140      1.0  0.17818  0.67031  0.57155  1.0000 0.1109494727
H   H141      1.0  0.40585  0.86141  0.78908  1.0000 0.1180812371
H   H142      1.0  0.48161  0.90009  0.91492  1.0000 0.1302049996
H   H143      1.0  0.37010  0.79584  0.89106  1.0000 0.1302049996
H   H144      1.0  0.29676  0.75519  0.76525  1.0000 0.1109494727
H   H145      1.0  0.80055  0.14186  0.63815  1.0000 0.1180812371
H   H146      1.0  0.79666  0.22414  0.73564  1.0000 0.1302049996
H   H147      1.0  0.78420  0.32781  0.67029  1.0000 0.1109494727
H   H148      1.0  0.78581  0.24570  0.57371  1.0000 0.1042097877
H   H149      1.0  0.72668  0.00683  0.36967  1.0000 0.1180812371
H   H150      1.0  0.63479  0.93182  0.28247  1.0000 0.1302049996
H   H151      1.0  0.58478  0.03283  0.41807  1.0000 0.1180812371
H   H152      1.0  0.67818  0.10663  0.50787  1.0000 0.1109494727
H   H153      1.0  0.90585  0.11677  0.54444  1.0000 0.1180812371
H   H154      1.0  0.98161  0.06669  0.58152  1.0000 0.1302049996
H   H155      1.0  0.87010  0.97904  0.57426  1.0000 0.1302049996
H   H156      1.0  0.79676  0.03151  0.54157  1.0000 0.1109494727
H   H157      1.0  0.50371  0.16240  0.36185  1.0000 0.1180812371
H   H158      1.0  0.48849  0.06102  0.26436  1.0000 0.1302049996
H   H159      1.0  0.65752  0.11391  0.32971  1.0000 0.1109494727
H   H160      1.0  0.67199  0.21210  0.42629  1.0000 0.1042097877
H   H161      1.0  0.63716  0.35701  0.63033  1.0000 0.1180812371
H   H162      1.0  0.64935  0.35232  0.71753  1.0000 0.1302049996
H   H163      1.0  0.61476  0.16671  0.58193  1.0000 0.1180812371
H   H164      1.0  0.59876  0.17031  0.49213  1.0000 0.1109494727
H   H165      1.0  0.57233  0.36141  0.45556  1.0000 0.1180812371
H   H166      1.0  0.48517  0.40009  0.41848  1.0000 0.1302049996
H   H167      1.0  0.40478  0.29584  0.42574  1.0000 0.1302049996
H   H168      1.0  0.48994  0.25519  0.45843  1.0000 0.1109494727
H   H169      1.0  0.74629  0.60814  0.15869  1.0000 0.1180812371
H   H170      1.0  0.76150  0.52587  0.07252  1.0000 0.1302049996
H   H171      1.0  0.59248  0.42219  0.95639  1.0000 0.1109494727
H   H172      1.0  0.57801  0.50430  0.04011  1.0000 0.1042097877
H   H173      1.0  0.61284  0.74317  0.21985  1.0000 0.1180812371
H   H174      1.0  0.60065  0.81818  0.20297  1.0000 0.1302049996
H   H175      1.0  0.63524  0.71717  0.05195  1.0000 0.1180812371
H   H176      1.0  0.65124  0.64337  0.07155  1.0000 0.1109494727
H   H177      1.0  0.67767  0.63323  0.28908  1.0000 0.1180812371
H   H178      1.0  0.76483  0.68331  0.41492  1.0000 0.1302049996
H   H179      1.0  0.84522  0.77096  0.39106  1.0000 0.1302049996
H   H180      1.0  0.76006  0.71849  0.26525  1.0000 0.1109494727
H   H181      1.0  0.44945  0.58760  0.84131  1.0000 0.1180812371
H   H182      1.0  0.45334  0.68898  0.92748  1.0000 0.1302049996
H   H183      1.0  0.46580  0.63609  0.04361  1.0000 0.1109494727
H   H184      1.0  0.46419  0.53790  0.95989  1.0000 0.1042097877
H   H185      1.0  0.52332  0.39299  0.78015  1.0000 0.1180812371
H   H186      1.0  0.61521  0.39768  0.79703  1.0000 0.1302049996
H   H187      1.0  0.66522  0.58329  0.94805  1.0000 0.1180812371
H   H188      1.0  0.57182  0.57969  0.92845  1.0000 0.1109494727
H   H189      1.0  0.34415  0.38859  0.71092  1.0000 0.1180812371
H   H190      1.0  0.26839  0.34991  0.58508  1.0000 0.1302049996
H   H191      1.0  0.37990  0.45416  0.60894  1.0000 0.1302049996
H   H192      1.0  0.45324  0.49481  0.73475  1.0000 0.1109494727
C   C1        1.0  0.81540  0.40980  0.60640  1.0000 -0.03045924
C   C2        1.0  0.82082  0.46482  0.61700  1.0000 -0.1103567459
C   C3        1.0  0.77096  0.47466  0.56610  1.0000 -0.0865289002
C   C4        1.0  0.71374  0.42874  0.50540  1.0000 -0.03045924
C   C5        1.0  0.70950  0.37400  0.49690  1.0000 -0.0970973287
C   C6        1.0  0.75893  0.36503  0.54670  1.0000 -0.1383544974
C   C7        1.0  0.66000  0.43780  0.44980  1.0000 0.5994393896
C   C8        1.0  0.93395  0.38435  0.64800  1.0000 -0.0457109292
C   C9        1.0  0.98800  0.36830  0.68650  1.0000 -0.1103567459
C   C10       1.0  0.03266  0.36066  0.67620  1.0000 -0.0970973287
C   C11       1.0  0.02578  0.36748  0.62650  1.0000 -0.0102227652
C   C12       1.0  0.97272  0.38172  0.58680  1.0000 -0.0970973287
C   C13       1.0  0.92835  0.39065  0.59810  1.0000 -0.1228949485
C   C14       1.0  0.07510  0.35940  0.61450  1.0000 0.5806497741
C   C15       1.0  0.91895  0.45985  0.76250  1.0000 -0.0360699919
C   C16       1.0  0.91019  0.46179  0.80900  1.0000 -0.1268696237
C   C17       1.0  0.94089  0.51389  0.88520  1.0000 -0.0865289002
C   C18       1.0  0.98240  0.56380  0.91540  1.0000 -0.03045924
C   C19       1.0  0.99266  0.56186  0.87060  1.0000 -0.0865289002
C   C20       1.0  0.96116  0.51046  0.79490  1.0000 -0.1228949485
C   C21       1.0  0.01555  0.61975  0.99720  1.0000 0.5994393896
C   C22       1.0  0.80340  0.20900  0.39360  1.0000 -0.03045924
C   C23       1.0  0.84782  0.20382  0.38300  1.0000 -0.1103567459
C   C24       1.0  0.90856  0.20486  0.43390  1.0000 -0.0865289002
C   C25       1.0  0.92334  0.20834  0.49460  1.0000 -0.03045924
C   C26       1.0  0.87710  0.21260  0.50310  1.0000 -0.0970973287
C   C27       1.0  0.81833  0.21223  0.45330  1.0000 -0.1383544974
C   C28       1.0  0.98800  0.21020  0.55020  1.0000 0.5994393896
C   C29       1.0  0.73635  0.28595  0.35200  1.0000 -0.0457109292
C   C30       1.0  0.68180  0.30150  0.31350  1.0000 -0.1103567459
C   C31       1.0  0.68446  0.35646  0.32380  1.0000 -0.0970973287
C   C32       1.0  0.74098  0.39928  0.37350  1.0000 -0.0102227652
C   C33       1.0  0.79492  0.38592  0.41320  1.0000 -0.0970973287
C   C34       1.0  0.79255  0.33025  0.40190  1.0000 -0.1228949485
C   C35       1.0  0.74490  0.46060  0.38550  1.0000 0.5806497741
C   C36       1.0  0.69735  0.15645  0.23750  1.0000 -0.0360699919
C   C37       1.0  0.65279  0.10119  0.19100  1.0000 -0.1268696237
C   C38       1.0  0.62869  0.05569  0.11480  1.0000 -0.0865289002
C   C39       1.0  0.64840  0.06700  0.08460  1.0000 -0.03045924
C   C40       1.0  0.69126  0.12206  0.12940  1.0000 -0.0865289002
C   C41       1.0  0.71556  0.16626  0.20510  1.0000 -0.1228949485
C   C42       1.0  0.62255  0.01835  0.00280  1.0000 0.5994393896
C   C43       1.0  0.44660  0.34020  0.90560  1.0000 -0.03045924
C   C44       1.0  0.40218  0.28518  0.85600  1.0000 -0.1103567459
C   C45       1.0  0.34144  0.27534  0.79630  1.0000 -0.0865289002
C   C46       1.0  0.32666  0.32126  0.78500  1.0000 -0.03045924
C   C47       1.0  0.37290  0.37600  0.83550  1.0000 -0.0970973287
C   C48       1.0  0.43167  0.38497  0.89390  1.0000 -0.1383544974
C   C49       1.0  0.26200  0.31220  0.72220  1.0000 0.5994393896
C   C50       1.0  0.51365  0.36565  0.04960  1.0000 -0.0457109292
C   C51       1.0  0.56820  0.38170  0.11970  1.0000 -0.1103567459
C   C52       1.0  0.56554  0.38934  0.17200  1.0000 -0.0970973287
C   C53       1.0  0.50902  0.38252  0.15830  1.0000 -0.0102227652
C   C54       1.0  0.45508  0.36828  0.09100  1.0000 -0.0970973287
C   C55       1.0  0.45745  0.35935  0.03770  1.0000 -0.1228949485
C   C56       1.0  0.50510  0.39060  0.21570  1.0000 0.5806497741
C   C57       1.0  0.55265  0.29015  0.95910  1.0000 -0.0360699919
C   C58       1.0  0.59721  0.28821  0.94840  1.0000 -0.1268696237
C   C59       1.0  0.62131  0.23611  0.92700  1.0000 -0.0865289002
C   C60       1.0  0.60160  0.18620  0.91860  1.0000 -0.03045924
C   C61       1.0  0.55874  0.18814  0.93080  1.0000 -0.0865289002
C   C62       1.0  0.53444  0.23954  0.95070  1.0000 -0.1228949485
C   C63       1.0  0.62745  0.13025  0.89580  1.0000 0.5994393896
C   C64       1.0  0.43460  0.54100  0.09440  1.0000 -0.03045924
C   C65       1.0  0.42918  0.54618  0.14400  1.0000 -0.1103567459
C   C66       1.0  0.47904  0.54514  0.20370  1.0000 -0.0865289002
C   C67       1.0  0.53626  0.54166  0.21500  1.0000 -0.03045924
C   C68       1.0  0.54050  0.53740  0.16450  1.0000 -0.0970973287
C   C69       1.0  0.49107  0.53777  0.10610  1.0000 -0.1383544974
C   C70       1.0  0.59000  0.53980  0.27780  1.0000 0.5994393896
C   C71       1.0  0.31605  0.46405  0.95040  1.0000 -0.0457109292
C   C72       1.0  0.26200  0.44850  0.88030  1.0000 -0.1103567459
C   C73       1.0  0.21734  0.39354  0.82800  1.0000 -0.0970973287
C   C74       1.0  0.22422  0.35072  0.84170  1.0000 -0.0102227652
C   C75       1.0  0.27728  0.36408  0.90900  1.0000 -0.0970973287
C   C76       1.0  0.32165  0.41975  0.96230  1.0000 -0.1228949485
C   C77       1.0  0.17490  0.28940  0.78430  1.0000 0.5806497741
C   C78       1.0  0.33105  0.59355  0.04090  1.0000 -0.0360699919
C   C79       1.0  0.33981  0.64881  0.05160  1.0000 -0.1268696237
C   C80       1.0  0.30911  0.69431  0.07300  1.0000 -0.0865289002
C   C81       1.0  0.26760  0.68300  0.08140  1.0000 -0.03045924
C   C82       1.0  0.25734  0.62794  0.06920  1.0000 -0.0865289002
C   C83       1.0  0.28884  0.58374  0.04930  1.0000 -0.1228949485
C   C84       1.0  0.23445  0.73165  0.10420  1.0000 0.5994393896
C   C85       1.0  0.93460  0.84020  0.89360  1.0000 -0.03045924
C   C86       1.0  0.92918  0.78518  0.88300  1.0000 -0.1103567459
C   C87       1.0  0.97904  0.77534  0.93390  1.0000 -0.0865289002
C   C88       1.0  0.03626  0.82126  0.99460  1.0000 -0.03045924
C   C89       1.0  0.04050  0.87600  0.00310  1.0000 -0.0970973287
C   C90       1.0  0.99107  0.88497  0.95330  1.0000 -0.1383544974
C   C91       1.0  0.09000  0.81220  0.05020  1.0000 0.5994393896
C   C92       1.0  0.81605  0.86565  0.85200  1.0000 -0.0457109292
C   C93       1.0  0.76200  0.88170  0.81350  1.0000 -0.1103567459
C   C94       1.0  0.71734  0.88934  0.82380  1.0000 -0.0970973287
C   C95       1.0  0.72422  0.88252  0.87350  1.0000 -0.0102227652
C   C96       1.0  0.77728  0.86828  0.91320  1.0000 -0.0970973287
C   C97       1.0  0.82165  0.85935  0.90190  1.0000 -0.1228949485
C   C98       1.0  0.67490  0.89060  0.88550  1.0000 0.5806497741
C   C99       1.0  0.83105  0.79015  0.73750  1.0000 -0.0360699919
C   C100      1.0  0.83981  0.78821  0.69100  1.0000 -0.1268696237
C   C101      1.0  0.80911  0.73611  0.61480  1.0000 -0.0865289002
C   C102      1.0  0.76760  0.68620  0.58460  1.0000 -0.03045924
C   C103      1.0  0.75734  0.68814  0.62940  1.0000 -0.0865289002
C   C104      1.0  0.78884  0.73954  0.70510  1.0000 -0.1228949485
C   C105      1.0  0.73445  0.63025  0.50280  1.0000 0.5994393896
C   C106      1.0  0.94660  0.04100  0.10640  1.0000 -0.03045924
C   C107      1.0  0.90218  0.04618  0.11700  1.0000 -0.1103567459
C   C108      1.0  0.84144  0.04514  0.06610  1.0000 -0.0865289002
C   C109      1.0  0.82666  0.04166  0.00540  1.0000 -0.03045924
C   C110      1.0  0.87290  0.03740  0.99690  1.0000 -0.0970973287
C   C111      1.0  0.93167  0.03777  0.04670  1.0000 -0.1383544974
C   C112      1.0  0.76200  0.03980  0.94980  1.0000 0.5994393896
C   C113      1.0  0.01365  0.96405  0.14800  1.0000 -0.0457109292
C   C114      1.0  0.06820  0.94850  0.18650  1.0000 -0.1103567459
C   C115      1.0  0.06554  0.89354  0.17620  1.0000 -0.0970973287
C   C116      1.0  0.00902  0.85072  0.12650  1.0000 -0.0102227652
C   C117      1.0  0.95508  0.86408  0.08680  1.0000 -0.0970973287
C   C118      1.0  0.95745  0.91975  0.09810  1.0000 -0.1228949485
C   C119      1.0  0.00510  0.78940  0.11450  1.0000 0.5806497741
C   C120      1.0  0.05265  0.09355  0.26250  1.0000 -0.0360699919
C   C121      1.0  0.09721  0.14881  0.30900  1.0000 -0.1268696237
C   C122      1.0  0.12131  0.19431  0.38520  1.0000 -0.0865289002
C   C123      1.0  0.10160  0.18300  0.41540  1.0000 -0.03045924
C   C124      1.0  0.05874  0.12794  0.37060  1.0000 -0.0865289002
C   C125      1.0  0.03444  0.08374  0.29490  1.0000 -0.1228949485
C   C126      1.0  0.12745  0.23165  0.49720  1.0000 0.5994393896
C   C127      1.0  0.30340  0.90980  0.59440  1.0000 -0.03045924
C   C128      1.0  0.34782  0.96482  0.64400  1.0000 -0.1103567459
C   C129      1.0  0.40856  0.97466  0.70370  1.0000 -0.0865289002
C   C130      1.0  0.42334  0.92874  0.71500  1.0000 -0.03045924
C   C131      1.0  0.37710  0.87400  0.66450  1.0000 -0.0970973287
C   C132      1.0  0.31833  0.86503  0.60610  1.0000 -0.1383544974
C   C133      1.0  0.48800  0.93780  0.77780  1.0000 0.5994393896
C   C134      1.0  0.23635  0.88435  0.45040  1.0000 -0.0457109292
C   C135      1.0  0.18180  0.86830  0.38030  1.0000 -0.1103567459
C   C136      1.0  0.18446  0.86066  0.32800  1.0000 -0.0970973287
C   C137      1.0  0.24098  0.86748  0.34170  1.0000 -0.0102227652
C   C138      1.0  0.29492  0.88172  0.40900  1.0000 -0.0970973287
C   C139      1.0  0.29255  0.89065  0.46230  1.0000 -0.1228949485
C   C140      1.0  0.24490  0.85940  0.28430  1.0000 0.5806497741
C   C141      1.0  0.19735  0.95985  0.54090  1.0000 -0.0360699919
C   C142      1.0  0.15279  0.96179  0.55160  1.0000 -0.1268696237
C   C143      1.0  0.12869  0.01389  0.57300  1.0000 -0.0865289002
C   C144      1.0  0.14840  0.06380  0.58140  1.0000 -0.03045924
C   C145      1.0  0.19126  0.06186  0.56920  1.0000 -0.0865289002
C   C146      1.0  0.21556  0.01046  0.54930  1.0000 -0.1228949485
C   C147      1.0  0.12255  0.11975  0.60420  1.0000 0.5994393896
C   C148      1.0  0.31540  0.70900  0.40560  1.0000 -0.03045924
C   C149      1.0  0.32082  0.70382  0.35600  1.0000 -0.1103567459
C   C150      1.0  0.27096  0.70486  0.29630  1.0000 -0.0865289002
C   C151      1.0  0.21374  0.70834  0.28500  1.0000 -0.03045924
C   C152      1.0  0.20950  0.71260  0.33550  1.0000 -0.0970973287
C   C153      1.0  0.25893  0.71223  0.39390  1.0000 -0.1383544974
C   C154      1.0  0.16000  0.71020  0.22220  1.0000 0.5994393896
C   C155      1.0  0.43395  0.78595  0.54960  1.0000 -0.0457109292
C   C156      1.0  0.48800  0.80150  0.61970  1.0000 -0.1103567459
C   C157      1.0  0.53266  0.85646  0.67200  1.0000 -0.0970973287
C   C158      1.0  0.52578  0.89928  0.65830  1.0000 -0.0102227652
C   C159      1.0  0.47272  0.88592  0.59100  1.0000 -0.0970973287
C   C160      1.0  0.42835  0.83025  0.53770  1.0000 -0.1228949485
C   C161      1.0  0.57510  0.96060  0.71570  1.0000 0.5806497741
C   C162      1.0  0.41895  0.65645  0.45910  1.0000 -0.0360699919
C   C163      1.0  0.41019  0.60119  0.44840  1.0000 -0.1268696237
C   C164      1.0  0.44089  0.55569  0.42700  1.0000 -0.0865289002
C   C165      1.0  0.48240  0.56700  0.41860  1.0000 -0.03045924
C   C166      1.0  0.49266  0.62206  0.43080  1.0000 -0.0865289002
C   C167      1.0  0.46116  0.66626  0.45070  1.0000 -0.1228949485
C   C168      1.0  0.51555  0.51835  0.39580  1.0000 0.5994393896
C   C169      1.0  0.95900  0.06540  0.90560  1.0000 -0.03045924
C   C170      1.0  0.95382  0.07082  0.85600  1.0000 -0.1103567459
C   C171      1.0  0.95486  0.02096  0.79630  1.0000 -0.0865289002
C   C172      1.0  0.95834  0.96374  0.78500  1.0000 -0.03045924
C   C173      1.0  0.96260  0.95950  0.83550  1.0000 -0.0970973287
C   C174      1.0  0.96223  0.00893  0.89390  1.0000 -0.1383544974
C   C175      1.0  0.96020  0.91000  0.72220  1.0000 0.5994393896
C   C176      1.0  0.03595  0.18395  0.04960  1.0000 -0.0360699919
C   C177      1.0  0.05150  0.23800  0.11970  1.0000 -0.1103567459
C   C178      1.0  0.10646  0.28266  0.17200  1.0000 -0.0970973287
C   C179      1.0  0.14928  0.27578  0.15830  1.0000 -0.0102227652
C   C180      1.0  0.13592  0.22272  0.09100  1.0000 -0.0970973287
C   C181      1.0  0.08025  0.17835  0.03770  1.0000 -0.1228949485
C   C182      1.0  0.21060  0.32510  0.21570  1.0000 0.5806497741
C   C183      1.0  0.90645  0.16895  0.95910  1.0000 -0.0360699919
C   C184      1.0  0.85119  0.16019  0.94840  1.0000 -0.1268696237
C   C185      1.0  0.80569  0.19089  0.92700  1.0000 -0.0865289002
C   C186      1.0  0.81700  0.23240  0.91860  1.0000 -0.03045924
C   C187      1.0  0.87206  0.24266  0.93080  1.0000 -0.0865289002
C   C188      1.0  0.91626  0.21116  0.95070  1.0000 -0.1228949485
C   C189      1.0  0.76835  0.26555  0.89580  1.0000 0.5994393896
C   C190      1.0  0.15980  0.05340  0.09440  1.0000 -0.03045924
C   C191      1.0  0.21482  0.09782  0.14400  1.0000 -0.1103567459
C   C192      1.0  0.22466  0.15856  0.20370  1.0000 -0.0865289002
C   C193      1.0  0.17874  0.17334  0.21500  1.0000 -0.03045924
C   C194      1.0  0.12400  0.12710  0.16450  1.0000 -0.0970973287
C   C195      1.0  0.11503  0.06833  0.10610  1.0000 -0.1383544974
C   C196      1.0  0.18780  0.23800  0.27780  1.0000 0.5994393896
C   C197      1.0  0.13435  0.98635  0.95040  1.0000 -0.0457109292
C   C198      1.0  0.11830  0.93180  0.88030  1.0000 -0.1103567459
C   C199      1.0  0.11066  0.93446  0.82800  1.0000 -0.0970973287
C   C200      1.0  0.11748  0.99098  0.84170  1.0000 -0.0102227652
C   C201      1.0  0.13172  0.04492  0.90900  1.0000 -0.0970973287
C   C202      1.0  0.14065  0.04255  0.96230  1.0000 -0.1228949485
C   C203      1.0  0.10940  0.99490  0.78430  1.0000 0.5806497741
C   C204      1.0  0.20985  0.94735  0.04090  1.0000 -0.0360699919
C   C205      1.0  0.21179  0.90279  0.05160  1.0000 -0.1268696237
C   C206      1.0  0.26389  0.87869  0.07300  1.0000 -0.0865289002
C   C207      1.0  0.31380  0.89840  0.08140  1.0000 -0.03045924
C   C208      1.0  0.31186  0.94126  0.06920  1.0000 -0.0865289002
C   C209      1.0  0.26046  0.96556  0.04930  1.0000 -0.1228949485
C   C210      1.0  0.36975  0.87255  0.10420  1.0000 0.5994393896
C   C211      1.0  0.09020  0.68460  0.39360  1.0000 -0.03045924
C   C212      1.0  0.03518  0.67918  0.38300  1.0000 -0.1103567459
C   C213      1.0  0.02534  0.72904  0.43390  1.0000 -0.0865289002
C   C214      1.0  0.07126  0.78626  0.49460  1.0000 -0.03045924
C   C215      1.0  0.12600  0.79050  0.50310  1.0000 -0.0970973287
C   C216      1.0  0.13497  0.74107  0.45330  1.0000 -0.1383544974
C   C217      1.0  0.06220  0.84000  0.55020  1.0000 0.5994393896
C   C218      1.0  0.11565  0.56605  0.35200  1.0000 -0.0457109292
C   C219      1.0  0.13170  0.51200  0.31350  1.0000 -0.1103567459
C   C220      1.0  0.13934  0.46734  0.32380  1.0000 -0.0970973287
C   C221      1.0  0.13252  0.47422  0.37350  1.0000 -0.0102227652
C   C222      1.0  0.11828  0.52728  0.41320  1.0000 -0.0970973287
C   C223      1.0  0.10935  0.57165  0.40190  1.0000 -0.1228949485
C   C224      1.0  0.14060  0.42490  0.38550  1.0000 0.5806497741
C   C225      1.0  0.04015  0.58105  0.23750  1.0000 -0.0360699919
C   C226      1.0  0.03821  0.58981  0.19100  1.0000 -0.1268696237
C   C227      1.0  0.98611  0.55911  0.11480  1.0000 -0.0865289002
C   C228      1.0  0.93620  0.51760  0.08460  1.0000 -0.03045924
C   C229      1.0  0.93814  0.50734  0.12940  1.0000 -0.0865289002
C   C230      1.0  0.98954  0.53884  0.20510  1.0000 -0.1228949485
C   C231      1.0  0.88025  0.48445  0.00280  1.0000 0.5994393896
C   C232      1.0  0.29100  0.69660  0.60640  1.0000 -0.03045924
C   C233      1.0  0.29618  0.65218  0.61700  1.0000 -0.1103567459
C   C234      1.0  0.29514  0.59144  0.56610  1.0000 -0.0865289002
C   C235      1.0  0.29166  0.57666  0.50540  1.0000 -0.03045924
C   C236      1.0  0.28740  0.62290  0.49690  1.0000 -0.0970973287
C   C237      1.0  0.28777  0.68167  0.54670  1.0000 -0.1383544974
C   C238      1.0  0.28980  0.51200  0.44980  1.0000 0.5994393896
C   C239      1.0  0.21405  0.76365  0.64800  1.0000 -0.0457109292
C   C240      1.0  0.19850  0.81820  0.68650  1.0000 -0.1103567459
C   C241      1.0  0.14354  0.81554  0.67620  1.0000 -0.0970973287
C   C242      1.0  0.10072  0.75902  0.62650  1.0000 -0.0102227652
C   C243      1.0  0.11408  0.70508  0.58680  1.0000 -0.0970973287
C   C244      1.0  0.16975  0.70745  0.59810  1.0000 -0.1228949485
C   C245      1.0  0.03940  0.75510  0.61450  1.0000 0.5806497741
C   C246      1.0  0.34355  0.80265  0.76250  1.0000 -0.0360699919
C   C247      1.0  0.39881  0.84721  0.80900  1.0000 -0.1268696237
C   C248      1.0  0.44431  0.87131  0.88520  1.0000 -0.0865289002
C   C249      1.0  0.43300  0.85160  0.91540  1.0000 -0.03045924
C   C250      1.0  0.37794  0.80874  0.87060  1.0000 -0.0865289002
C   C251      1.0  0.33374  0.78444  0.79490  1.0000 -0.1268696237
C   C252      1.0  0.48165  0.87745  0.99720  1.0000 0.5994393896
C   C253      1.0  0.79100  0.18460  0.59440  1.0000 -0.03045924
C   C254      1.0  0.79618  0.17918  0.64400  1.0000 -0.1103567459
C   C255      1.0  0.79514  0.22904  0.70370  1.0000 -0.0865289002
C   C256      1.0  0.79166  0.28626  0.71500  1.0000 -0.03045924
C   C257      1.0  0.78740  0.29050  0.66450  1.0000 -0.0970973287
C   C258      1.0  0.78777  0.24107  0.60610  1.0000 -0.1383544974
C   C259      1.0  0.78980  0.34000  0.77780  1.0000 0.5994393896
C   C260      1.0  0.71405  0.06605  0.45040  1.0000 -0.0457109292
C   C261      1.0  0.69850  0.01200  0.38030  1.0000 -0.1103567459
C   C262      1.0  0.64354  0.96734  0.32800  1.0000 -0.0970973287
C   C263      1.0  0.60072  0.97422  0.34170  1.0000 -0.0102227652
C   C264      1.0  0.61408  0.02728  0.40900  1.0000 -0.0970973287
C   C265      1.0  0.66975  0.07165  0.46230  1.0000 -0.1228949485
C   C266      1.0  0.53940  0.92490  0.28430  1.0000 0.5806497741
C   C267      1.0  0.84355  0.08105  0.54090  1.0000 -0.0360699919
C   C268      1.0  0.89881  0.08981  0.55160  1.0000 -0.1268696237
C   C269      1.0  0.94431  0.05911  0.57300  1.0000 -0.0865289002
C   C270      1.0  0.93300  0.01760  0.58140  1.0000 -0.03045924
C   C271      1.0  0.87794  0.00734  0.56920  1.0000 -0.0865289002
C   C272      1.0  0.83374  0.03884  0.54930  1.0000 -0.1228949485
C   C273      1.0  0.98165  0.98445  0.60420  1.0000 0.5994393896
C   C274      1.0  0.59020  0.19660  0.40560  1.0000 -0.03045924
C   C275      1.0  0.53518  0.15218  0.35600  1.0000 -0.1103567459
C   C276      1.0  0.52534  0.09144  0.29630  1.0000 -0.0865289002
C   C277      1.0  0.57126  0.07666  0.28500  1.0000 -0.03045924
C   C278      1.0  0.62600  0.12290  0.33550  1.0000 -0.0970973287
C   C279      1.0  0.63497  0.18167  0.39390  1.0000 -0.1383544974
C   C280      1.0  0.56220  0.01200  0.22220  1.0000 0.5994393896
C   C281      1.0  0.61565  0.26365  0.54960  1.0000 -0.0457109292
C   C282      1.0  0.63170  0.31820  0.61970  1.0000 -0.1103567459
C   C283      1.0  0.63934  0.31554  0.67200  1.0000 -0.0970973287
C   C284      1.0  0.63252  0.25902  0.65830  1.0000 -0.0102227652
C   C285      1.0  0.61828  0.20508  0.59100  1.0000 -0.0970973287
C   C286      1.0  0.60935  0.20745  0.53770  1.0000 -0.1228949485
C   C287      1.0  0.64060  0.25510  0.71570  1.0000 0.5806497741
C   C288      1.0  0.54015  0.30265  0.45910  1.0000 -0.0360699919
C   C289      1.0  0.53821  0.34721  0.44840  1.0000 -0.1268696237
C   C290      1.0  0.48611  0.37131  0.42700  1.0000 -0.0865289002
C   C291      1.0  0.43620  0.35160  0.41860  1.0000 -0.03045924
C   C292      1.0  0.43814  0.30874  0.43080  1.0000 -0.0865289002
C   C293      1.0  0.48954  0.28444  0.45070  1.0000 -0.1228949485
C   C294      1.0  0.38025  0.37745  0.39580  1.0000 0.5994393896
C   C295      1.0  0.65980  0.56540  0.10640  1.0000 -0.03045924
C   C296      1.0  0.71482  0.57082  0.11700  1.0000 -0.1103567459
C   C297      1.0  0.72466  0.52096  0.06610  1.0000 -0.0865289002
C   C298      1.0  0.67874  0.46374  0.00540  1.0000 -0.03045924
C   C299      1.0  0.62400  0.45950  0.99690  1.0000 -0.0970973287
C   C300      1.0  0.61503  0.50893  0.04670  1.0000 -0.1383544974
C   C301      1.0  0.68780  0.41000  0.94980  1.0000 0.5994393896
C   C302      1.0  0.63435  0.68395  0.14800  1.0000 -0.0457109292
C   C303      1.0  0.61830  0.73800  0.18650  1.0000 -0.1103567459
C   C304      1.0  0.61066  0.78266  0.17620  1.0000 -0.0970973287
C   C305      1.0  0.61748  0.77578  0.12650  1.0000 -0.0102227652
C   C306      1.0  0.63172  0.72272  0.08680  1.0000 -0.0970973287
C   C307      1.0  0.64065  0.67835  0.09810  1.0000 -0.1228949485
C   C308      1.0  0.60940  0.82510  0.11450  1.0000 0.5806497741
C   C309      1.0  0.70985  0.66895  0.26250  1.0000 -0.0360699919
C   C310      1.0  0.71179  0.66019  0.30900  1.0000 -0.1268696237
C   C311      1.0  0.76389  0.69089  0.38520  1.0000 -0.0865289002
C   C312      1.0  0.81380  0.73240  0.41540  1.0000 -0.03045924
C   C313      1.0  0.81186  0.74266  0.37060  1.0000 -0.0865289002
C   C314      1.0  0.76046  0.71116  0.29490  1.0000 -0.1228949485
C   C315      1.0  0.86975  0.76555  0.49720  1.0000 0.5994393896
C   C316      1.0  0.45900  0.55340  0.89360  1.0000 -0.03045924
C   C317      1.0  0.45382  0.59782  0.88300  1.0000 -0.1103567459
C   C318      1.0  0.45486  0.65856  0.93390  1.0000 -0.0865289002
C   C319      1.0  0.45834  0.67334  0.99460  1.0000 -0.03045924
C   C320      1.0  0.46260  0.62710  0.00310  1.0000 -0.0970973287
C   C321      1.0  0.46223  0.56833  0.95330  1.0000 -0.1383544974
C   C322      1.0  0.46020  0.73800  0.05020  1.0000 0.5994393896
C   C323      1.0  0.53595  0.48635  0.85200  1.0000 -0.0457109292
C   C324      1.0  0.55150  0.43180  0.81350  1.0000 -0.1103567459
C   C325      1.0  0.60646  0.43446  0.82380  1.0000 -0.0970973287
C   C326      1.0  0.64928  0.49098  0.87350  1.0000 -0.0102227652
C   C327      1.0  0.63592  0.54492  0.91320  1.0000 -0.0970973287
C   C328      1.0  0.58025  0.54255  0.90190  1.0000 -0.1228949485
C   C329      1.0  0.71060  0.49490  0.88550  1.0000 0.5806497741
C   C330      1.0  0.40645  0.44735  0.73750  1.0000 -0.0360699919
C   C331      1.0  0.35119  0.40279  0.69100  1.0000 -0.1268696237
C   C332      1.0  0.30569  0.37869  0.61480  1.0000 -0.0865289002
C   C333      1.0  0.31700  0.39840  0.58460  1.0000 -0.03045924
C   C334      1.0  0.37206  0.44126  0.62940  1.0000 -0.0865289002
C   C335      1.0  0.41626  0.46556  0.70510  1.0000 -0.1228949485
C   C336      1.0  0.26835  0.37255  0.50280  1.0000 0.5994393896
O   O1        1.0  0.67084  0.47973  0.44851  1.0000 -0.5365007896
O   O2        1.0  0.60689  0.40116  0.40847  1.0000 -0.5648920913
O   O3        1.0  0.07290  0.37260  0.57710  1.0000 -0.5066405167
O   O4        1.0  0.12211  0.34101  0.64822  1.0000 -0.606799521
O   O5        1.0  0.99403  0.62475  0.03032  1.0000 -0.5466140308
O   O6        1.0  0.06114  0.65782  0.02650  1.0000 -0.5466140308
O   O7        1.0  0.03122  0.22233  0.55149  1.0000 -0.5365007896
O   O8        1.0  0.99269  0.19842  0.59153  1.0000 -0.5648920913
O   O9        1.0  0.79550  0.49580  0.42290  1.0000 -0.5066405167
O   O10       1.0  0.69279  0.47389  0.35178  1.0000 -0.606799521
O   O11       1.0  0.59443  0.96371  0.96968  1.0000 -0.5466140308
O   O12       1.0  0.63132  0.03464  0.97350  1.0000 -0.5466140308
O   O13       1.0  0.21878  0.27027  0.69111  1.0000 -0.5365007896
O   O14       1.0  0.25731  0.34884  0.70573  1.0000 -0.5648920913
O   O15       1.0  0.45450  0.37740  0.20030  1.0000 -0.5066405167
O   O16       1.0  0.55721  0.40899  0.28110  1.0000 -0.606799521
O   O17       1.0  0.65557  0.12525  0.86928  1.0000 -0.5466140308
O   O18       1.0  0.61868  0.09218  0.90332  1.0000 -0.5466140308
O   O19       1.0  0.57916  0.52767  0.30889  1.0000 -0.5365007896
O   O20       1.0  0.64311  0.55158  0.29427  1.0000 -0.5648920913
O   O21       1.0  0.17710  0.25420  0.79970  1.0000 -0.5066405167
O   O22       1.0  0.12789  0.27611  0.71890  1.0000 -0.606799521
O   O23       1.0  0.25597  0.78629  0.13072  1.0000 -0.5466140308
O   O24       1.0  0.18886  0.71536  0.09668  1.0000 -0.5466140308
O   O25       1.0  0.07916  0.77027  0.05149  1.0000 -0.5365007896
O   O26       1.0  0.14311  0.84884  0.09153  1.0000 -0.5648920913
O   O27       1.0  0.67710  0.87740  0.92290  1.0000 -0.5066405167
O   O28       1.0  0.62789  0.90899  0.85178  1.0000 -0.606799521
O   O29       1.0  0.75597  0.62525  0.46968  1.0000 -0.5466140308
O   O30       1.0  0.68886  0.59218  0.47350  1.0000 -0.5466140308
O   O31       1.0  0.71878  0.02767  0.94851  1.0000 -0.5365007896
O   O32       1.0  0.75731  0.05158  0.90847  1.0000 -0.5648920913
O   O33       1.0  0.95450  0.75420  0.07710  1.0000 -0.5066405167
O   O34       1.0  0.05721  0.77611  0.14822  1.0000 -0.606799521
O   O35       1.0  0.15557  0.28629  0.53032  1.0000 -0.5466140308
O   O36       1.0  0.11868  0.21536  0.52650  1.0000 -0.5466140308
O   O37       1.0  0.53122  0.97973  0.80889  1.0000 -0.5365007896
O   O38       1.0  0.49269  0.90116  0.79427  1.0000 -0.5648920913
O   O39       1.0  0.29550  0.87260  0.29970  1.0000 -0.5066405167
O   O40       1.0  0.19279  0.84101  0.21890  1.0000 -0.606799521
O   O41       1.0  0.09443  0.12475  0.63072  1.0000 -0.5466140308
O   O42       1.0  0.13132  0.15782  0.59668  1.0000 -0.5466140308
O   O43       1.0  0.17084  0.72233  0.19111  1.0000 -0.5365007896
O   O44       1.0  0.10689  0.69842  0.20573  1.0000 -0.5648920913
O   O45       1.0  0.57290  0.99580  0.70030  1.0000 -0.5066405167
O   O46       1.0  0.62211  0.97389  0.78110  1.0000 -0.606799521
O   O47       1.0  0.49403  0.46371  0.36928  1.0000 -0.5466140308
O   O48       1.0  0.56114  0.53464  0.40332  1.0000 -0.5466140308
O   O49       1.0  0.97233  0.92084  0.69111  1.0000 -0.5365007896
O   O50       1.0  0.94842  0.85689  0.70573  1.0000 -0.5648920913
O   O51       1.0  0.24580  0.32290  0.20030  1.0000 -0.5066405167
O   O52       1.0  0.22389  0.37211  0.28110  1.0000 -0.606799521
O   O53       1.0  0.71371  0.24403  0.86928  1.0000 -0.5466140308
O   O54       1.0  0.78464  0.31114  0.90332  1.0000 -0.5466140308
O   O55       1.0  0.22973  0.28122  0.30889  1.0000 -0.5365007896
O   O56       1.0  0.15116  0.24269  0.29427  1.0000 -0.5648920913
O   O57       1.0  0.12260  0.04550  0.79970  1.0000 -0.5066405167
O   O58       1.0  0.09101  0.94279  0.71890  1.0000 -0.606799521
O   O59       1.0  0.37475  0.84443  0.13072  1.0000 -0.5466140308
O   O60       1.0  0.40782  0.88132  0.09668  1.0000 -0.5466140308
O   O61       1.0  0.02027  0.82916  0.55149  1.0000 -0.5365007896
O   O62       1.0  0.09884  0.89311  0.59153  1.0000 -0.5648920913
O   O63       1.0  0.12740  0.42710  0.42290  1.0000 -0.5066405167
O   O64       1.0  0.15899  0.37789  0.35178  1.0000 -0.606799521
O   O65       1.0  0.87525  0.50597  0.96968  1.0000 -0.5466140308
O   O66       1.0  0.84218  0.43886  0.97350  1.0000 -0.5466140308
O   O67       1.0  0.27767  0.46878  0.44851  1.0000 -0.5365007896
O   O68       1.0  0.30158  0.50731  0.40847  1.0000 -0.5648920913
O   O69       1.0  0.00420  0.70450  0.57710  1.0000 -0.5066405167
O   O70       1.0  0.02611  0.80721  0.64822  1.0000 -0.606799521
O   O71       1.0  0.53629  0.90557  0.03032  1.0000 -0.5466140308
O   O72       1.0  0.46536  0.86868  0.02650  1.0000 -0.5466140308
O   O73       1.0  0.77767  0.32916  0.80889  1.0000 -0.5365007896
O   O74       1.0  0.80158  0.39311  0.79427  1.0000 -0.5648920913
O   O75       1.0  0.50420  0.92710  0.29970  1.0000 -0.5066405167
O   O76       1.0  0.52611  0.87789  0.21890  1.0000 -0.606799521
O   O77       1.0  0.03629  0.00597  0.63072  1.0000 -0.5466140308
O   O78       1.0  0.96536  0.93886  0.59668  1.0000 -0.5466140308
O   O79       1.0  0.52027  0.96878  0.19111  1.0000 -0.5365007896
O   O80       1.0  0.59884  0.00731  0.20573  1.0000 -0.5648920913
O   O81       1.0  0.62740  0.20450  0.70030  1.0000 -0.5066405167
O   O82       1.0  0.65899  0.30721  0.78110  1.0000 -0.606799521
O   O83       1.0  0.37525  0.40557  0.36928  1.0000 -0.5466140308
O   O84       1.0  0.34218  0.36868  0.40332  1.0000 -0.5466140308
O   O85       1.0  0.72973  0.42084  0.94851  1.0000 -0.5365007896
O   O86       1.0  0.65116  0.35689  0.90847  1.0000 -0.5648920913
O   O87       1.0  0.62260  0.82290  0.07710  1.0000 -0.5066405167
O   O88       1.0  0.59101  0.87211  0.14822  1.0000 -0.606799521
O   O89       1.0  0.87475  0.74403  0.53032  1.0000 -0.5466140308
O   O90       1.0  0.90782  0.81114  0.52650  1.0000 -0.5466140308
O   O91       1.0  0.47233  0.78122  0.05149  1.0000 -0.5365007896
O   O92       1.0  0.44842  0.74269  0.09153  1.0000 -0.5648920913
O   O93       1.0  0.74580  0.54550  0.92290  1.0000 -0.5066405167
O   O94       1.0  0.72389  0.44279  0.85178  1.0000 -0.606799521
O   O95       1.0  0.21371  0.34443  0.46968  1.0000 -0.5466140308
O   O96       1.0  0.28464  0.38132  0.47350  1.0000 -0.5466140308
