# DDEC6 charges by PACMAN v1.1 (https://github.com/mtap-research/PACMAN-charge/)
data_2017[Er][hcb]2[ASR]2
_chemical_formula_sum              "Er2 C18 Br6 O12"
_cell_length_a       9.9002
_cell_length_b       10.616
_cell_length_c       12.7598
_cell_angle_alpha    79.094
_cell_angle_beta     72.709
_cell_angle_gamma    85.345

_symmetry_space_group_name_H-M    "P 1"
_symmetry_Int_Tables_number       1

loop_
  _symmetry_equiv_pos_as_xyz
  'x, y, z'

loop_
  _atom_site_type_symbol
  _atom_site_label
  _atom_site_symmetry_multiplicity
  _atom_site_fract_x
  _atom_site_fract_y
  _atom_site_fract_z
  _atom_site_occupancy
  _atom_site_charge
Er  Er1       1.0  0.72411  0.18466  0.66812  1.0000 2.001715746
Er  Er2       1.0  0.27589  0.81534  0.33188  1.0000 2.001715746
C   C1        1.0  0.61420  0.90450  0.48020  1.0000 -0.1423592603
C   C2        1.0  0.62960  0.00920  0.52650  1.0000 0.27003501
C   C3        1.0  0.48990  0.89070  0.45230  1.0000 0.2763036678
C   C4        1.0  0.96620  0.49370  0.39860  1.0000 -0.1690860947
C   C5        1.0  0.91220  0.40230  0.49130  1.0000 0.2555196995
C   C6        1.0  0.05250  0.59150  0.39970  1.0000 0.2763036678
C   C7        1.0  0.42790  0.92370  0.95130  1.0000 -0.1690860947
C   C8        1.0  0.52730  0.00900  0.88150  1.0000 0.27003501
C   C9        1.0  0.39640  0.90900  0.06810  1.0000 0.2859111393
C   C10       1.0  0.38580  0.09550  0.51980  1.0000 -0.1423592603
C   C11       1.0  0.37040  0.99080  0.47350  1.0000 0.27003501
C   C12       1.0  0.51010  0.10930  0.54770  1.0000 0.2763036678
C   C13       1.0  0.03380  0.50630  0.60140  1.0000 -0.1690860947
C   C14       1.0  0.08780  0.59770  0.50870  1.0000 0.2555196995
C   C15       1.0  0.94750  0.40850  0.60030  1.0000 0.2763036678
C   C16       1.0  0.57210  0.07630  0.04870  1.0000 -0.1690860947
C   C17       1.0  0.47270  0.99100  0.11850  1.0000 0.27003501
C   C18       1.0  0.60360  0.09100  0.93190  1.0000 0.2859111393
Br  Br1       1.0  0.76315  0.78151  0.45103  1.0000 -0.0264602586
Br  Br2       1.0  0.92370  0.48776  0.26416  1.0000 0.0636255334
Br  Br3       1.0  0.33006  0.82469  0.89101  1.0000 0.0176959021
Br  Br4       1.0  0.23685  0.21849  0.54897  1.0000 -0.0264602586
Br  Br5       1.0  0.07630  0.51224  0.73584  1.0000 0.0659997801
Br  Br6       1.0  0.66994  0.17531  0.10899  1.0000 0.0176959021
O   O1        1.0  0.73760  0.03100  0.55270  1.0000 -0.5172519719
O   O2        1.0  0.83570  0.31050  0.49710  1.0000 -0.5501952802
O   O3        1.0  0.56180  0.02780  0.77640  1.0000 -0.5407415962
O   O4        1.0  0.46710  0.79810  0.41130  1.0000 -0.5094769185
O   O5        1.0  0.10690  0.67720  0.31970  1.0000 -0.5333648955
O   O6        1.0  0.31190  0.83070  0.13750  1.0000 -0.5603101289
O   O7        1.0  0.26240  0.96900  0.44730  1.0000 -0.5172519719
O   O8        1.0  0.16430  0.68950  0.50290  1.0000 -0.5501952802
O   O9        1.0  0.43820  0.97220  0.22360  1.0000 -0.5407415962
O   O10       1.0  0.53290  0.20190  0.58870  1.0000 -0.5094769185
O   O11       1.0  0.89310  0.32280  0.68030  1.0000 -0.5333648955
O   O12       1.0  0.68810  0.16930  0.86250  1.0000 -0.5603101289
