# DDEC6 charges by PACMAN v1.1 (https://github.com/mtap-research/PACMAN-charge/)
data_2017[Cd][pcu]3[ASR]3
_chemical_formula_sum              "Cd12 H72 C144 O48"
_cell_length_a       14.1407
_cell_length_b       18.2814
_cell_length_c       21.4596
_cell_angle_alpha    90
_cell_angle_beta     99.359
_cell_angle_gamma    90

_symmetry_space_group_name_H-M    "P 1"
_symmetry_Int_Tables_number       1

loop_
  _symmetry_equiv_pos_as_xyz
  'x, y, z'

loop_
  _atom_site_type_symbol
  _atom_site_label
  _atom_site_symmetry_multiplicity
  _atom_site_fract_x
  _atom_site_fract_y
  _atom_site_fract_z
  _atom_site_occupancy
  _atom_site_charge
Cd  Cd1       1.0  0.29265  0.23842  0.30796  1.0000 0.9943134922
Cd  Cd2       1.0  0.70735  0.76158  0.69204  1.0000 0.9943134922
Cd  Cd3       1.0  0.70735  0.23842  0.19204  1.0000 0.9943134922
Cd  Cd4       1.0  0.29265  0.76158  0.80796  1.0000 0.9943134922
Cd  Cd5       1.0  0.79265  0.73842  0.30796  1.0000 0.9943134922
Cd  Cd6       1.0  0.20735  0.26158  0.69204  1.0000 0.9943134922
Cd  Cd7       1.0  0.20735  0.73842  0.19204  1.0000 0.9943134922
Cd  Cd8       1.0  0.79265  0.26158  0.80796  1.0000 0.9943134922
Cd  Cd9       1.0  0.50000  0.25127  0.25000  1.0000 1.0931759465
Cd  Cd10      1.0  0.50000  0.74873  0.75000  1.0000 1.0931759465
Cd  Cd11      1.0  0.00000  0.75127  0.25000  1.0000 1.0931759465
Cd  Cd12      1.0  0.00000  0.24873  0.75000  1.0000 1.0931759465
H   H1        1.0  0.34434  0.31407  0.11115  1.0000 0.1195980578
H   H2        1.0  0.65566  0.68593  0.88885  1.0000 0.1195980578
H   H3        1.0  0.65566  0.31407  0.38885  1.0000 0.1195980578
H   H4        1.0  0.34434  0.68593  0.61115  1.0000 0.1195980578
H   H5        1.0  0.84434  0.81407  0.11115  1.0000 0.1195980578
H   H6        1.0  0.15566  0.18593  0.88885  1.0000 0.1195980578
H   H7        1.0  0.15566  0.81407  0.38885  1.0000 0.1195980578
H   H8        1.0  0.84434  0.18593  0.61115  1.0000 0.1195980578
H   H9        1.0  0.15676  0.12784  0.10932  1.0000 0.1195980578
H   H10       1.0  0.84324  0.87216  0.89068  1.0000 0.1195980578
H   H11       1.0  0.84324  0.12784  0.39068  1.0000 0.1195980578
H   H12       1.0  0.15676  0.87216  0.60932  1.0000 0.1195980578
H   H13       1.0  0.65676  0.62784  0.10932  1.0000 0.1195980578
H   H14       1.0  0.34324  0.37216  0.89068  1.0000 0.1195980578
H   H15       1.0  0.34324  0.62784  0.39068  1.0000 0.1195980578
H   H16       1.0  0.65676  0.37216  0.60932  1.0000 0.1195980578
H   H17       1.0  0.12904  0.12750  0.99033  1.0000 0.0987817795
H   H18       1.0  0.87096  0.87250  0.00967  1.0000 0.0987817795
H   H19       1.0  0.87096  0.12750  0.50967  1.0000 0.0987817795
H   H20       1.0  0.12904  0.87250  0.49033  1.0000 0.0987817795
H   H21       1.0  0.62904  0.62750  0.99033  1.0000 0.0987817795
H   H22       1.0  0.37096  0.37250  0.00967  1.0000 0.0987817795
H   H23       1.0  0.37096  0.62750  0.50967  1.0000 0.0987817795
H   H24       1.0  0.62904  0.37250  0.49033  1.0000 0.0987817795
H   H25       1.0  0.37642  0.38027  0.47446  1.0000 0.1195980578
H   H26       1.0  0.62358  0.61973  0.52554  1.0000 0.1195980578
H   H27       1.0  0.62358  0.38027  0.02554  1.0000 0.1195980578
H   H28       1.0  0.37642  0.61973  0.97446  1.0000 0.1195980578
H   H29       1.0  0.87642  0.88027  0.47446  1.0000 0.1195980578
H   H30       1.0  0.12358  0.11973  0.52554  1.0000 0.1195980578
H   H31       1.0  0.12358  0.88027  0.02554  1.0000 0.1195980578
H   H32       1.0  0.87642  0.11973  0.97446  1.0000 0.1195980578
H   H33       1.0  0.56526  0.45187  0.34834  1.0000 0.1195980578
H   H34       1.0  0.43474  0.54813  0.65166  1.0000 0.1195980578
H   H35       1.0  0.43474  0.45187  0.15166  1.0000 0.1195980578
H   H36       1.0  0.56526  0.54813  0.84834  1.0000 0.1195980578
H   H37       1.0  0.06526  0.95187  0.34834  1.0000 0.1195980578
H   H38       1.0  0.93474  0.04813  0.65166  1.0000 0.1195980578
H   H39       1.0  0.93474  0.95187  0.15166  1.0000 0.1195980578
H   H40       1.0  0.06526  0.04813  0.84834  1.0000 0.1195980578
H   H41       1.0  0.62602  0.55479  0.42316  1.0000 0.1129610164
H   H42       1.0  0.37398  0.44521  0.57684  1.0000 0.1129610164
H   H43       1.0  0.37398  0.55479  0.07684  1.0000 0.1129610164
H   H44       1.0  0.62602  0.44521  0.92316  1.0000 0.1129610164
H   H45       1.0  0.12602  0.05479  0.42316  1.0000 0.1129610164
H   H46       1.0  0.87398  0.94521  0.57684  1.0000 0.1129610164
H   H47       1.0  0.87398  0.05479  0.07684  1.0000 0.1129610164
H   H48       1.0  0.12602  0.94521  0.92316  1.0000 0.1129610164
H   H49       1.0  0.34386  0.04338  0.41065  1.0000 0.1129610164
H   H50       1.0  0.65614  0.95662  0.58935  1.0000 0.1129610164
H   H51       1.0  0.65614  0.04338  0.08935  1.0000 0.1129610164
H   H52       1.0  0.34386  0.95662  0.91065  1.0000 0.1129610164
H   H53       1.0  0.84386  0.54338  0.41065  1.0000 0.1129610164
H   H54       1.0  0.15614  0.45662  0.58935  1.0000 0.1129610164
H   H55       1.0  0.15614  0.54338  0.08935  1.0000 0.1129610164
H   H56       1.0  0.84386  0.45662  0.91065  1.0000 0.1129610164
H   H57       1.0  0.62958  0.12580  0.41427  1.0000 0.0987817795
H   H58       1.0  0.37042  0.87420  0.58573  1.0000 0.0987817795
H   H59       1.0  0.37042  0.12580  0.08573  1.0000 0.0987817795
H   H60       1.0  0.62958  0.87420  0.91427  1.0000 0.0987817795
H   H61       1.0  0.12958  0.62580  0.41427  1.0000 0.0987817795
H   H62       1.0  0.87042  0.37420  0.58573  1.0000 0.0987817795
H   H63       1.0  0.87042  0.62580  0.08573  1.0000 0.0987817795
H   H64       1.0  0.12958  0.37420  0.91427  1.0000 0.0987817795
H   H65       1.0  0.69031  0.04868  0.51009  1.0000 0.0987817795
H   H66       1.0  0.30969  0.95132  0.48991  1.0000 0.0987817795
H   H67       1.0  0.30969  0.04868  0.98991  1.0000 0.0987817795
H   H68       1.0  0.69031  0.95132  0.01009  1.0000 0.0987817795
H   H69       1.0  0.19031  0.54868  0.51009  1.0000 0.0987817795
H   H70       1.0  0.80969  0.45132  0.48991  1.0000 0.0987817795
H   H71       1.0  0.80969  0.54868  0.98991  1.0000 0.0987817795
H   H72       1.0  0.19031  0.45132  0.01009  1.0000 0.0987817795
C   C1        1.0  0.29624  0.27472  0.08369  1.0000 -0.1306949367
C   C2        1.0  0.70376  0.72528  0.91631  1.0000 -0.1306949367
C   C3        1.0  0.70376  0.27472  0.41631  1.0000 -0.1306949367
C   C4        1.0  0.29624  0.72528  0.58369  1.0000 -0.1306949367
C   C5        1.0  0.79624  0.77472  0.08369  1.0000 -0.1306949367
C   C6        1.0  0.20376  0.22528  0.91631  1.0000 -0.1306949367
C   C7        1.0  0.20376  0.77472  0.41631  1.0000 -0.1306949367
C   C8        1.0  0.79624  0.22528  0.58369  1.0000 -0.1306949367
C   C9        1.0  0.24905  0.22345  0.11521  1.0000 -0.0290235316
C   C10       1.0  0.75095  0.77655  0.88479  1.0000 -0.0290235316
C   C11       1.0  0.75095  0.22345  0.38479  1.0000 -0.0290235316
C   C12       1.0  0.24905  0.77655  0.61521  1.0000 -0.0290235316
C   C13       1.0  0.74905  0.72345  0.11521  1.0000 -0.0290235316
C   C14       1.0  0.25095  0.27655  0.88479  1.0000 -0.0290235316
C   C15       1.0  0.25095  0.72345  0.38479  1.0000 -0.0290235316
C   C16       1.0  0.74905  0.27655  0.61521  1.0000 -0.0290235316
C   C17       1.0  0.18879  0.16902  0.08197  1.0000 -0.0977697682
C   C18       1.0  0.81121  0.83098  0.91803  1.0000 -0.0977697682
C   C19       1.0  0.81121  0.16902  0.41803  1.0000 -0.0977697682
C   C20       1.0  0.18879  0.83098  0.58197  1.0000 -0.0977697682
C   C21       1.0  0.68879  0.66902  0.08197  1.0000 -0.0977697682
C   C22       1.0  0.31121  0.33098  0.91803  1.0000 -0.0977697682
C   C23       1.0  0.31121  0.66902  0.41803  1.0000 -0.0977697682
C   C24       1.0  0.68879  0.33098  0.58197  1.0000 -0.0977697682
C   C25       1.0  0.17473  0.16905  0.01693  1.0000 -0.1243883234
C   C26       1.0  0.82527  0.83095  0.98307  1.0000 -0.1243883234
C   C27       1.0  0.82527  0.16905  0.48307  1.0000 -0.1243883234
C   C28       1.0  0.17473  0.83095  0.51693  1.0000 -0.1243883234
C   C29       1.0  0.67473  0.66905  0.01693  1.0000 -0.1243883234
C   C30       1.0  0.32527  0.33095  0.98307  1.0000 -0.1243883234
C   C31       1.0  0.32527  0.66905  0.48307  1.0000 -0.1243883234
C   C32       1.0  0.67473  0.33095  0.51693  1.0000 -0.1243883234
C   C33       1.0  0.28144  0.27682  0.01694  1.0000 0.0783476399
C   C34       1.0  0.71856  0.72318  0.98306  1.0000 0.0783476399
C   C35       1.0  0.71856  0.27682  0.48306  1.0000 0.0783476399
C   C36       1.0  0.28144  0.72318  0.51694  1.0000 0.0783476399
C   C37       1.0  0.78144  0.77682  0.01694  1.0000 0.0783476399
C   C38       1.0  0.21856  0.22318  0.98306  1.0000 0.0783476399
C   C39       1.0  0.21856  0.77682  0.48306  1.0000 0.0783476399
C   C40       1.0  0.78144  0.22318  0.51694  1.0000 0.0783476399
C   C41       1.0  0.26056  0.22938  0.18471  1.0000 0.5826826755
C   C42       1.0  0.73944  0.77062  0.81529  1.0000 0.5826826755
C   C43       1.0  0.73944  0.22938  0.31529  1.0000 0.5826826755
C   C44       1.0  0.26056  0.77062  0.68471  1.0000 0.5826826755
C   C45       1.0  0.76056  0.72938  0.18471  1.0000 0.5826826755
C   C46       1.0  0.23944  0.27062  0.81529  1.0000 0.5826826755
C   C47       1.0  0.23944  0.72938  0.31529  1.0000 0.5826826755
C   C48       1.0  0.76056  0.27062  0.68471  1.0000 0.5826826755
C   C49       1.0  0.43062  0.41910  0.46420  1.0000 -0.1306949367
C   C50       1.0  0.56938  0.58090  0.53580  1.0000 -0.1306949367
C   C51       1.0  0.56938  0.41910  0.03580  1.0000 -0.1306949367
C   C52       1.0  0.43062  0.58090  0.96420  1.0000 -0.1306949367
C   C53       1.0  0.93062  0.91910  0.46420  1.0000 -0.1306949367
C   C54       1.0  0.06938  0.08090  0.53580  1.0000 -0.1306949367
C   C55       1.0  0.06938  0.91910  0.03580  1.0000 -0.1306949367
C   C56       1.0  0.93062  0.08090  0.96420  1.0000 -0.1306949367
C   C57       1.0  0.46679  0.41213  0.40817  1.0000 -0.0357581645
C   C58       1.0  0.53321  0.58787  0.59183  1.0000 -0.0357581645
C   C59       1.0  0.53321  0.41213  0.09183  1.0000 -0.0357581645
C   C60       1.0  0.46679  0.58787  0.90817  1.0000 -0.0357581645
C   C61       1.0  0.96679  0.91213  0.40817  1.0000 -0.0357581645
C   C62       1.0  0.03321  0.08787  0.59183  1.0000 -0.0357581645
C   C63       1.0  0.03321  0.91213  0.09183  1.0000 -0.0357581645
C   C64       1.0  0.96679  0.08787  0.90817  1.0000 -0.0357581645
C   C65       1.0  0.53842  0.46069  0.39292  1.0000 -0.0937348579
C   C66       1.0  0.46158  0.53931  0.60708  1.0000 -0.0937348579
C   C67       1.0  0.46158  0.46069  0.10708  1.0000 -0.0937348579
C   C68       1.0  0.53842  0.53931  0.89292  1.0000 -0.0937348579
C   C69       1.0  0.03842  0.96069  0.39292  1.0000 -0.0937348579
C   C70       1.0  0.96158  0.03931  0.60708  1.0000 -0.0937348579
C   C71       1.0  0.96158  0.96069  0.10708  1.0000 -0.0937348579
C   C72       1.0  0.03842  0.03931  0.89292  1.0000 -0.0937348579
C   C73       1.0  0.57154  0.51633  0.43420  1.0000 -0.1356365692
C   C74       1.0  0.42846  0.48367  0.56580  1.0000 -0.1356365692
C   C75       1.0  0.42846  0.51633  0.06580  1.0000 -0.1356365692
C   C76       1.0  0.57154  0.48367  0.93420  1.0000 -0.1356365692
C   C77       1.0  0.07154  0.01633  0.43420  1.0000 -0.1356365692
C   C78       1.0  0.92846  0.98367  0.56580  1.0000 -0.1356365692
C   C79       1.0  0.92846  0.01633  0.06580  1.0000 -0.1356365692
C   C80       1.0  0.07154  0.98367  0.93420  1.0000 -0.1356365692
C   C81       1.0  0.46425  0.47514  0.50771  1.0000 0.0707081694
C   C82       1.0  0.53575  0.52486  0.49229  1.0000 0.0707081694
C   C83       1.0  0.53575  0.47514  0.99229  1.0000 0.0707081694
C   C84       1.0  0.46425  0.52486  0.00771  1.0000 0.0707081694
C   C85       1.0  0.96425  0.97514  0.50771  1.0000 0.0707081694
C   C86       1.0  0.03575  0.02486  0.49229  1.0000 0.0707081694
C   C87       1.0  0.03575  0.97514  0.99229  1.0000 0.0707081694
C   C88       1.0  0.96425  0.02486  0.00771  1.0000 0.0707081694
C   C89       1.0  0.43069  0.35190  0.36360  1.0000 0.5932038638
C   C90       1.0  0.56931  0.64810  0.63640  1.0000 0.5932038638
C   C91       1.0  0.56931  0.35190  0.13640  1.0000 0.5932038638
C   C92       1.0  0.43069  0.64810  0.86360  1.0000 0.5932038638
C   C93       1.0  0.93069  0.85190  0.36360  1.0000 0.5932038638
C   C94       1.0  0.06931  0.14810  0.63640  1.0000 0.5932038638
C   C95       1.0  0.06931  0.85190  0.13640  1.0000 0.5932038638
C   C96       1.0  0.93069  0.14810  0.86360  1.0000 0.5932038638
C   C97       1.0  0.41915  0.04301  0.43283  1.0000 -0.1306949367
C   C98       1.0  0.58085  0.95699  0.56717  1.0000 -0.1306949367
C   C99       1.0  0.58085  0.04301  0.06717  1.0000 -0.1306949367
C   C100      1.0  0.41915  0.95699  0.93283  1.0000 -0.1306949367
C   C101      1.0  0.91915  0.54301  0.43283  1.0000 -0.1306949367
C   C102      1.0  0.08085  0.45699  0.56717  1.0000 -0.1306949367
C   C103      1.0  0.08085  0.54301  0.06717  1.0000 -0.1306949367
C   C104      1.0  0.91915  0.45699  0.93283  1.0000 -0.1306949367
C   C105      1.0  0.48418  0.08664  0.40816  1.0000 -0.0290235316
C   C106      1.0  0.51582  0.91336  0.59184  1.0000 -0.0290235316
C   C107      1.0  0.51582  0.08664  0.09184  1.0000 -0.0290235316
C   C108      1.0  0.48418  0.91336  0.90816  1.0000 -0.0290235316
C   C109      1.0  0.98418  0.58664  0.40816  1.0000 -0.0290235316
C   C110      1.0  0.01582  0.41336  0.59184  1.0000 -0.0290235316
C   C111      1.0  0.01582  0.58664  0.09184  1.0000 -0.0290235316
C   C112      1.0  0.98418  0.41336  0.90816  1.0000 -0.0290235316
C   C113      1.0  0.58249  0.08929  0.43547  1.0000 -0.0807226088
C   C114      1.0  0.41751  0.91071  0.56453  1.0000 -0.0807226088
C   C115      1.0  0.41751  0.08929  0.06453  1.0000 -0.0807226088
C   C116      1.0  0.58249  0.91071  0.93547  1.0000 -0.0807226088
C   C117      1.0  0.08249  0.58929  0.43547  1.0000 -0.0807226088
C   C118      1.0  0.91751  0.41071  0.56453  1.0000 -0.0807226088
C   C119      1.0  0.91751  0.58929  0.06453  1.0000 -0.0807226088
C   C120      1.0  0.08249  0.41071  0.93547  1.0000 -0.0807226088
C   C121      1.0  0.61475  0.04714  0.48788  1.0000 -0.1306949367
C   C122      1.0  0.38525  0.95286  0.51212  1.0000 -0.1306949367
C   C123      1.0  0.38525  0.04714  0.01212  1.0000 -0.1306949367
C   C124      1.0  0.61475  0.95286  0.98788  1.0000 -0.1306949367
C   C125      1.0  0.11475  0.54714  0.48788  1.0000 -0.1306949367
C   C126      1.0  0.88525  0.45286  0.51212  1.0000 -0.1306949367
C   C127      1.0  0.88525  0.54714  0.01212  1.0000 -0.1306949367
C   C128      1.0  0.11475  0.45286  0.98788  1.0000 -0.1306949367
C   C129      1.0  0.45020  0.99886  0.48610  1.0000 0.0707081694
C   C130      1.0  0.54980  0.00114  0.51390  1.0000 0.0707081694
C   C131      1.0  0.54980  0.99886  0.01390  1.0000 0.0707081694
C   C132      1.0  0.45020  0.00114  0.98610  1.0000 0.0707081694
C   C133      1.0  0.95020  0.49886  0.48610  1.0000 0.0707081694
C   C134      1.0  0.04980  0.50114  0.51390  1.0000 0.0707081694
C   C135      1.0  0.04980  0.49886  0.01390  1.0000 0.0707081694
C   C136      1.0  0.95020  0.50114  0.98610  1.0000 0.0707081694
C   C137      1.0  0.44801  0.13389  0.35325  1.0000 0.5996279705
C   C138      1.0  0.55199  0.86611  0.64675  1.0000 0.5996279705
C   C139      1.0  0.55199  0.13389  0.14675  1.0000 0.5996279705
C   C140      1.0  0.44801  0.86611  0.85325  1.0000 0.5996279705
C   C141      1.0  0.94801  0.63389  0.35325  1.0000 0.5996279705
C   C142      1.0  0.05199  0.36611  0.64675  1.0000 0.5996279705
C   C143      1.0  0.05199  0.63389  0.14675  1.0000 0.5996279705
C   C144      1.0  0.94801  0.36611  0.85325  1.0000 0.5996279705
O   O1        1.0  0.33012  0.27011  0.21297  1.0000 -0.5968137246
O   O2        1.0  0.66988  0.72989  0.78703  1.0000 -0.5968137246
O   O3        1.0  0.66988  0.27011  0.28703  1.0000 -0.5968137246
O   O4        1.0  0.33012  0.72989  0.71297  1.0000 -0.5968137246
O   O5        1.0  0.83012  0.77011  0.21297  1.0000 -0.5968137246
O   O6        1.0  0.16988  0.22989  0.78703  1.0000 -0.5968137246
O   O7        1.0  0.16988  0.77011  0.28703  1.0000 -0.5968137246
O   O8        1.0  0.83012  0.22989  0.71297  1.0000 -0.5968137246
O   O9        1.0  0.20167  0.19857  0.21609  1.0000 -0.5223351728
O   O10       1.0  0.79833  0.80143  0.78391  1.0000 -0.5223351728
O   O11       1.0  0.79833  0.19857  0.28391  1.0000 -0.5223351728
O   O12       1.0  0.20167  0.80143  0.71609  1.0000 -0.5223351728
O   O13       1.0  0.70167  0.69857  0.21609  1.0000 -0.5223351728
O   O14       1.0  0.29833  0.30143  0.78391  1.0000 -0.5223351728
O   O15       1.0  0.29833  0.69857  0.28391  1.0000 -0.5223351728
O   O16       1.0  0.70167  0.30143  0.71609  1.0000 -0.5223351728
O   O17       1.0  0.35662  0.31617  0.37675  1.0000 -0.5789218727
O   O18       1.0  0.64338  0.68383  0.62325  1.0000 -0.5789218727
O   O19       1.0  0.64338  0.31617  0.12325  1.0000 -0.5789218727
O   O20       1.0  0.35662  0.68383  0.87675  1.0000 -0.5789218727
O   O21       1.0  0.85662  0.81617  0.37675  1.0000 -0.5789218727
O   O22       1.0  0.14338  0.18383  0.62325  1.0000 -0.5789218727
O   O23       1.0  0.14338  0.81617  0.12325  1.0000 -0.5789218727
O   O24       1.0  0.85662  0.18383  0.87675  1.0000 -0.5789218727
O   O25       1.0  0.47387  0.34109  0.31731  1.0000 -0.5425753009
O   O26       1.0  0.52613  0.65891  0.68269  1.0000 -0.5425753009
O   O27       1.0  0.52613  0.34109  0.18269  1.0000 -0.5425753009
O   O28       1.0  0.47387  0.65891  0.81731  1.0000 -0.5425753009
O   O29       1.0  0.97387  0.84109  0.31731  1.0000 -0.5425753009
O   O30       1.0  0.02613  0.15891  0.68269  1.0000 -0.5425753009
O   O31       1.0  0.02613  0.84109  0.18269  1.0000 -0.5425753009
O   O32       1.0  0.97387  0.15891  0.81731  1.0000 -0.5425753009
O   O33       1.0  0.35609  0.13398  0.33530  1.0000 -0.5789218727
O   O34       1.0  0.64391  0.86602  0.66470  1.0000 -0.5789218727
O   O35       1.0  0.64391  0.13398  0.16470  1.0000 -0.5705319833
O   O36       1.0  0.35609  0.86602  0.83530  1.0000 -0.5789218727
O   O37       1.0  0.85609  0.63398  0.33530  1.0000 -0.5789218727
O   O38       1.0  0.14391  0.36602  0.66470  1.0000 -0.5789218727
O   O39       1.0  0.14391  0.63398  0.16470  1.0000 -0.5705319833
O   O40       1.0  0.85609  0.36602  0.83530  1.0000 -0.5789218727
O   O41       1.0  0.50939  0.17106  0.32937  1.0000 -0.5705319833
O   O42       1.0  0.49061  0.82894  0.67063  1.0000 -0.5705319833
O   O43       1.0  0.49061  0.17106  0.17063  1.0000 -0.5705319833
O   O44       1.0  0.50939  0.82894  0.82937  1.0000 -0.5705319833
O   O45       1.0  0.00939  0.67106  0.32937  1.0000 -0.5705319833
O   O46       1.0  0.99061  0.32894  0.67063  1.0000 -0.5705319833
O   O47       1.0  0.99061  0.67106  0.17063  1.0000 -0.5705319833
O   O48       1.0  0.00939  0.32894  0.82937  1.0000 -0.5705319833
