# DDEC6 charges by PACMAN v1.1 (https://github.com/mtap-research/PACMAN-charge/)
data_2017[Cu][pcu]3[ASR]2
_chemical_formula_sum              "Cu8 H124 C156 N32 O24"
_cell_length_a       17.5859
_cell_length_b       11.447
_cell_length_c       21.6831
_cell_angle_alpha    90
_cell_angle_beta     114.472
_cell_angle_gamma    90

_symmetry_space_group_name_H-M    "P 1"
_symmetry_Int_Tables_number       1

loop_
  _symmetry_equiv_pos_as_xyz
  'x, y, z'

loop_
  _atom_site_type_symbol
  _atom_site_label
  _atom_site_symmetry_multiplicity
  _atom_site_fract_x
  _atom_site_fract_y
  _atom_site_fract_z
  _atom_site_occupancy
  _atom_site_charge
Cu  Cu1       1.0  0.49481  0.10265  0.44263  1.0000 0.7689921868
Cu  Cu2       1.0  0.49165  0.32532  0.24534  1.0000 0.7689921868
Cu  Cu3       1.0  0.50519  0.60265  0.05737  1.0000 0.7689921868
Cu  Cu4       1.0  0.50835  0.82532  0.25466  1.0000 0.7689921868
Cu  Cu5       1.0  0.50519  0.89735  0.55737  1.0000 0.7689921868
Cu  Cu6       1.0  0.50835  0.67468  0.75466  1.0000 0.7689921868
Cu  Cu7       1.0  0.49481  0.39735  0.94263  1.0000 0.7689921868
Cu  Cu8       1.0  0.49165  0.17468  0.74534  1.0000 0.7689921868
H   H1        1.0  0.48860  0.39280  0.38760  1.0000 0.1022425048
H   H2        1.0  0.48450  0.29220  0.09440  1.0000 0.1022425048
H   H3        1.0  0.52180  0.57920  0.23400  1.0000 0.0915322912
H   H4        1.0  0.65040  0.05660  0.41100  1.0000 0.1195289523
H   H5        1.0  0.64620  0.21360  0.56810  1.0000 0.1252402526
H   H6        1.0  0.78490  0.23260  0.57400  1.0000 0.1195289523
H   H7        1.0  0.87790  0.26360  0.52620  1.0000 0.1195289523
H   H8        1.0  0.98570  0.26030  0.49600  1.0000 0.1022425048
H   H9        1.0  0.88880  0.97860  0.38380  1.0000 0.110782317
H   H10       1.0  0.77560  0.99540  0.40720  1.0000 0.1195289523
H   H11       1.0  0.33450  0.13280  0.46560  1.0000 0.110782317
H   H12       1.0  0.34510  0.03180  0.29630  1.0000 0.1195289523
H   H13       1.0  0.20000  0.02220  0.28110  1.0000 0.110782317
H   H14       1.0  0.20810  0.23180  0.45530  1.0000 0.1195289523
H   H15       1.0  0.09430  0.24130  0.47960  1.0000 0.1022425048
H   H16       1.0  0.98910  0.97610  0.35360  1.0000 0.1022425048
H   H17       1.0  0.10380  0.96450  0.33020  1.0000 0.110782317
H   H18       1.0  0.65090  0.26320  0.22740  1.0000 0.110782317
H   H19       1.0  0.78630  0.42690  0.39740  1.0000 0.1195289523
H   H20       1.0  0.64050  0.42940  0.37910  1.0000 0.1195289523
H   H21       1.0  0.89310  0.43380  0.36250  1.0000 0.110782317
H   H22       1.0  0.00640  0.41210  0.33680  1.0000 0.1022425048
H   H23       1.0  0.88720  0.16110  0.20170  1.0000 0.110782317
H   H24       1.0  0.77570  0.18230  0.22600  1.0000 0.1195289523
H   H25       1.0  0.33010  0.36060  0.26850  1.0000 0.110782317
H   H26       1.0  0.34520  0.20820  0.11500  1.0000 0.110782317
H   H27       1.0  0.20370  0.18700  0.10350  1.0000 0.1195289523
H   H28       1.0  0.21960  0.39070  0.29030  1.0000 0.1195289523
H   H29       1.0  0.10980  0.39550  0.31690  1.0000 0.110782317
H   H30       1.0  0.98410  0.17750  0.16700  1.0000 0.110782317
H   H31       1.0  0.09310  0.17480  0.13620  1.0000 0.110782317
H   H32       1.0  0.51140  0.89280  0.11240  1.0000 0.1022425048
H   H33       1.0  0.51550  0.79220  0.40560  1.0000 0.1022425048
H   H34       1.0  0.47820  0.07920  0.26600  1.0000 0.0915322912
H   H35       1.0  0.34960  0.55660  0.08900  1.0000 0.1195289523
H   H36       1.0  0.35380  0.71360  0.93190  1.0000 0.1252402526
H   H37       1.0  0.21510  0.73260  0.92600  1.0000 0.1195289523
H   H38       1.0  0.12210  0.76360  0.97380  1.0000 0.1195289523
H   H39       1.0  0.01430  0.76030  0.00400  1.0000 0.1022425048
H   H40       1.0  0.11120  0.47860  0.11620  1.0000 0.110782317
H   H41       1.0  0.22440  0.49540  0.09280  1.0000 0.1195289523
H   H42       1.0  0.66550  0.63280  0.03440  1.0000 0.110782317
H   H43       1.0  0.65490  0.53180  0.20370  1.0000 0.1195289523
H   H44       1.0  0.80000  0.52220  0.21890  1.0000 0.110782317
H   H45       1.0  0.79190  0.73180  0.04470  1.0000 0.1195289523
H   H46       1.0  0.90570  0.74130  0.02040  1.0000 0.1022425048
H   H47       1.0  0.01090  0.47610  0.14640  1.0000 0.1022425048
H   H48       1.0  0.89620  0.46450  0.16980  1.0000 0.110782317
H   H49       1.0  0.34910  0.76320  0.27260  1.0000 0.110782317
H   H50       1.0  0.21370  0.92690  0.10260  1.0000 0.1195289523
H   H51       1.0  0.35950  0.92940  0.12090  1.0000 0.1195289523
H   H52       1.0  0.10690  0.93380  0.13750  1.0000 0.110782317
H   H53       1.0  0.99360  0.91210  0.16320  1.0000 0.1022425048
H   H54       1.0  0.11280  0.66110  0.29830  1.0000 0.110782317
H   H55       1.0  0.22430  0.68230  0.27400  1.0000 0.1195289523
H   H56       1.0  0.66990  0.86060  0.23150  1.0000 0.110782317
H   H57       1.0  0.65480  0.70820  0.38500  1.0000 0.110782317
H   H58       1.0  0.79630  0.68700  0.39650  1.0000 0.1195289523
H   H59       1.0  0.78040  0.89070  0.20970  1.0000 0.1195289523
H   H60       1.0  0.89020  0.89550  0.18310  1.0000 0.110782317
H   H61       1.0  0.01590  0.67750  0.33300  1.0000 0.110782317
H   H62       1.0  0.90690  0.67480  0.36380  1.0000 0.110782317
H   H63       1.0  0.51140  0.60720  0.61240  1.0000 0.1022425048
H   H64       1.0  0.51550  0.70780  0.90560  1.0000 0.1022425048
H   H65       1.0  0.47820  0.42080  0.76600  1.0000 0.0915322912
H   H66       1.0  0.34960  0.94340  0.58900  1.0000 0.1195289523
H   H67       1.0  0.35380  0.78640  0.43190  1.0000 0.1252402526
H   H68       1.0  0.21510  0.76740  0.42600  1.0000 0.1195289523
H   H69       1.0  0.12210  0.73640  0.47380  1.0000 0.1195289523
H   H70       1.0  0.01430  0.73970  0.50400  1.0000 0.1022425048
H   H71       1.0  0.11120  0.02140  0.61620  1.0000 0.110782317
H   H72       1.0  0.22440  0.00460  0.59280  1.0000 0.1195289523
H   H73       1.0  0.66550  0.86720  0.53440  1.0000 0.110782317
H   H74       1.0  0.65490  0.96820  0.70370  1.0000 0.1195289523
H   H75       1.0  0.80000  0.97780  0.71890  1.0000 0.110782317
H   H76       1.0  0.79190  0.76820  0.54470  1.0000 0.1195289523
H   H77       1.0  0.90570  0.75870  0.52040  1.0000 0.1022425048
H   H78       1.0  0.01090  0.02390  0.64640  1.0000 0.1022425048
H   H79       1.0  0.89620  0.03550  0.66980  1.0000 0.110782317
H   H80       1.0  0.34910  0.73680  0.77260  1.0000 0.110782317
H   H81       1.0  0.21370  0.57310  0.60260  1.0000 0.1195289523
H   H82       1.0  0.35950  0.57060  0.62090  1.0000 0.1195289523
H   H83       1.0  0.10690  0.56620  0.63750  1.0000 0.110782317
H   H84       1.0  0.99360  0.58790  0.66320  1.0000 0.1022425048
H   H85       1.0  0.11280  0.83890  0.79830  1.0000 0.110782317
H   H86       1.0  0.22430  0.81770  0.77400  1.0000 0.1195289523
H   H87       1.0  0.66990  0.63940  0.73150  1.0000 0.110782317
H   H88       1.0  0.65480  0.79180  0.88500  1.0000 0.110782317
H   H89       1.0  0.79630  0.81300  0.89650  1.0000 0.1195289523
H   H90       1.0  0.78040  0.60930  0.70970  1.0000 0.1195289523
H   H91       1.0  0.89020  0.60450  0.68310  1.0000 0.110782317
H   H92       1.0  0.01590  0.82250  0.83300  1.0000 0.110782317
H   H93       1.0  0.90690  0.82520  0.86380  1.0000 0.110782317
H   H94       1.0  0.48860  0.10720  0.88760  1.0000 0.1022425048
H   H95       1.0  0.48450  0.20780  0.59440  1.0000 0.1022425048
H   H96       1.0  0.52180  0.92080  0.73400  1.0000 0.0915322912
H   H97       1.0  0.65040  0.44340  0.91100  1.0000 0.1195289523
H   H98       1.0  0.64620  0.28640  0.06810  1.0000 0.1252402526
H   H99       1.0  0.78490  0.26740  0.07400  1.0000 0.1195289523
H   H100      1.0  0.87790  0.23640  0.02620  1.0000 0.1195289523
H   H101      1.0  0.98570  0.23970  0.99600  1.0000 0.1022425048
H   H102      1.0  0.88880  0.52140  0.88380  1.0000 0.110782317
H   H103      1.0  0.77560  0.50460  0.90720  1.0000 0.1195289523
H   H104      1.0  0.33450  0.36720  0.96560  1.0000 0.110782317
H   H105      1.0  0.34510  0.46820  0.79630  1.0000 0.1195289523
H   H106      1.0  0.20000  0.47780  0.78110  1.0000 0.110782317
H   H107      1.0  0.20810  0.26820  0.95530  1.0000 0.1195289523
H   H108      1.0  0.09430  0.25870  0.97960  1.0000 0.1022425048
H   H109      1.0  0.98910  0.52390  0.85360  1.0000 0.1022425048
H   H110      1.0  0.10380  0.53550  0.83020  1.0000 0.110782317
H   H111      1.0  0.65090  0.23680  0.72740  1.0000 0.110782317
H   H112      1.0  0.78630  0.07310  0.89740  1.0000 0.1195289523
H   H113      1.0  0.64050  0.07060  0.87910  1.0000 0.1195289523
H   H114      1.0  0.89310  0.06620  0.86250  1.0000 0.110782317
H   H115      1.0  0.00640  0.08790  0.83680  1.0000 0.1022425048
H   H116      1.0  0.88720  0.33890  0.70170  1.0000 0.110782317
H   H117      1.0  0.77570  0.31770  0.72600  1.0000 0.1195289523
H   H118      1.0  0.33010  0.13940  0.76850  1.0000 0.110782317
H   H119      1.0  0.34520  0.29180  0.61500  1.0000 0.110782317
H   H120      1.0  0.20370  0.31300  0.60350  1.0000 0.1195289523
H   H121      1.0  0.21960  0.10930  0.79030  1.0000 0.1195289523
H   H122      1.0  0.10980  0.10450  0.81690  1.0000 0.110782317
H   H123      1.0  0.98410  0.32250  0.66700  1.0000 0.110782317
H   H124      1.0  0.09310  0.32520  0.63620  1.0000 0.110782317
C   C1        1.0  0.48770  0.31230  0.39290  1.0000 0.4255538148
C   C2        1.0  0.48880  0.37320  0.09770  1.0000 0.422631866
C   C3        1.0  0.49730  0.57870  0.26460  1.0000 0.4422613245
C   C4        1.0  0.66630  0.09920  0.45100  1.0000 0.110782317
C   C5        1.0  0.66440  0.18470  0.53640  1.0000 -0.0495600428
C   C6        1.0  0.74090  0.19430  0.53990  1.0000 -0.1015613812
C   C7        1.0  0.81270  0.13190  0.46820  1.0000 0.141219524
C   C8        1.0  0.87860  0.20760  0.49530  1.0000 -0.1912360627
C   C9        1.0  0.94440  0.20350  0.47860  1.0000 -0.1424176709
C   C10       1.0  0.95320  0.11680  0.43580  1.0000 0.0623345787
C   C11       1.0  0.88700  0.03950  0.41150  1.0000 -0.1424176709
C   C12       1.0  0.81910  0.04860  0.42650  1.0000 -0.2005659693
C   C13       1.0  0.31910  0.10710  0.42130  1.0000 0.110782317
C   C14       1.0  0.32470  0.05040  0.32840  1.0000 -0.0588166246
C   C15       1.0  0.24480  0.04720  0.32010  1.0000 -0.1015613812
C   C16       1.0  0.17010  0.09540  0.39200  1.0000 0.1531105016
C   C17       1.0  0.16470  0.17870  0.43530  1.0000 -0.2005659693
C   C18       1.0  0.09550  0.18440  0.44940  1.0000 -0.1424176709
C   C19       1.0  0.02610  0.10860  0.42050  1.0000 0.0623345787
C   C20       1.0  0.03310  0.02760  0.37520  1.0000 -0.13032059
C   C21       1.0  0.10230  0.02020  0.36090  1.0000 -0.2005659693
C   C22       1.0  0.66690  0.30440  0.26780  1.0000 0.1022425048
C   C23       1.0  0.74220  0.39300  0.36110  1.0000 -0.1245715346
C   C24       1.0  0.66140  0.39590  0.35020  1.0000 -0.0380191416
C   C25       1.0  0.81740  0.30990  0.29490  1.0000 0.1689577189
C   C26       1.0  0.89120  0.38020  0.32970  1.0000 -0.216359629
C   C27       1.0  0.95930  0.36670  0.31340  1.0000 -0.13032059
C   C28       1.0  0.96200  0.28870  0.26390  1.0000 0.0474306711
C   C29       1.0  0.88880  0.21760  0.23310  1.0000 -0.1424176709
C   C30       1.0  0.82170  0.23020  0.24830  1.0000 -0.2005659693
C   C31       1.0  0.31520  0.31930  0.22820  1.0000 0.1195289523
C   C32       1.0  0.32420  0.23690  0.14500  1.0000 -0.0380191416
C   C33       1.0  0.24630  0.22500  0.13900  1.0000 -0.13032059
C   C34       1.0  0.17130  0.28420  0.21110  1.0000 0.1607016933
C   C35       1.0  0.17230  0.34740  0.26450  1.0000 -0.1912360627
C   C36       1.0  0.10640  0.34850  0.28090  1.0000 -0.1472130536
C   C37       1.0  0.03230  0.28340  0.24710  1.0000 0.0474306711
C   C38       1.0  0.03160  0.22070  0.19240  1.0000 -0.1472130536
C   C39       1.0  0.09700  0.21870  0.17350  1.0000 -0.2104315597
C   C40       1.0  0.51230  0.81230  0.10710  1.0000 0.4255538148
C   C41       1.0  0.51120  0.87320  0.40230  1.0000 0.422631866
C   C42       1.0  0.50270  0.07870  0.23540  1.0000 0.4422613245
C   C43       1.0  0.33370  0.59920  0.04900  1.0000 0.110782317
C   C44       1.0  0.33560  0.68470  0.96360  1.0000 -0.0495600428
C   C45       1.0  0.25910  0.69430  0.96010  1.0000 -0.1015613812
C   C46       1.0  0.18730  0.63190  0.03180  1.0000 0.141219524
C   C47       1.0  0.12140  0.70760  0.00470  1.0000 -0.1912360627
C   C48       1.0  0.05560  0.70350  0.02140  1.0000 -0.1424176709
C   C49       1.0  0.04680  0.61680  0.06420  1.0000 0.0623345787
C   C50       1.0  0.11300  0.53950  0.08850  1.0000 -0.1424176709
C   C51       1.0  0.18090  0.54860  0.07350  1.0000 -0.2005659693
C   C52       1.0  0.68090  0.60710  0.07870  1.0000 0.110782317
C   C53       1.0  0.67530  0.55040  0.17160  1.0000 -0.0588166246
C   C54       1.0  0.75520  0.54720  0.17990  1.0000 -0.1015613812
C   C55       1.0  0.82990  0.59540  0.10800  1.0000 0.1531105016
C   C56       1.0  0.83530  0.67870  0.06470  1.0000 -0.2005659693
C   C57       1.0  0.90450  0.68440  0.05060  1.0000 -0.1424176709
C   C58       1.0  0.97390  0.60860  0.07950  1.0000 0.0623345787
C   C59       1.0  0.96690  0.52760  0.12480  1.0000 -0.13032059
C   C60       1.0  0.89770  0.52020  0.13910  1.0000 -0.2005659693
C   C61       1.0  0.33310  0.80440  0.23220  1.0000 0.1022425048
C   C62       1.0  0.25780  0.89300  0.13890  1.0000 -0.1245715346
C   C63       1.0  0.33860  0.89590  0.14980  1.0000 -0.0380191416
C   C64       1.0  0.18260  0.80990  0.20510  1.0000 0.1689577189
C   C65       1.0  0.10880  0.88020  0.17030  1.0000 -0.216359629
C   C66       1.0  0.04070  0.86670  0.18660  1.0000 -0.13032059
C   C67       1.0  0.03800  0.78870  0.23610  1.0000 0.0474306711
C   C68       1.0  0.11120  0.71760  0.26690  1.0000 -0.1424176709
C   C69       1.0  0.17830  0.73020  0.25170  1.0000 -0.2005659693
C   C70       1.0  0.68480  0.81930  0.27180  1.0000 0.1195289523
C   C71       1.0  0.67580  0.73690  0.35500  1.0000 -0.0380191416
C   C72       1.0  0.75370  0.72500  0.36100  1.0000 -0.13032059
C   C73       1.0  0.82870  0.78420  0.28890  1.0000 0.1607016933
C   C74       1.0  0.82770  0.84740  0.23550  1.0000 -0.1912360627
C   C75       1.0  0.89360  0.84850  0.21910  1.0000 -0.1472130536
C   C76       1.0  0.96770  0.78340  0.25290  1.0000 0.0474306711
C   C77       1.0  0.96840  0.72070  0.30760  1.0000 -0.1472130536
C   C78       1.0  0.90300  0.71870  0.32650  1.0000 -0.2104315597
C   C79       1.0  0.51230  0.68770  0.60710  1.0000 0.422631866
C   C80       1.0  0.51120  0.62680  0.90230  1.0000 0.422631866
C   C81       1.0  0.50270  0.42130  0.73540  1.0000 0.4422613245
C   C82       1.0  0.33370  0.90080  0.54900  1.0000 0.110782317
C   C83       1.0  0.33560  0.81530  0.46360  1.0000 -0.0495600428
C   C84       1.0  0.25910  0.80570  0.46010  1.0000 -0.1015613812
C   C85       1.0  0.18730  0.86810  0.53180  1.0000 0.141219524
C   C86       1.0  0.12140  0.79240  0.50470  1.0000 -0.1912360627
C   C87       1.0  0.05560  0.79650  0.52140  1.0000 -0.1424176709
C   C88       1.0  0.04680  0.88320  0.56420  1.0000 0.0623345787
C   C89       1.0  0.11300  0.96050  0.58850  1.0000 -0.1424176709
C   C90       1.0  0.18090  0.95140  0.57350  1.0000 -0.2005659693
C   C91       1.0  0.68090  0.89290  0.57870  1.0000 0.110782317
C   C92       1.0  0.67530  0.94960  0.67160  1.0000 -0.0588166246
C   C93       1.0  0.75520  0.95280  0.67990  1.0000 -0.1015613812
C   C94       1.0  0.82990  0.90460  0.60800  1.0000 0.1531105016
C   C95       1.0  0.83530  0.82130  0.56470  1.0000 -0.2005659693
C   C96       1.0  0.90450  0.81560  0.55060  1.0000 -0.1424176709
C   C97       1.0  0.97390  0.89140  0.57950  1.0000 0.0623345787
C   C98       1.0  0.96690  0.97240  0.62480  1.0000 -0.13032059
C   C99       1.0  0.89770  0.97980  0.63910  1.0000 -0.2005659693
C   C100      1.0  0.33310  0.69560  0.73220  1.0000 0.1022425048
C   C101      1.0  0.25780  0.60700  0.63890  1.0000 -0.1245715346
C   C102      1.0  0.33860  0.60410  0.64980  1.0000 -0.034569551
C   C103      1.0  0.18260  0.69010  0.70510  1.0000 0.1689577189
C   C104      1.0  0.10880  0.61980  0.67030  1.0000 -0.216359629
C   C105      1.0  0.04070  0.63330  0.68660  1.0000 -0.13032059
C   C106      1.0  0.03800  0.71130  0.73610  1.0000 0.0474306711
C   C107      1.0  0.11120  0.78240  0.76690  1.0000 -0.1424176709
C   C108      1.0  0.17830  0.76980  0.75170  1.0000 -0.2005659693
C   C109      1.0  0.68480  0.68070  0.77180  1.0000 0.1195289523
C   C110      1.0  0.67580  0.76310  0.85500  1.0000 -0.0380191416
C   C111      1.0  0.75370  0.77500  0.86100  1.0000 -0.13032059
C   C112      1.0  0.82870  0.71580  0.78890  1.0000 0.1607016933
C   C113      1.0  0.82770  0.65260  0.73550  1.0000 -0.1912360627
C   C114      1.0  0.89360  0.65150  0.71910  1.0000 -0.1472130536
C   C115      1.0  0.96770  0.71660  0.75290  1.0000 0.0474306711
C   C116      1.0  0.96840  0.77930  0.80760  1.0000 -0.1472130536
C   C117      1.0  0.90300  0.78130  0.82650  1.0000 -0.2104315597
C   C118      1.0  0.48770  0.18770  0.89290  1.0000 0.422631866
C   C119      1.0  0.48880  0.12680  0.59770  1.0000 0.422631866
C   C120      1.0  0.49730  0.92130  0.76460  1.0000 0.4422613245
C   C121      1.0  0.66630  0.40080  0.95100  1.0000 0.110782317
C   C122      1.0  0.66440  0.31530  0.03640  1.0000 -0.0495600428
C   C123      1.0  0.74090  0.30570  0.03990  1.0000 -0.1015613812
C   C124      1.0  0.81270  0.36810  0.96820  1.0000 0.141219524
C   C125      1.0  0.87860  0.29240  0.99530  1.0000 -0.1912360627
C   C126      1.0  0.94440  0.29650  0.97860  1.0000 -0.1424176709
C   C127      1.0  0.95320  0.38320  0.93580  1.0000 0.0623345787
C   C128      1.0  0.88700  0.46050  0.91150  1.0000 -0.1424176709
C   C129      1.0  0.81910  0.45140  0.92650  1.0000 -0.2005659693
C   C130      1.0  0.31910  0.39290  0.92130  1.0000 0.110782317
C   C131      1.0  0.32470  0.44960  0.82840  1.0000 -0.0588166246
C   C132      1.0  0.24480  0.45280  0.82010  1.0000 -0.1015613812
C   C133      1.0  0.17010  0.40460  0.89200  1.0000 0.1531105016
C   C134      1.0  0.16470  0.32130  0.93530  1.0000 -0.2005659693
C   C135      1.0  0.09550  0.31560  0.94940  1.0000 -0.1424176709
C   C136      1.0  0.02610  0.39140  0.92050  1.0000 0.0623345787
C   C137      1.0  0.03310  0.47240  0.87520  1.0000 -0.13032059
C   C138      1.0  0.10230  0.47980  0.86090  1.0000 -0.2005659693
C   C139      1.0  0.66690  0.19560  0.76780  1.0000 0.1022425048
C   C140      1.0  0.74220  0.10700  0.86110  1.0000 -0.1245715346
C   C141      1.0  0.66140  0.10410  0.85020  1.0000 -0.0380191416
C   C142      1.0  0.81740  0.19010  0.79490  1.0000 0.1689577189
C   C143      1.0  0.89120  0.11980  0.82970  1.0000 -0.216359629
C   C144      1.0  0.95930  0.13330  0.81340  1.0000 -0.13032059
C   C145      1.0  0.96200  0.21130  0.76390  1.0000 0.0474306711
C   C146      1.0  0.88880  0.28240  0.73310  1.0000 -0.1424176709
C   C147      1.0  0.82170  0.26980  0.74830  1.0000 -0.2005659693
C   C148      1.0  0.31520  0.18070  0.72820  1.0000 0.1195289523
C   C149      1.0  0.32420  0.26310  0.64500  1.0000 -0.0380191416
C   C150      1.0  0.24630  0.27500  0.63900  1.0000 -0.13032059
C   C151      1.0  0.17130  0.21580  0.71110  1.0000 0.1607016933
C   C152      1.0  0.17230  0.15260  0.76450  1.0000 -0.1912360627
C   C153      1.0  0.10640  0.15150  0.78090  1.0000 -0.1472130536
C   C154      1.0  0.03230  0.21660  0.74710  1.0000 0.0474306711
C   C155      1.0  0.03160  0.27930  0.69240  1.0000 -0.1472130536
C   C156      1.0  0.09700  0.28130  0.67350  1.0000 -0.2104315597
N   N1        1.0  0.74560  0.13960  0.48590  1.0000 -0.0007182775
N   N2        1.0  0.61560  0.12460  0.47760  1.0000 -0.2795845184
N   N3        1.0  0.23940  0.08610  0.37740  1.0000 0.0019891451
N   N4        1.0  0.37110  0.08760  0.39500  1.0000 -0.2694528836
N   N5        1.0  0.74810  0.33030  0.30850  1.0000 -0.0082604407
N   N6        1.0  0.61470  0.34230  0.29060  1.0000 -0.2795845184
N   N7        1.0  0.23770  0.27770  0.19340  1.0000 -0.0082604407
N   N8        1.0  0.36770  0.29800  0.20210  1.0000 -0.2795845184
N   N9        1.0  0.25440  0.63960  0.01410  1.0000 -0.0007182775
N   N10       1.0  0.38440  0.62460  0.02240  1.0000 -0.2795845184
N   N11       1.0  0.76060  0.58610  0.12260  1.0000 0.0019891451
N   N12       1.0  0.62890  0.58760  0.10500  1.0000 -0.2694528836
N   N13       1.0  0.25190  0.83030  0.19150  1.0000 -0.0082604407
N   N14       1.0  0.38530  0.84230  0.20940  1.0000 -0.2795845184
N   N15       1.0  0.76230  0.77770  0.30660  1.0000 -0.0082604407
N   N16       1.0  0.63230  0.79800  0.29790  1.0000 -0.2795845184
N   N17       1.0  0.25440  0.86040  0.51410  1.0000 -0.0007182775
N   N18       1.0  0.38440  0.87540  0.52240  1.0000 -0.2795845184
N   N19       1.0  0.76060  0.91390  0.62260  1.0000 0.0019891451
N   N20       1.0  0.62890  0.91240  0.60500  1.0000 -0.2694528836
N   N21       1.0  0.25190  0.66970  0.69150  1.0000 -0.0082604407
N   N22       1.0  0.38530  0.65770  0.70940  1.0000 -0.2795845184
N   N23       1.0  0.76230  0.72230  0.80660  1.0000 -0.0082604407
N   N24       1.0  0.63230  0.70200  0.79790  1.0000 -0.2795845184
N   N25       1.0  0.74560  0.36040  0.98590  1.0000 -0.0007182775
N   N26       1.0  0.61560  0.37540  0.97760  1.0000 -0.2795845184
N   N27       1.0  0.23940  0.41390  0.87740  1.0000 0.0019891451
N   N28       1.0  0.37110  0.41240  0.89500  1.0000 -0.2694528836
N   N29       1.0  0.74810  0.16970  0.80850  1.0000 -0.0082604407
N   N30       1.0  0.61470  0.15770  0.79060  1.0000 -0.2795845184
N   N31       1.0  0.23770  0.22230  0.69340  1.0000 -0.0082604407
N   N32       1.0  0.36770  0.20200  0.70210  1.0000 -0.2795845184
O   O1        1.0  0.49210  0.25290  0.34830  1.0000 -0.5386271018
O   O2        1.0  0.48190  0.27600  0.44630  1.0000 -0.4936937529
O   O3        1.0  0.48910  0.41880  0.14890  1.0000 -0.5386271018
O   O4        1.0  0.49390  0.42910  0.04850  1.0000 -0.5252125996
O   O5        1.0  0.47380  0.48070  0.27980  1.0000 -0.5059349972
O   O6        1.0  0.48840  0.67270  0.28940  1.0000 -0.4848756779
O   O7        1.0  0.50790  0.75290  0.15170  1.0000 -0.5386271018
O   O8        1.0  0.51810  0.77600  0.05370  1.0000 -0.4936937529
O   O9        1.0  0.51090  0.91880  0.35110  1.0000 -0.5386271018
O   O10       1.0  0.50610  0.92910  0.45150  1.0000 -0.5252125996
O   O11       1.0  0.52620  0.98070  0.22020  1.0000 -0.5059349972
O   O12       1.0  0.51160  0.17270  0.21060  1.0000 -0.4848756779
O   O13       1.0  0.50790  0.74710  0.65170  1.0000 -0.5386271018
O   O14       1.0  0.51810  0.72400  0.55370  1.0000 -0.4936937529
O   O15       1.0  0.51090  0.58120  0.85110  1.0000 -0.5386271018
O   O16       1.0  0.50610  0.57090  0.95150  1.0000 -0.5252125996
O   O17       1.0  0.52620  0.51930  0.72020  1.0000 -0.5059349972
O   O18       1.0  0.51160  0.32730  0.71060  1.0000 -0.4848756779
O   O19       1.0  0.49210  0.24710  0.84830  1.0000 -0.5386271018
O   O20       1.0  0.48190  0.22400  0.94630  1.0000 -0.4936937529
O   O21       1.0  0.48910  0.08120  0.64890  1.0000 -0.5386271018
O   O22       1.0  0.49390  0.07090  0.54850  1.0000 -0.5252125996
O   O23       1.0  0.47380  0.01930  0.77980  1.0000 -0.5059349972
O   O24       1.0  0.48840  0.82730  0.78940  1.0000 -0.4848756779
