# DDEC6 charges by PACMAN v1.1 (https://github.com/mtap-research/PACMAN-charge/)
data_2017[Cu][nan]3[ASR]14
_chemical_formula_sum              "Cu24 H324 C540 N60 O144"
_cell_length_a       35.917
_cell_length_b       35.917
_cell_length_c       35.917
_cell_angle_alpha    109.471
_cell_angle_beta     109.471
_cell_angle_gamma    109.471

_symmetry_space_group_name_H-M    "P 1"
_symmetry_Int_Tables_number       1

loop_
  _symmetry_equiv_pos_as_xyz
  'x, y, z'

loop_
  _atom_site_type_symbol
  _atom_site_label
  _atom_site_symmetry_multiplicity
  _atom_site_fract_x
  _atom_site_fract_y
  _atom_site_fract_z
  _atom_site_occupancy
  _atom_site_charge
Cu  Cu1       1.0  0.18119  0.36238  0.18119  1.0000 0.7798266667
Cu  Cu2       1.0  0.18119  0.00000  0.81881  1.0000 0.7798266667
Cu  Cu3       1.0  0.81881  0.63762  0.81881  1.0000 0.7798266667
Cu  Cu4       1.0  0.81881  0.00000  0.18119  1.0000 0.7798266667
Cu  Cu5       1.0  0.18119  0.18119  0.36238  1.0000 0.7798266667
Cu  Cu6       1.0  0.81881  0.18119  0.00000  1.0000 0.7798266667
Cu  Cu7       1.0  0.81881  0.81881  0.63762  1.0000 0.7798266667
Cu  Cu8       1.0  0.18119  0.81881  0.00000  1.0000 0.7798266667
Cu  Cu9       1.0  0.36238  0.18119  0.18119  1.0000 0.7798266667
Cu  Cu10      1.0  0.00000  0.81881  0.18119  1.0000 0.7798266667
Cu  Cu11      1.0  0.63762  0.81881  0.81881  1.0000 0.7798266667
Cu  Cu12      1.0  0.00000  0.18119  0.81881  1.0000 0.7798266667
Cu  Cu13      1.0  0.86384  0.86384  0.72768  1.0000 0.8536160447
Cu  Cu14      1.0  0.13616  0.13616  0.27232  1.0000 0.8536160447
Cu  Cu15      1.0  0.86384  0.13616  0.00000  1.0000 0.8536160447
Cu  Cu16      1.0  0.13616  0.86384  0.00000  1.0000 0.8536160447
Cu  Cu17      1.0  0.72768  0.86384  0.86384  1.0000 0.8536160447
Cu  Cu18      1.0  0.27232  0.13616  0.13616  1.0000 0.8536160447
Cu  Cu19      1.0  0.00000  0.86384  0.13616  1.0000 0.8536160447
Cu  Cu20      1.0  0.00000  0.13616  0.86384  1.0000 0.8536160447
Cu  Cu21      1.0  0.86384  0.72768  0.86384  1.0000 0.8536160447
Cu  Cu22      1.0  0.13616  0.27232  0.13616  1.0000 0.8536160447
Cu  Cu23      1.0  0.13616  0.00000  0.86384  1.0000 0.8536160447
Cu  Cu24      1.0  0.86384  0.00000  0.13616  1.0000 0.8536160447
H   H1        1.0  0.75250  0.85200  0.75250  1.0000 0.1438846521
H   H2        1.0  0.09950  0.00000  0.24750  1.0000 0.1438846521
H   H3        1.0  0.90050  0.14800  0.90050  1.0000 0.1438846521
H   H4        1.0  0.24750  0.00000  0.09950  1.0000 0.1438846521
H   H5        1.0  0.75250  0.75250  0.85200  1.0000 0.1438846521
H   H6        1.0  0.24750  0.09950  0.00000  1.0000 0.1438846521
H   H7        1.0  0.90050  0.90050  0.14800  1.0000 0.1438846521
H   H8        1.0  0.09950  0.24750  0.00000  1.0000 0.1438846521
H   H9        1.0  0.85200  0.75250  0.75250  1.0000 0.1438846521
H   H10       1.0  0.00000  0.24750  0.09950  1.0000 0.1438846521
H   H11       1.0  0.14800  0.90050  0.90050  1.0000 0.1438846521
H   H12       1.0  0.00000  0.09950  0.24750  1.0000 0.1438846521
H   H13       1.0  0.00000  0.90050  0.75250  1.0000 0.1438846521
H   H14       1.0  0.14800  0.24750  0.24750  1.0000 0.1438846521
H   H15       1.0  0.00000  0.75250  0.90050  1.0000 0.1438846521
H   H16       1.0  0.85200  0.09950  0.09950  1.0000 0.1438846521
H   H17       1.0  0.09950  0.09950  0.85200  1.0000 0.1438846521
H   H18       1.0  0.75250  0.90050  0.00000  1.0000 0.1438846521
H   H19       1.0  0.24750  0.24750  0.14800  1.0000 0.1438846521
H   H20       1.0  0.90050  0.75250  0.00000  1.0000 0.1438846521
H   H21       1.0  0.90050  0.00000  0.75250  1.0000 0.1438846521
H   H22       1.0  0.09950  0.85200  0.09950  1.0000 0.1438846521
H   H23       1.0  0.75250  0.00000  0.90050  1.0000 0.1438846521
H   H24       1.0  0.24750  0.14800  0.24750  1.0000 0.1438846521
H   H25       1.0  0.68340  0.77770  0.61430  1.0000 0.1308539855
H   H26       1.0  0.16340  0.06910  0.38570  1.0000 0.1308539855
H   H27       1.0  0.83660  0.22230  0.90570  1.0000 0.1308539855
H   H28       1.0  0.31660  0.93090  0.09430  1.0000 0.1308539855
H   H29       1.0  0.61430  0.68340  0.77770  1.0000 0.1308539855
H   H30       1.0  0.38570  0.16340  0.06910  1.0000 0.1308539855
H   H31       1.0  0.90570  0.83660  0.22230  1.0000 0.1308539855
H   H32       1.0  0.09430  0.31660  0.93090  1.0000 0.1308539855
H   H33       1.0  0.77770  0.61430  0.68340  1.0000 0.1308539855
H   H34       1.0  0.06910  0.38570  0.16340  1.0000 0.1308539855
H   H35       1.0  0.22230  0.90570  0.83660  1.0000 0.1308539855
H   H36       1.0  0.93090  0.09430  0.31660  1.0000 0.1308539855
H   H37       1.0  0.93090  0.83660  0.61430  1.0000 0.1308539855
H   H38       1.0  0.22230  0.31660  0.38570  1.0000 0.1308539855
H   H39       1.0  0.06910  0.68340  0.90570  1.0000 0.1308539855
H   H40       1.0  0.77770  0.16340  0.09430  1.0000 0.1308539855
H   H41       1.0  0.16340  0.09430  0.77770  1.0000 0.1308539855
H   H42       1.0  0.68340  0.90570  0.06910  1.0000 0.1308539855
H   H43       1.0  0.31660  0.38570  0.22230  1.0000 0.1308539855
H   H44       1.0  0.83660  0.61430  0.93090  1.0000 0.1308539855
H   H45       1.0  0.90570  0.06910  0.68340  1.0000 0.1308539855
H   H46       1.0  0.09430  0.77770  0.16340  1.0000 0.1308539855
H   H47       1.0  0.61430  0.93090  0.83660  1.0000 0.1308539855
H   H48       1.0  0.38570  0.22230  0.31660  1.0000 0.1308539855
H   H49       1.0  0.31660  0.22230  0.38570  1.0000 0.1308539855
H   H50       1.0  0.83660  0.93090  0.61430  1.0000 0.1308539855
H   H51       1.0  0.16340  0.77770  0.09430  1.0000 0.1308539855
H   H52       1.0  0.68340  0.06910  0.90570  1.0000 0.1308539855
H   H53       1.0  0.38570  0.31660  0.22230  1.0000 0.1308539855
H   H54       1.0  0.61430  0.83660  0.93090  1.0000 0.1308539855
H   H55       1.0  0.09430  0.16340  0.77770  1.0000 0.1308539855
H   H56       1.0  0.90570  0.68340  0.06910  1.0000 0.1308539855
H   H57       1.0  0.22230  0.38570  0.31660  1.0000 0.1308539855
H   H58       1.0  0.93090  0.61430  0.83660  1.0000 0.1308539855
H   H59       1.0  0.77770  0.09430  0.16340  1.0000 0.1308539855
H   H60       1.0  0.06910  0.90570  0.68340  1.0000 0.1308539855
H   H61       1.0  0.06910  0.16340  0.38570  1.0000 0.1308539855
H   H62       1.0  0.77770  0.68340  0.61430  1.0000 0.1308539855
H   H63       1.0  0.93090  0.31660  0.09430  1.0000 0.1308539855
H   H64       1.0  0.22230  0.83660  0.90570  1.0000 0.1308539855
H   H65       1.0  0.83660  0.90570  0.22230  1.0000 0.1308539855
H   H66       1.0  0.31660  0.09430  0.93090  1.0000 0.1308539855
H   H67       1.0  0.68340  0.61430  0.77770  1.0000 0.1308539855
H   H68       1.0  0.16340  0.38570  0.06910  1.0000 0.1308539855
H   H69       1.0  0.09430  0.93090  0.31660  1.0000 0.1308539855
H   H70       1.0  0.90570  0.22230  0.83660  1.0000 0.1308539855
H   H71       1.0  0.38570  0.06910  0.16340  1.0000 0.1308539855
H   H72       1.0  0.61430  0.77770  0.68340  1.0000 0.1308539855
H   H73       1.0  0.53830  0.66920  0.53830  1.0000 0.1005643561
H   H74       1.0  0.13090  0.00000  0.46170  1.0000 0.1005643561
H   H75       1.0  0.86910  0.33080  0.86910  1.0000 0.1005643561
H   H76       1.0  0.46170  0.00000  0.13090  1.0000 0.1005643561
H   H77       1.0  0.53830  0.53830  0.66920  1.0000 0.1005643561
H   H78       1.0  0.46170  0.13090  0.00000  1.0000 0.1005643561
H   H79       1.0  0.86910  0.86910  0.33080  1.0000 0.1005643561
H   H80       1.0  0.13090  0.46170  0.00000  1.0000 0.1005643561
H   H81       1.0  0.66920  0.53830  0.53830  1.0000 0.1005643561
H   H82       1.0  0.00000  0.46170  0.13090  1.0000 0.1005643561
H   H83       1.0  0.33080  0.86910  0.86910  1.0000 0.1005643561
H   H84       1.0  0.00000  0.13090  0.46170  1.0000 0.1005643561
H   H85       1.0  0.00000  0.86910  0.53830  1.0000 0.1005643561
H   H86       1.0  0.33080  0.46170  0.46170  1.0000 0.1005643561
H   H87       1.0  0.00000  0.53830  0.86910  1.0000 0.1005643561
H   H88       1.0  0.66920  0.13090  0.13090  1.0000 0.1005643561
H   H89       1.0  0.13090  0.13090  0.66920  1.0000 0.1005643561
H   H90       1.0  0.53830  0.86910  0.00000  1.0000 0.1005643561
H   H91       1.0  0.46170  0.46170  0.33080  1.0000 0.1005643561
H   H92       1.0  0.86910  0.53830  0.00000  1.0000 0.1005643561
H   H93       1.0  0.86910  0.00000  0.53830  1.0000 0.1005643561
H   H94       1.0  0.13090  0.66920  0.13090  1.0000 0.1005643561
H   H95       1.0  0.53830  0.00000  0.86910  1.0000 0.1005643561
H   H96       1.0  0.46170  0.33080  0.46170  1.0000 0.1005643561
H   H97       1.0  0.50780  0.75740  0.50780  1.0000 0.1242067412
H   H98       1.0  0.24960  0.00000  0.49220  1.0000 0.1242067412
H   H99       1.0  0.75040  0.24260  0.75040  1.0000 0.1242067412
H   H100      1.0  0.49220  0.00000  0.24960  1.0000 0.1242067412
H   H101      1.0  0.50780  0.50780  0.75740  1.0000 0.1242067412
H   H102      1.0  0.49220  0.24960  0.00000  1.0000 0.1242067412
H   H103      1.0  0.75040  0.75040  0.24260  1.0000 0.1242067412
H   H104      1.0  0.24960  0.49220  0.00000  1.0000 0.1242067412
H   H105      1.0  0.75740  0.50780  0.50780  1.0000 0.1242067412
H   H106      1.0  0.00000  0.49220  0.24960  1.0000 0.1242067412
H   H107      1.0  0.24260  0.75040  0.75040  1.0000 0.1242067412
H   H108      1.0  0.00000  0.24960  0.49220  1.0000 0.1242067412
H   H109      1.0  0.00000  0.75040  0.50780  1.0000 0.1242067412
H   H110      1.0  0.24260  0.49220  0.49220  1.0000 0.1242067412
H   H111      1.0  0.00000  0.50780  0.75040  1.0000 0.1242067412
H   H112      1.0  0.75740  0.24960  0.24960  1.0000 0.1242067412
H   H113      1.0  0.24960  0.24960  0.75740  1.0000 0.1242067412
H   H114      1.0  0.50780  0.75040  0.00000  1.0000 0.1242067412
H   H115      1.0  0.49220  0.49220  0.24260  1.0000 0.1242067412
H   H116      1.0  0.75040  0.50780  0.00000  1.0000 0.1242067412
H   H117      1.0  0.75040  0.00000  0.50780  1.0000 0.1242067412
H   H118      1.0  0.24960  0.75740  0.24960  1.0000 0.1242067412
H   H119      1.0  0.50780  0.00000  0.75040  1.0000 0.1242067412
H   H120      1.0  0.49220  0.24260  0.49220  1.0000 0.1242067412
H   H121      1.0  0.44050  0.69560  0.44050  1.0000 0.1308539855
H   H122      1.0  0.25510  0.00000  0.55950  1.0000 0.1308539855
H   H123      1.0  0.74490  0.30440  0.74490  1.0000 0.1308539855
H   H124      1.0  0.55950  0.00000  0.25510  1.0000 0.1308539855
H   H125      1.0  0.44050  0.44050  0.69560  1.0000 0.1308539855
H   H126      1.0  0.55950  0.25510  0.00000  1.0000 0.1308539855
H   H127      1.0  0.74490  0.74490  0.30440  1.0000 0.1308539855
H   H128      1.0  0.25510  0.55950  0.00000  1.0000 0.1308539855
H   H129      1.0  0.69560  0.44050  0.44050  1.0000 0.1308539855
H   H130      1.0  0.00000  0.55950  0.25510  1.0000 0.1308539855
H   H131      1.0  0.30440  0.74490  0.74490  1.0000 0.1308539855
H   H132      1.0  0.00000  0.25510  0.55950  1.0000 0.1308539855
H   H133      1.0  0.00000  0.74490  0.44050  1.0000 0.1308539855
H   H134      1.0  0.30440  0.55950  0.55950  1.0000 0.1308539855
H   H135      1.0  0.00000  0.44050  0.74490  1.0000 0.1308539855
H   H136      1.0  0.69560  0.25510  0.25510  1.0000 0.1308539855
H   H137      1.0  0.25510  0.25510  0.69560  1.0000 0.1308539855
H   H138      1.0  0.44050  0.74490  0.00000  1.0000 0.1308539855
H   H139      1.0  0.55950  0.55950  0.30440  1.0000 0.1308539855
H   H140      1.0  0.74490  0.44050  0.00000  1.0000 0.1308539855
H   H141      1.0  0.74490  0.00000  0.44050  1.0000 0.1308539855
H   H142      1.0  0.25510  0.69560  0.25510  1.0000 0.1308539855
H   H143      1.0  0.44050  0.00000  0.74490  1.0000 0.1308539855
H   H144      1.0  0.55950  0.30440  0.55950  1.0000 0.1308539855
H   H145      1.0  0.48820  0.58820  0.48820  1.0000 0.1109928231
H   H146      1.0  0.10000  0.00000  0.51180  1.0000 0.1109928231
H   H147      1.0  0.90000  0.41180  0.90000  1.0000 0.1109928231
H   H148      1.0  0.51180  0.00000  0.10000  1.0000 0.1109928231
H   H149      1.0  0.48820  0.48820  0.58820  1.0000 0.1109928231
H   H150      1.0  0.51180  0.10000  0.00000  1.0000 0.1109928231
H   H151      1.0  0.90000  0.90000  0.41180  1.0000 0.1109928231
H   H152      1.0  0.10000  0.51180  0.00000  1.0000 0.1109928231
H   H153      1.0  0.58820  0.48820  0.48820  1.0000 0.1109928231
H   H154      1.0  0.00000  0.51180  0.10000  1.0000 0.1109928231
H   H155      1.0  0.41180  0.90000  0.90000  1.0000 0.1109928231
H   H156      1.0  0.00000  0.10000  0.51180  1.0000 0.1109928231
H   H157      1.0  0.00000  0.90000  0.48820  1.0000 0.1109928231
H   H158      1.0  0.41180  0.51180  0.51180  1.0000 0.1109928231
H   H159      1.0  0.00000  0.48820  0.90000  1.0000 0.1109928231
H   H160      1.0  0.58820  0.10000  0.10000  1.0000 0.1109928231
H   H161      1.0  0.10000  0.10000  0.58820  1.0000 0.1109928231
H   H162      1.0  0.48820  0.90000  0.00000  1.0000 0.1109928231
H   H163      1.0  0.51180  0.51180  0.41180  1.0000 0.1109928231
H   H164      1.0  0.90000  0.48820  0.00000  1.0000 0.1109928231
H   H165      1.0  0.90000  0.00000  0.48820  1.0000 0.1109928231
H   H166      1.0  0.10000  0.58820  0.10000  1.0000 0.1109928231
H   H167      1.0  0.48820  0.00000  0.90000  1.0000 0.1109928231
H   H168      1.0  0.51180  0.41180  0.51180  1.0000 0.1109928231
H   H169      1.0  0.42000  0.52680  0.42000  1.0000 0.1109928231
H   H170      1.0  0.10680  0.00000  0.58000  1.0000 0.1109928231
H   H171      1.0  0.89320  0.47320  0.89320  1.0000 0.1109928231
H   H172      1.0  0.58000  0.00000  0.10680  1.0000 0.1109928231
H   H173      1.0  0.42000  0.42000  0.52680  1.0000 0.1109928231
H   H174      1.0  0.58000  0.10680  0.00000  1.0000 0.1109928231
H   H175      1.0  0.89320  0.89320  0.47320  1.0000 0.1109928231
H   H176      1.0  0.10680  0.58000  0.00000  1.0000 0.1109928231
H   H177      1.0  0.52680  0.42000  0.42000  1.0000 0.1109928231
H   H178      1.0  0.00000  0.58000  0.10680  1.0000 0.1109928231
H   H179      1.0  0.47320  0.89320  0.89320  1.0000 0.1109928231
H   H180      1.0  0.00000  0.10680  0.58000  1.0000 0.1109928231
H   H181      1.0  0.00000  0.89320  0.42000  1.0000 0.1109928231
H   H182      1.0  0.47320  0.58000  0.58000  1.0000 0.1109928231
H   H183      1.0  0.00000  0.42000  0.89320  1.0000 0.1109928231
H   H184      1.0  0.52680  0.10680  0.10680  1.0000 0.1109928231
H   H185      1.0  0.10680  0.10680  0.52680  1.0000 0.1109928231
H   H186      1.0  0.42000  0.89320  0.00000  1.0000 0.1109928231
H   H187      1.0  0.58000  0.58000  0.47320  1.0000 0.1109928231
H   H188      1.0  0.89320  0.42000  0.00000  1.0000 0.1109928231
H   H189      1.0  0.89320  0.00000  0.42000  1.0000 0.1109928231
H   H190      1.0  0.10680  0.52680  0.10680  1.0000 0.1109928231
H   H191      1.0  0.42000  0.00000  0.89320  1.0000 0.1109928231
H   H192      1.0  0.58000  0.47320  0.58000  1.0000 0.1109928231
H   H193      1.0  0.38990  0.61520  0.38990  1.0000 0.220547034
H   H194      1.0  0.22530  0.00000  0.61010  1.0000 0.220547034
H   H195      1.0  0.77470  0.38480  0.77470  1.0000 0.220547034
H   H196      1.0  0.61010  0.00000  0.22530  1.0000 0.220547034
H   H197      1.0  0.38990  0.38990  0.61520  1.0000 0.220547034
H   H198      1.0  0.61010  0.22530  0.00000  1.0000 0.220547034
H   H199      1.0  0.77470  0.77470  0.38480  1.0000 0.220547034
H   H200      1.0  0.22530  0.61010  0.00000  1.0000 0.220547034
H   H201      1.0  0.61520  0.38990  0.38990  1.0000 0.220547034
H   H202      1.0  0.00000  0.61010  0.22530  1.0000 0.2073820815
H   H203      1.0  0.38480  0.77470  0.77470  1.0000 0.220547034
H   H204      1.0  0.00000  0.22530  0.61010  1.0000 0.220547034
H   H205      1.0  0.00000  0.77470  0.38990  1.0000 0.220547034
H   H206      1.0  0.38480  0.61010  0.61010  1.0000 0.220547034
H   H207      1.0  0.00000  0.38990  0.77470  1.0000 0.220547034
H   H208      1.0  0.61520  0.22530  0.22530  1.0000 0.220547034
H   H209      1.0  0.22530  0.22530  0.61520  1.0000 0.220547034
H   H210      1.0  0.38990  0.77470  0.00000  1.0000 0.2073820815
H   H211      1.0  0.61010  0.61010  0.38480  1.0000 0.220547034
H   H212      1.0  0.77470  0.38990  0.00000  1.0000 0.220547034
H   H213      1.0  0.77470  0.00000  0.38990  1.0000 0.220547034
H   H214      1.0  0.22530  0.61520  0.22530  1.0000 0.2073820815
H   H215      1.0  0.38990  0.00000  0.77470  1.0000 0.220547034
H   H216      1.0  0.61010  0.38480  0.61010  1.0000 0.220547034
H   H217      1.0  0.28140  0.56280  0.28140  1.0000 0.1508319522
H   H218      1.0  0.28140  0.00000  0.71860  1.0000 0.1508319522
H   H219      1.0  0.71860  0.43720  0.71860  1.0000 0.1508319522
H   H220      1.0  0.71860  0.00000  0.28140  1.0000 0.1508319522
H   H221      1.0  0.28140  0.28140  0.56280  1.0000 0.1508319522
H   H222      1.0  0.71860  0.28140  0.00000  1.0000 0.1508319522
H   H223      1.0  0.71860  0.71860  0.43720  1.0000 0.1508319522
H   H224      1.0  0.28140  0.71860  0.00000  1.0000 0.1508319522
H   H225      1.0  0.56280  0.28140  0.28140  1.0000 0.1508319522
H   H226      1.0  0.00000  0.71860  0.28140  1.0000 0.1508319522
H   H227      1.0  0.43720  0.71860  0.71860  1.0000 0.1508319522
H   H228      1.0  0.00000  0.28140  0.71860  1.0000 0.1508319522
H   H229      1.0  0.26930  0.44220  0.26930  1.0000 0.1005643561
H   H230      1.0  0.17290  0.00000  0.73070  1.0000 0.1005643561
H   H231      1.0  0.82710  0.55780  0.82710  1.0000 0.1005643561
H   H232      1.0  0.73070  0.00000  0.17290  1.0000 0.1005643561
H   H233      1.0  0.26930  0.26930  0.44220  1.0000 0.1005643561
H   H234      1.0  0.73070  0.17290  0.00000  1.0000 0.1005643561
H   H235      1.0  0.82710  0.82710  0.55780  1.0000 0.1005643561
H   H236      1.0  0.17290  0.73070  0.00000  1.0000 0.1005643561
H   H237      1.0  0.44220  0.26930  0.26930  1.0000 0.1005643561
H   H238      1.0  0.00000  0.73070  0.17290  1.0000 0.1005643561
H   H239      1.0  0.55780  0.82710  0.82710  1.0000 0.1005643561
H   H240      1.0  0.00000  0.17290  0.73070  1.0000 0.1005643561
H   H241      1.0  0.00000  0.82710  0.26930  1.0000 0.1005643561
H   H242      1.0  0.55780  0.73070  0.73070  1.0000 0.1005643561
H   H243      1.0  0.00000  0.26930  0.82710  1.0000 0.1005643561
H   H244      1.0  0.44220  0.17290  0.17290  1.0000 0.1005643561
H   H245      1.0  0.17290  0.17290  0.44220  1.0000 0.1005643561
H   H246      1.0  0.26930  0.82710  0.00000  1.0000 0.1005643561
H   H247      1.0  0.73070  0.73070  0.55780  1.0000 0.1005643561
H   H248      1.0  0.82710  0.26930  0.00000  1.0000 0.1005643561
H   H249      1.0  0.82710  0.00000  0.26930  1.0000 0.1005643561
H   H250      1.0  0.17290  0.44220  0.17290  1.0000 0.1005643561
H   H251      1.0  0.26930  0.00000  0.82710  1.0000 0.1005643561
H   H252      1.0  0.73070  0.55780  0.73070  1.0000 0.1005643561
H   H253      1.0  0.34690  0.49640  0.34690  1.0000 0.272716672
H   H254      1.0  0.14950  0.00000  0.65310  1.0000 0.272716672
H   H255      1.0  0.85050  0.50360  0.85050  1.0000 0.272716672
H   H256      1.0  0.65310  0.00000  0.14950  1.0000 0.272716672
H   H257      1.0  0.34690  0.34690  0.49640  1.0000 0.272716672
H   H258      1.0  0.65310  0.14950  0.00000  1.0000 0.272716672
H   H259      1.0  0.85050  0.85050  0.50360  1.0000 0.272716672
H   H260      1.0  0.14950  0.65310  0.00000  1.0000 0.272716672
H   H261      1.0  0.49640  0.34690  0.34690  1.0000 0.272716672
H   H262      1.0  0.00000  0.65310  0.14950  1.0000 0.272716672
H   H263      1.0  0.50360  0.85050  0.85050  1.0000 0.272716672
H   H264      1.0  0.00000  0.14950  0.65310  1.0000 0.272716672
H   H265      1.0  0.00000  0.85050  0.34690  1.0000 0.272716672
H   H266      1.0  0.50360  0.65310  0.65310  1.0000 0.272716672
H   H267      1.0  0.00000  0.34690  0.85050  1.0000 0.272716672
H   H268      1.0  0.49640  0.14950  0.14950  1.0000 0.272716672
H   H269      1.0  0.14950  0.14950  0.49640  1.0000 0.272716672
H   H270      1.0  0.34690  0.85050  0.00000  1.0000 0.272716672
H   H271      1.0  0.65310  0.65310  0.50360  1.0000 0.272716672
H   H272      1.0  0.85050  0.34690  0.00000  1.0000 0.272716672
H   H273      1.0  0.85050  0.00000  0.34690  1.0000 0.272716672
H   H274      1.0  0.14950  0.49640  0.14950  1.0000 0.272716672
H   H275      1.0  0.34690  0.00000  0.85050  1.0000 0.272716672
H   H276      1.0  0.65310  0.50360  0.65310  1.0000 0.272716672
H   H277      1.0  0.60380  0.72790  0.57850  1.0000 0.263434165
H   H278      1.0  0.14940  0.02530  0.42150  1.0000 0.263434165
H   H279      1.0  0.85060  0.27210  0.87590  1.0000 0.263434165
H   H280      1.0  0.39620  0.97470  0.12410  1.0000 0.263434165
H   H281      1.0  0.57850  0.60380  0.72790  1.0000 0.263434165
H   H282      1.0  0.42150  0.14940  0.02530  1.0000 0.263434165
H   H283      1.0  0.87590  0.85060  0.27210  1.0000 0.263434165
H   H284      1.0  0.12410  0.39620  0.97470  1.0000 0.263434165
H   H285      1.0  0.72790  0.57850  0.60380  1.0000 0.263434165
H   H286      1.0  0.02530  0.42150  0.14940  1.0000 0.263434165
H   H287      1.0  0.27210  0.87590  0.85060  1.0000 0.263434165
H   H288      1.0  0.97470  0.12410  0.39620  1.0000 0.263434165
H   H289      1.0  0.97470  0.85060  0.57850  1.0000 0.263434165
H   H290      1.0  0.27210  0.39620  0.42150  1.0000 0.263434165
H   H291      1.0  0.02530  0.60380  0.87590  1.0000 0.263434165
H   H292      1.0  0.72790  0.14940  0.12410  1.0000 0.263434165
H   H293      1.0  0.14940  0.12410  0.72790  1.0000 0.263434165
H   H294      1.0  0.60380  0.87590  0.02530  1.0000 0.263434165
H   H295      1.0  0.39620  0.42150  0.27210  1.0000 0.263434165
H   H296      1.0  0.85060  0.57850  0.97470  1.0000 0.263434165
H   H297      1.0  0.87590  0.02530  0.60380  1.0000 0.263434165
H   H298      1.0  0.12410  0.72790  0.14940  1.0000 0.263434165
H   H299      1.0  0.57850  0.97470  0.85060  1.0000 0.263434165
H   H300      1.0  0.42150  0.27210  0.39620  1.0000 0.263434165
H   H301      1.0  0.39620  0.27210  0.42150  1.0000 0.263434165
H   H302      1.0  0.85060  0.97470  0.57850  1.0000 0.263434165
H   H303      1.0  0.14940  0.72790  0.12410  1.0000 0.263434165
H   H304      1.0  0.60380  0.02530  0.87590  1.0000 0.263434165
H   H305      1.0  0.42150  0.39620  0.27210  1.0000 0.263434165
H   H306      1.0  0.57850  0.85060  0.97470  1.0000 0.263434165
H   H307      1.0  0.12410  0.14940  0.72790  1.0000 0.263434165
H   H308      1.0  0.87590  0.60380  0.02530  1.0000 0.263434165
H   H309      1.0  0.27210  0.42150  0.39620  1.0000 0.263434165
H   H310      1.0  0.97470  0.57850  0.85060  1.0000 0.263434165
H   H311      1.0  0.72790  0.12410  0.14940  1.0000 0.263434165
H   H312      1.0  0.02530  0.87590  0.60380  1.0000 0.263434165
H   H313      1.0  0.02530  0.14940  0.42150  1.0000 0.263434165
H   H314      1.0  0.72790  0.60380  0.57850  1.0000 0.263434165
H   H315      1.0  0.97470  0.39620  0.12410  1.0000 0.263434165
H   H316      1.0  0.27210  0.85060  0.87590  1.0000 0.263434165
H   H317      1.0  0.85060  0.87590  0.27210  1.0000 0.263434165
H   H318      1.0  0.39620  0.12410  0.97470  1.0000 0.263434165
H   H319      1.0  0.60380  0.57850  0.72790  1.0000 0.263434165
H   H320      1.0  0.14940  0.42150  0.02530  1.0000 0.263434165
H   H321      1.0  0.12410  0.97470  0.39620  1.0000 0.263434165
H   H322      1.0  0.87590  0.27210  0.85060  1.0000 0.263434165
H   H323      1.0  0.42150  0.02530  0.14940  1.0000 0.263434165
H   H324      1.0  0.57850  0.72790  0.60380  1.0000 0.263434165
C   C1        1.0  0.76766  0.82751  0.68325  1.0000 0.5714640501
C   C2        1.0  0.14426  0.08441  0.31675  1.0000 0.5714640501
C   C3        1.0  0.85574  0.17249  0.94015  1.0000 0.5714640501
C   C4        1.0  0.23234  0.91559  0.05985  1.0000 0.5714640501
C   C5        1.0  0.68325  0.76766  0.82751  1.0000 0.5714640501
C   C6        1.0  0.31675  0.14426  0.08441  1.0000 0.5714640501
C   C7        1.0  0.94015  0.85574  0.17249  1.0000 0.5714640501
C   C8        1.0  0.05985  0.23234  0.91559  1.0000 0.5714640501
C   C9        1.0  0.82751  0.68325  0.76766  1.0000 0.5714640501
C   C10       1.0  0.08441  0.31675  0.14426  1.0000 0.5714640501
C   C11       1.0  0.17249  0.94015  0.85574  1.0000 0.5714640501
C   C12       1.0  0.91559  0.05985  0.23234  1.0000 0.5714640501
C   C13       1.0  0.91559  0.85574  0.68325  1.0000 0.5714640501
C   C14       1.0  0.17249  0.23234  0.31675  1.0000 0.5714640501
C   C15       1.0  0.08441  0.76766  0.94015  1.0000 0.5714640501
C   C16       1.0  0.82751  0.14426  0.05985  1.0000 0.5714640501
C   C17       1.0  0.14426  0.05985  0.82751  1.0000 0.5714640501
C   C18       1.0  0.76766  0.94015  0.08441  1.0000 0.5714640501
C   C19       1.0  0.23234  0.31675  0.17249  1.0000 0.5714640501
C   C20       1.0  0.85574  0.68325  0.91559  1.0000 0.5714640501
C   C21       1.0  0.94015  0.08441  0.76766  1.0000 0.5714640501
C   C22       1.0  0.05985  0.82751  0.14426  1.0000 0.5714640501
C   C23       1.0  0.68325  0.91559  0.85574  1.0000 0.5714640501
C   C24       1.0  0.31675  0.17249  0.23234  1.0000 0.5714640501
C   C25       1.0  0.23234  0.17249  0.31675  1.0000 0.5714640501
C   C26       1.0  0.85574  0.91559  0.68325  1.0000 0.5714640501
C   C27       1.0  0.14426  0.82751  0.05985  1.0000 0.5714640501
C   C28       1.0  0.76766  0.08441  0.94015  1.0000 0.5714640501
C   C29       1.0  0.31675  0.23234  0.17249  1.0000 0.5714640501
C   C30       1.0  0.68325  0.85574  0.91559  1.0000 0.5714640501
C   C31       1.0  0.05985  0.14426  0.82751  1.0000 0.5714640501
C   C32       1.0  0.94015  0.76766  0.08441  1.0000 0.5714640501
C   C33       1.0  0.17249  0.31675  0.23234  1.0000 0.5714640501
C   C34       1.0  0.91559  0.68325  0.85574  1.0000 0.5714640501
C   C35       1.0  0.82751  0.05985  0.14426  1.0000 0.5714640501
C   C36       1.0  0.08441  0.94015  0.76766  1.0000 0.5714640501
C   C37       1.0  0.08441  0.14426  0.31675  1.0000 0.5714640501
C   C38       1.0  0.82751  0.76766  0.68325  1.0000 0.5714640501
C   C39       1.0  0.91559  0.23234  0.05985  1.0000 0.5714640501
C   C40       1.0  0.17249  0.85574  0.94015  1.0000 0.5714640501
C   C41       1.0  0.85574  0.94015  0.17249  1.0000 0.5714640501
C   C42       1.0  0.23234  0.05985  0.91559  1.0000 0.5714640501
C   C43       1.0  0.76766  0.68325  0.82751  1.0000 0.5714640501
C   C44       1.0  0.14426  0.31675  0.08441  1.0000 0.5714640501
C   C45       1.0  0.05985  0.91559  0.23234  1.0000 0.5714640501
C   C46       1.0  0.94015  0.17249  0.85574  1.0000 0.5714640501
C   C47       1.0  0.31675  0.08441  0.14426  1.0000 0.5714640501
C   C48       1.0  0.68325  0.82751  0.76766  1.0000 0.5714640501
C   C49       1.0  0.72449  0.83236  0.72449  1.0000 -0.1036875662
C   C50       1.0  0.10787  0.00000  0.27551  1.0000 -0.1036875662
C   C51       1.0  0.89213  0.16764  0.89213  1.0000 -0.1036875662
C   C52       1.0  0.27551  0.00000  0.10787  1.0000 -0.1036875662
C   C53       1.0  0.72449  0.72449  0.83236  1.0000 -0.1036875662
C   C54       1.0  0.27551  0.10787  0.00000  1.0000 -0.1036875662
C   C55       1.0  0.89213  0.89213  0.16764  1.0000 -0.1036875662
C   C56       1.0  0.10787  0.27551  0.00000  1.0000 -0.1036875662
C   C57       1.0  0.83236  0.72449  0.72449  1.0000 -0.1036875662
C   C58       1.0  0.00000  0.27551  0.10787  1.0000 -0.1036875662
C   C59       1.0  0.16764  0.89213  0.89213  1.0000 -0.1036875662
C   C60       1.0  0.00000  0.10787  0.27551  1.0000 -0.1036875662
C   C61       1.0  0.00000  0.89213  0.72449  1.0000 -0.1036875662
C   C62       1.0  0.16764  0.27551  0.27551  1.0000 -0.1036875662
C   C63       1.0  0.00000  0.72449  0.89213  1.0000 -0.1036875662
C   C64       1.0  0.83236  0.10787  0.10787  1.0000 -0.1036875662
C   C65       1.0  0.10787  0.10787  0.83236  1.0000 -0.1036875662
C   C66       1.0  0.72449  0.89213  0.00000  1.0000 -0.1036875662
C   C67       1.0  0.27551  0.27551  0.16764  1.0000 -0.1036875662
C   C68       1.0  0.89213  0.72449  0.00000  1.0000 -0.1036875662
C   C69       1.0  0.89213  0.00000  0.72449  1.0000 -0.1036875662
C   C70       1.0  0.10787  0.83236  0.10787  1.0000 -0.1036875662
C   C71       1.0  0.72449  0.00000  0.89213  1.0000 -0.1036875662
C   C72       1.0  0.27551  0.16764  0.27551  1.0000 -0.1036875662
C   C73       1.0  0.72465  0.81815  0.68376  1.0000 -0.0212636014
C   C74       1.0  0.13439  0.04089  0.31624  1.0000 -0.0212636014
C   C75       1.0  0.86561  0.18185  0.90650  1.0000 -0.0212636014
C   C76       1.0  0.27535  0.95911  0.09350  1.0000 -0.0212636014
C   C77       1.0  0.68376  0.72465  0.81815  1.0000 -0.0212636014
C   C78       1.0  0.31624  0.13439  0.04089  1.0000 -0.0212636014
C   C79       1.0  0.90650  0.86561  0.18185  1.0000 -0.0212636014
C   C80       1.0  0.09350  0.27535  0.95911  1.0000 -0.0212636014
C   C81       1.0  0.81815  0.68376  0.72465  1.0000 -0.0212636014
C   C82       1.0  0.04089  0.31624  0.13439  1.0000 -0.0212636014
C   C83       1.0  0.18185  0.90650  0.86561  1.0000 -0.0212636014
C   C84       1.0  0.95911  0.09350  0.27535  1.0000 -0.0212636014
C   C85       1.0  0.95911  0.86561  0.68376  1.0000 -0.0212636014
C   C86       1.0  0.18185  0.27535  0.31624  1.0000 -0.0212636014
C   C87       1.0  0.04089  0.72465  0.90650  1.0000 -0.0212636014
C   C88       1.0  0.81815  0.13439  0.09350  1.0000 -0.0212636014
C   C89       1.0  0.13439  0.09350  0.81815  1.0000 -0.0212636014
C   C90       1.0  0.72465  0.90650  0.04089  1.0000 -0.0212636014
C   C91       1.0  0.27535  0.31624  0.18185  1.0000 -0.0212636014
C   C92       1.0  0.86561  0.68376  0.95911  1.0000 -0.0212636014
C   C93       1.0  0.90650  0.04089  0.72465  1.0000 -0.0212636014
C   C94       1.0  0.09350  0.81815  0.13439  1.0000 -0.0212636014
C   C95       1.0  0.68376  0.95911  0.86561  1.0000 -0.0212636014
C   C96       1.0  0.31624  0.18185  0.27535  1.0000 -0.0212636014
C   C97       1.0  0.27535  0.18185  0.31624  1.0000 -0.0212636014
C   C98       1.0  0.86561  0.95911  0.68376  1.0000 -0.0212636014
C   C99       1.0  0.13439  0.81815  0.09350  1.0000 -0.0212636014
C   C100      1.0  0.72465  0.04089  0.90650  1.0000 -0.0212636014
C   C101      1.0  0.31624  0.27535  0.18185  1.0000 -0.0212636014
C   C102      1.0  0.68376  0.86561  0.95911  1.0000 -0.0212636014
C   C103      1.0  0.09350  0.13439  0.81815  1.0000 -0.0212636014
C   C104      1.0  0.90650  0.72465  0.04089  1.0000 -0.0212636014
C   C105      1.0  0.18185  0.31624  0.27535  1.0000 -0.0212636014
C   C106      1.0  0.95911  0.68376  0.86561  1.0000 -0.0212636014
C   C107      1.0  0.81815  0.09350  0.13439  1.0000 -0.0212636014
C   C108      1.0  0.04089  0.90650  0.72465  1.0000 -0.0212636014
C   C109      1.0  0.04089  0.13439  0.31624  1.0000 -0.0212636014
C   C110      1.0  0.81815  0.72465  0.68376  1.0000 -0.0212636014
C   C111      1.0  0.95911  0.27535  0.09350  1.0000 -0.0212636014
C   C112      1.0  0.18185  0.86561  0.90650  1.0000 -0.0212636014
C   C113      1.0  0.86561  0.90650  0.18185  1.0000 -0.0212636014
C   C114      1.0  0.27535  0.09350  0.95911  1.0000 -0.0212636014
C   C115      1.0  0.72465  0.68376  0.81815  1.0000 -0.0212636014
C   C116      1.0  0.13439  0.31624  0.04089  1.0000 -0.0212636014
C   C117      1.0  0.09350  0.95911  0.27535  1.0000 -0.0212636014
C   C118      1.0  0.90650  0.18185  0.86561  1.0000 -0.0212636014
C   C119      1.0  0.31624  0.04089  0.13439  1.0000 -0.0212636014
C   C120      1.0  0.68376  0.81815  0.72465  1.0000 -0.0212636014
C   C121      1.0  0.68343  0.78893  0.64228  1.0000 -0.2129787283
C   C122      1.0  0.14665  0.04115  0.35772  1.0000 -0.2129787283
C   C123      1.0  0.85335  0.21107  0.89450  1.0000 -0.2129787283
C   C124      1.0  0.31657  0.95885  0.10550  1.0000 -0.2129787283
C   C125      1.0  0.64228  0.68343  0.78893  1.0000 -0.2129787283
C   C126      1.0  0.35772  0.14665  0.04115  1.0000 -0.2129787283
C   C127      1.0  0.89450  0.85335  0.21107  1.0000 -0.2129787283
C   C128      1.0  0.10550  0.31657  0.95885  1.0000 -0.2129787283
C   C129      1.0  0.78893  0.64228  0.68343  1.0000 -0.2129787283
C   C130      1.0  0.04115  0.35772  0.14665  1.0000 -0.2129787283
C   C131      1.0  0.21107  0.89450  0.85335  1.0000 -0.2129787283
C   C132      1.0  0.95885  0.10550  0.31657  1.0000 -0.2129787283
C   C133      1.0  0.95885  0.85335  0.64228  1.0000 -0.2129787283
C   C134      1.0  0.21107  0.31657  0.35772  1.0000 -0.2129787283
C   C135      1.0  0.04115  0.68343  0.89450  1.0000 -0.2129787283
C   C136      1.0  0.78893  0.14665  0.10550  1.0000 -0.2129787283
C   C137      1.0  0.14665  0.10550  0.78893  1.0000 -0.2129787283
C   C138      1.0  0.68343  0.89450  0.04115  1.0000 -0.2129787283
C   C139      1.0  0.31657  0.35772  0.21107  1.0000 -0.2129787283
C   C140      1.0  0.85335  0.64228  0.95885  1.0000 -0.2129787283
C   C141      1.0  0.89450  0.04115  0.68343  1.0000 -0.2129787283
C   C142      1.0  0.10550  0.78893  0.14665  1.0000 -0.2129787283
C   C143      1.0  0.64228  0.95885  0.85335  1.0000 -0.2129787283
C   C144      1.0  0.35772  0.21107  0.31657  1.0000 -0.2129787283
C   C145      1.0  0.31657  0.21107  0.35772  1.0000 -0.2129787283
C   C146      1.0  0.85335  0.95885  0.64228  1.0000 -0.2129787283
C   C147      1.0  0.14665  0.78893  0.10550  1.0000 -0.2129787283
C   C148      1.0  0.68343  0.04115  0.89450  1.0000 -0.2129787283
C   C149      1.0  0.35772  0.31657  0.21107  1.0000 -0.2129787283
C   C150      1.0  0.64228  0.85335  0.95885  1.0000 -0.2129787283
C   C151      1.0  0.10550  0.14665  0.78893  1.0000 -0.2129787283
C   C152      1.0  0.89450  0.68343  0.04115  1.0000 -0.2129787283
C   C153      1.0  0.21107  0.35772  0.31657  1.0000 -0.2129787283
C   C154      1.0  0.95885  0.64228  0.85335  1.0000 -0.2129787283
C   C155      1.0  0.78893  0.10550  0.14665  1.0000 -0.2129787283
C   C156      1.0  0.04115  0.89450  0.68343  1.0000 -0.2129787283
C   C157      1.0  0.04115  0.14665  0.35772  1.0000 -0.2129787283
C   C158      1.0  0.78893  0.68343  0.64228  1.0000 -0.2129787283
C   C159      1.0  0.95885  0.31657  0.10550  1.0000 -0.2129787283
C   C160      1.0  0.21107  0.85335  0.89450  1.0000 -0.2129787283
C   C161      1.0  0.85335  0.89450  0.21107  1.0000 -0.2129787283
C   C162      1.0  0.31657  0.10550  0.95885  1.0000 -0.2129787283
C   C163      1.0  0.68343  0.64228  0.78893  1.0000 -0.2129787283
C   C164      1.0  0.14665  0.35772  0.04115  1.0000 -0.2129787283
C   C165      1.0  0.10550  0.95885  0.31657  1.0000 -0.2129787283
C   C166      1.0  0.89450  0.21107  0.85335  1.0000 -0.2129787283
C   C167      1.0  0.35772  0.04115  0.14665  1.0000 -0.2129787283
C   C168      1.0  0.64228  0.78893  0.68343  1.0000 -0.2129787283
C   C169      1.0  0.64271  0.77674  0.64271  1.0000 0.2073820815
C   C170      1.0  0.13403  0.00000  0.35729  1.0000 0.2073820815
C   C171      1.0  0.86597  0.22326  0.86597  1.0000 0.2073820815
C   C172      1.0  0.35729  0.00000  0.13403  1.0000 0.2073820815
C   C173      1.0  0.64271  0.64271  0.77674  1.0000 0.2073820815
C   C174      1.0  0.35729  0.13403  0.00000  1.0000 0.2073820815
C   C175      1.0  0.86597  0.86597  0.22326  1.0000 0.2073820815
C   C176      1.0  0.13403  0.35729  0.00000  1.0000 0.2073820815
C   C177      1.0  0.77674  0.64271  0.64271  1.0000 0.2073820815
C   C178      1.0  0.00000  0.35729  0.13403  1.0000 0.2073820815
C   C179      1.0  0.22326  0.86597  0.86597  1.0000 0.2073820815
C   C180      1.0  0.00000  0.13403  0.35729  1.0000 0.2073820815
C   C181      1.0  0.00000  0.86597  0.64271  1.0000 0.2073820815
C   C182      1.0  0.22326  0.35729  0.35729  1.0000 0.2073820815
C   C183      1.0  0.00000  0.64271  0.86597  1.0000 0.2073820815
C   C184      1.0  0.77674  0.13403  0.13403  1.0000 0.2073820815
C   C185      1.0  0.13403  0.13403  0.77674  1.0000 0.2073820815
C   C186      1.0  0.64271  0.86597  0.00000  1.0000 0.2073820815
C   C187      1.0  0.35729  0.35729  0.22326  1.0000 0.2073820815
C   C188      1.0  0.86597  0.64271  0.00000  1.0000 0.2073820815
C   C189      1.0  0.86597  0.00000  0.64271  1.0000 0.2073820815
C   C190      1.0  0.13403  0.77674  0.13403  1.0000 0.2073820815
C   C191      1.0  0.64271  0.00000  0.86597  1.0000 0.2073820815
C   C192      1.0  0.35729  0.22326  0.35729  1.0000 0.2073820815
C   C193      1.0  0.57163  0.75964  0.57163  1.0000 0.449569738
C   C194      1.0  0.18801  0.00000  0.42837  1.0000 0.4551226802
C   C195      1.0  0.81199  0.24036  0.81199  1.0000 0.4551226802
C   C196      1.0  0.42837  0.00000  0.18801  1.0000 0.4551226802
C   C197      1.0  0.57163  0.57163  0.75964  1.0000 0.449569738
C   C198      1.0  0.42837  0.18801  0.00000  1.0000 0.449569738
C   C199      1.0  0.81199  0.81199  0.24036  1.0000 0.449569738
C   C200      1.0  0.18801  0.42837  0.00000  1.0000 0.449569738
C   C201      1.0  0.75964  0.57163  0.57163  1.0000 0.449569738
C   C202      1.0  0.00000  0.42837  0.18801  1.0000 0.449569738
C   C203      1.0  0.24036  0.81199  0.81199  1.0000 0.449569738
C   C204      1.0  0.00000  0.18801  0.42837  1.0000 0.4551226802
C   C205      1.0  0.00000  0.81199  0.57163  1.0000 0.449569738
C   C206      1.0  0.24036  0.42837  0.42837  1.0000 0.449569738
C   C207      1.0  0.00000  0.57163  0.81199  1.0000 0.4551226802
C   C208      1.0  0.75964  0.18801  0.18801  1.0000 0.449569738
C   C209      1.0  0.18801  0.18801  0.75964  1.0000 0.4551226802
C   C210      1.0  0.57163  0.81199  0.00000  1.0000 0.449569738
C   C211      1.0  0.42837  0.42837  0.24036  1.0000 0.449569738
C   C212      1.0  0.81199  0.57163  0.00000  1.0000 0.449569738
C   C213      1.0  0.81199  0.00000  0.57163  1.0000 0.4551226802
C   C214      1.0  0.18801  0.75964  0.18801  1.0000 0.449569738
C   C215      1.0  0.57163  0.00000  0.81199  1.0000 0.4551226802
C   C216      1.0  0.42837  0.24036  0.42837  1.0000 0.4551226802
C   C217      1.0  0.51864  0.67494  0.51864  1.0000 -0.199948908
C   C218      1.0  0.15630  0.00000  0.48136  1.0000 -0.199948908
C   C219      1.0  0.84370  0.32506  0.84370  1.0000 -0.199948908
C   C220      1.0  0.48136  0.00000  0.15630  1.0000 -0.199948908
C   C221      1.0  0.51864  0.51864  0.67494  1.0000 -0.199948908
C   C222      1.0  0.48136  0.15630  0.00000  1.0000 -0.199948908
C   C223      1.0  0.84370  0.84370  0.32506  1.0000 -0.199948908
C   C224      1.0  0.15630  0.48136  0.00000  1.0000 -0.199948908
C   C225      1.0  0.67494  0.51864  0.51864  1.0000 -0.199948908
C   C226      1.0  0.00000  0.48136  0.15630  1.0000 -0.199948908
C   C227      1.0  0.32506  0.84370  0.84370  1.0000 -0.199948908
C   C228      1.0  0.00000  0.15630  0.48136  1.0000 -0.199948908
C   C229      1.0  0.00000  0.84370  0.51864  1.0000 -0.199948908
C   C230      1.0  0.32506  0.48136  0.48136  1.0000 -0.199948908
C   C231      1.0  0.00000  0.51864  0.84370  1.0000 -0.199948908
C   C232      1.0  0.67494  0.15630  0.15630  1.0000 -0.199948908
C   C233      1.0  0.15630  0.15630  0.67494  1.0000 -0.199948908
C   C234      1.0  0.51864  0.84370  0.00000  1.0000 -0.199948908
C   C235      1.0  0.48136  0.48136  0.32506  1.0000 -0.199948908
C   C236      1.0  0.84370  0.51864  0.00000  1.0000 -0.199948908
C   C237      1.0  0.84370  0.00000  0.51864  1.0000 -0.199948908
C   C238      1.0  0.15630  0.67494  0.15630  1.0000 -0.199948908
C   C239      1.0  0.51864  0.00000  0.84370  1.0000 -0.199948908
C   C240      1.0  0.48136  0.32506  0.48136  1.0000 -0.199948908
C   C241      1.0  0.52919  0.71814  0.52919  1.0000 -0.0320729562
C   C242      1.0  0.18895  0.00000  0.47081  1.0000 -0.0320729562
C   C243      1.0  0.81105  0.28186  0.81105  1.0000 -0.0320729562
C   C244      1.0  0.47081  0.00000  0.18895  1.0000 -0.0320729562
C   C245      1.0  0.52919  0.52919  0.71814  1.0000 -0.0320729562
C   C246      1.0  0.47081  0.18895  0.00000  1.0000 -0.0320729562
C   C247      1.0  0.81105  0.81105  0.28186  1.0000 -0.0320729562
C   C248      1.0  0.18895  0.47081  0.00000  1.0000 -0.0320729562
C   C249      1.0  0.71814  0.52919  0.52919  1.0000 -0.0320729562
C   C250      1.0  0.00000  0.47081  0.18895  1.0000 -0.0320729562
C   C251      1.0  0.28186  0.81105  0.81105  1.0000 -0.0320729562
C   C252      1.0  0.00000  0.18895  0.47081  1.0000 -0.0320729562
C   C253      1.0  0.00000  0.81105  0.52919  1.0000 -0.0320729562
C   C254      1.0  0.28186  0.47081  0.47081  1.0000 -0.0320729562
C   C255      1.0  0.00000  0.52919  0.81105  1.0000 -0.0320729562
C   C256      1.0  0.71814  0.18895  0.18895  1.0000 -0.0320729562
C   C257      1.0  0.18895  0.18895  0.71814  1.0000 -0.0320729562
C   C258      1.0  0.52919  0.81105  0.00000  1.0000 -0.0320729562
C   C259      1.0  0.47081  0.47081  0.28186  1.0000 -0.0320729562
C   C260      1.0  0.81105  0.52919  0.00000  1.0000 -0.0320729562
C   C261      1.0  0.81105  0.00000  0.52919  1.0000 -0.0320729562
C   C262      1.0  0.18895  0.71814  0.18895  1.0000 -0.0320729562
C   C263      1.0  0.52919  0.00000  0.81105  1.0000 -0.0320729562
C   C264      1.0  0.47081  0.28186  0.47081  1.0000 -0.0320729562
C   C265      1.0  0.50027  0.72686  0.50027  1.0000 -0.1129323333
C   C266      1.0  0.22659  0.00000  0.49973  1.0000 -0.1129323333
C   C267      1.0  0.77341  0.27314  0.77341  1.0000 -0.1129323333
C   C268      1.0  0.49973  0.00000  0.22659  1.0000 -0.1129323333
C   C269      1.0  0.50027  0.50027  0.72686  1.0000 -0.1129323333
C   C270      1.0  0.49973  0.22659  0.00000  1.0000 -0.1159790598
C   C271      1.0  0.77341  0.77341  0.27314  1.0000 -0.1129323333
C   C272      1.0  0.22659  0.49973  0.00000  1.0000 -0.1159790598
C   C273      1.0  0.72686  0.50027  0.50027  1.0000 -0.1129323333
C   C274      1.0  0.00000  0.49973  0.22659  1.0000 -0.1129323333
C   C275      1.0  0.27314  0.77341  0.77341  1.0000 -0.1129323333
C   C276      1.0  0.00000  0.22659  0.49973  1.0000 -0.1129323333
C   C277      1.0  0.00000  0.77341  0.50027  1.0000 -0.1129323333
C   C278      1.0  0.27314  0.49973  0.49973  1.0000 -0.1129323333
C   C279      1.0  0.00000  0.50027  0.77341  1.0000 -0.1129323333
C   C280      1.0  0.72686  0.22659  0.22659  1.0000 -0.1129323333
C   C281      1.0  0.22659  0.22659  0.72686  1.0000 -0.1129323333
C   C282      1.0  0.50027  0.77341  0.00000  1.0000 -0.1159790598
C   C283      1.0  0.49973  0.49973  0.27314  1.0000 -0.1129323333
C   C284      1.0  0.77341  0.50027  0.00000  1.0000 -0.1159790598
C   C285      1.0  0.77341  0.00000  0.50027  1.0000 -0.1129323333
C   C286      1.0  0.22659  0.72686  0.22659  1.0000 -0.1129323333
C   C287      1.0  0.50027  0.00000  0.77341  1.0000 -0.1129323333
C   C288      1.0  0.49973  0.27314  0.49973  1.0000 -0.1129323333
C   C289      1.0  0.46039  0.69022  0.46039  1.0000 -0.1454355113
C   C290      1.0  0.22983  0.00000  0.53961  1.0000 -0.1454355113
C   C291      1.0  0.77017  0.30978  0.77017  1.0000 -0.1454355113
C   C292      1.0  0.53961  0.00000  0.22983  1.0000 -0.1454355113
C   C293      1.0  0.46039  0.46039  0.69022  1.0000 -0.1454355113
C   C294      1.0  0.53961  0.22983  0.00000  1.0000 -0.142397999
C   C295      1.0  0.77017  0.77017  0.30978  1.0000 -0.1454355113
C   C296      1.0  0.22983  0.53961  0.00000  1.0000 -0.142397999
C   C297      1.0  0.69022  0.46039  0.46039  1.0000 -0.1454355113
C   C298      1.0  0.00000  0.53961  0.22983  1.0000 -0.1454355113
C   C299      1.0  0.30978  0.77017  0.77017  1.0000 -0.1454355113
C   C300      1.0  0.00000  0.22983  0.53961  1.0000 -0.1454355113
C   C301      1.0  0.00000  0.77017  0.46039  1.0000 -0.1454355113
C   C302      1.0  0.30978  0.53961  0.53961  1.0000 -0.1454355113
C   C303      1.0  0.00000  0.46039  0.77017  1.0000 -0.1454355113
C   C304      1.0  0.69022  0.22983  0.22983  1.0000 -0.1454355113
C   C305      1.0  0.22983  0.22983  0.69022  1.0000 -0.1454355113
C   C306      1.0  0.46039  0.77017  0.00000  1.0000 -0.142397999
C   C307      1.0  0.53961  0.53961  0.30978  1.0000 -0.1454355113
C   C308      1.0  0.77017  0.46039  0.00000  1.0000 -0.142397999
C   C309      1.0  0.77017  0.00000  0.46039  1.0000 -0.1454355113
C   C310      1.0  0.22983  0.69022  0.22983  1.0000 -0.1454355113
C   C311      1.0  0.46039  0.00000  0.77017  1.0000 -0.1454355113
C   C312      1.0  0.53961  0.30978  0.53961  1.0000 -0.1454355113
C   C313      1.0  0.45023  0.64682  0.45023  1.0000 0.0715179088
C   C314      1.0  0.19659  0.00000  0.54977  1.0000 0.0715179088
C   C315      1.0  0.80341  0.35318  0.80341  1.0000 0.0750611954
C   C316      1.0  0.54977  0.00000  0.19659  1.0000 0.0715179088
C   C317      1.0  0.45023  0.45023  0.64682  1.0000 0.0715179088
C   C318      1.0  0.54977  0.19659  0.00000  1.0000 0.0715179088
C   C319      1.0  0.80341  0.80341  0.35318  1.0000 0.0750611954
C   C320      1.0  0.19659  0.54977  0.00000  1.0000 0.0715179088
C   C321      1.0  0.64682  0.45023  0.45023  1.0000 0.0715179088
C   C322      1.0  0.00000  0.54977  0.19659  1.0000 0.0715179088
C   C323      1.0  0.35318  0.80341  0.80341  1.0000 0.0750611954
C   C324      1.0  0.00000  0.19659  0.54977  1.0000 0.0715179088
C   C325      1.0  0.00000  0.80341  0.45023  1.0000 0.0715179088
C   C326      1.0  0.35318  0.54977  0.54977  1.0000 0.0715179088
C   C327      1.0  0.00000  0.45023  0.80341  1.0000 0.0715179088
C   C328      1.0  0.64682  0.19659  0.19659  1.0000 0.0715179088
C   C329      1.0  0.19659  0.19659  0.64682  1.0000 0.0715179088
C   C330      1.0  0.45023  0.80341  0.00000  1.0000 0.0715179088
C   C331      1.0  0.54977  0.54977  0.35318  1.0000 0.0715179088
C   C332      1.0  0.80341  0.45023  0.00000  1.0000 0.0715179088
C   C333      1.0  0.80341  0.00000  0.45023  1.0000 0.0715179088
C   C334      1.0  0.19659  0.64682  0.19659  1.0000 0.0715179088
C   C335      1.0  0.45023  0.00000  0.80341  1.0000 0.0715179088
C   C336      1.0  0.54977  0.35318  0.54977  1.0000 0.0715179088
C   C337      1.0  0.47869  0.63836  0.47869  1.0000 0.0715179088
C   C338      1.0  0.15967  0.00000  0.52131  1.0000 0.0715179088
C   C339      1.0  0.84033  0.36164  0.84033  1.0000 0.0715179088
C   C340      1.0  0.52131  0.00000  0.15967  1.0000 0.0715179088
C   C341      1.0  0.47869  0.47869  0.63836  1.0000 0.0715179088
C   C342      1.0  0.52131  0.15967  0.00000  1.0000 0.0715179088
C   C343      1.0  0.84033  0.84033  0.36164  1.0000 0.0715179088
C   C344      1.0  0.15967  0.52131  0.00000  1.0000 0.0715179088
C   C345      1.0  0.63836  0.47869  0.47869  1.0000 0.0715179088
C   C346      1.0  0.00000  0.52131  0.15967  1.0000 0.0715179088
C   C347      1.0  0.36164  0.84033  0.84033  1.0000 0.0715179088
C   C348      1.0  0.00000  0.15967  0.52131  1.0000 0.0715179088
C   C349      1.0  0.00000  0.84033  0.47869  1.0000 0.0715179088
C   C350      1.0  0.36164  0.52131  0.52131  1.0000 0.0715179088
C   C351      1.0  0.00000  0.47869  0.84033  1.0000 0.0715179088
C   C352      1.0  0.63836  0.15967  0.15967  1.0000 0.0715179088
C   C353      1.0  0.15967  0.15967  0.63836  1.0000 0.0715179088
C   C354      1.0  0.47869  0.84033  0.00000  1.0000 0.0715179088
C   C355      1.0  0.52131  0.52131  0.36164  1.0000 0.0715179088
C   C356      1.0  0.84033  0.47869  0.00000  1.0000 0.0715179088
C   C357      1.0  0.84033  0.00000  0.47869  1.0000 0.0715179088
C   C358      1.0  0.15967  0.63836  0.15967  1.0000 0.0715179088
C   C359      1.0  0.47869  0.00000  0.84033  1.0000 0.0715179088
C   C360      1.0  0.52131  0.36164  0.52131  1.0000 0.0715179088
C   C361      1.0  0.46843  0.59384  0.46843  1.0000 -0.1565803971
C   C362      1.0  0.12541  0.00000  0.53157  1.0000 -0.1565803971
C   C363      1.0  0.87459  0.40616  0.87459  1.0000 -0.1565803971
C   C364      1.0  0.53157  0.00000  0.12541  1.0000 -0.1565803971
C   C365      1.0  0.46843  0.46843  0.59384  1.0000 -0.1565803971
C   C366      1.0  0.53157  0.12541  0.00000  1.0000 -0.1565803971
C   C367      1.0  0.87459  0.87459  0.40616  1.0000 -0.1565803971
C   C368      1.0  0.12541  0.53157  0.00000  1.0000 -0.1565803971
C   C369      1.0  0.59384  0.46843  0.46843  1.0000 -0.1565803971
C   C370      1.0  0.00000  0.53157  0.12541  1.0000 -0.1565803971
C   C371      1.0  0.40616  0.87459  0.87459  1.0000 -0.1565803971
C   C372      1.0  0.00000  0.12541  0.53157  1.0000 -0.1565803971
C   C373      1.0  0.00000  0.87459  0.46843  1.0000 -0.1565803971
C   C374      1.0  0.40616  0.53157  0.53157  1.0000 -0.1565803971
C   C375      1.0  0.00000  0.46843  0.87459  1.0000 -0.1565803971
C   C376      1.0  0.59384  0.12541  0.12541  1.0000 -0.1565803971
C   C377      1.0  0.12541  0.12541  0.59384  1.0000 -0.1565803971
C   C378      1.0  0.46843  0.87459  0.00000  1.0000 -0.1565803971
C   C379      1.0  0.53157  0.53157  0.40616  1.0000 -0.1565803971
C   C380      1.0  0.87459  0.46843  0.00000  1.0000 -0.1565803971
C   C381      1.0  0.87459  0.00000  0.46843  1.0000 -0.1565803971
C   C382      1.0  0.12541  0.59384  0.12541  1.0000 -0.1565803971
C   C383      1.0  0.46843  0.00000  0.87459  1.0000 -0.1565803971
C   C384      1.0  0.53157  0.40616  0.53157  1.0000 -0.1565803971
C   C385      1.0  0.42768  0.55732  0.42768  1.0000 -0.2209760974
C   C386      1.0  0.12964  0.00000  0.57232  1.0000 -0.2209760974
C   C387      1.0  0.87036  0.44268  0.87036  1.0000 -0.2209760974
C   C388      1.0  0.57232  0.00000  0.12964  1.0000 -0.2209760974
C   C389      1.0  0.42768  0.42768  0.55732  1.0000 -0.2209760974
C   C390      1.0  0.57232  0.12964  0.00000  1.0000 -0.2209760974
C   C391      1.0  0.87036  0.87036  0.44268  1.0000 -0.2209760974
C   C392      1.0  0.12964  0.57232  0.00000  1.0000 -0.2209760974
C   C393      1.0  0.55732  0.42768  0.42768  1.0000 -0.2209760974
C   C394      1.0  0.00000  0.57232  0.12964  1.0000 -0.2209760974
C   C395      1.0  0.44268  0.87036  0.87036  1.0000 -0.2209760974
C   C396      1.0  0.00000  0.12964  0.57232  1.0000 -0.2209760974
C   C397      1.0  1.00000  0.87036  0.42768  1.0000 -0.2209760974
C   C398      1.0  0.44268  0.57232  0.57232  1.0000 -0.2209760974
C   C399      1.0  0.00000  0.42768  0.87036  1.0000 -0.2209760974
C   C400      1.0  0.55732  0.12964  0.12964  1.0000 -0.2209760974
C   C401      1.0  0.12964  0.12964  0.55732  1.0000 -0.2209760974
C   C402      1.0  0.42768  0.87036  0.00000  1.0000 -0.2209760974
C   C403      1.0  0.57232  0.57232  0.44268  1.0000 -0.2209760974
C   C404      1.0  0.87036  0.42768  0.00000  1.0000 -0.2209760974
C   C405      1.0  0.87036  0.00000  0.42768  1.0000 -0.2209760974
C   C406      1.0  0.12964  0.55732  0.12964  1.0000 -0.2209760974
C   C407      1.0  0.42768  0.00000  0.87036  1.0000 -0.2209760974
C   C408      1.0  0.57232  0.44268  0.57232  1.0000 -0.2209760974
C   C409      1.0  0.39960  0.56540  0.39960  1.0000 0.220547034
C   C410      1.0  0.16580  0.00000  0.60040  1.0000 0.220547034
C   C411      1.0  0.83420  0.43460  0.83420  1.0000 0.220547034
C   C412      1.0  0.60040  0.00000  0.16580  1.0000 0.220547034
C   C413      1.0  0.39960  0.39960  0.56540  1.0000 0.220547034
C   C414      1.0  0.60040  0.16580  0.00000  1.0000 0.2252044983
C   C415      1.0  0.83420  0.83420  0.43460  1.0000 0.220547034
C   C416      1.0  0.16580  0.60040  0.00000  1.0000 0.220547034
C   C417      1.0  0.56540  0.39960  0.39960  1.0000 0.220547034
C   C418      1.0  0.00000  0.60040  0.16580  1.0000 0.220547034
C   C419      1.0  0.43460  0.83420  0.83420  1.0000 0.220547034
C   C420      1.0  0.00000  0.16580  0.60040  1.0000 0.220547034
C   C421      1.0  0.00000  0.83420  0.39960  1.0000 0.220547034
C   C422      1.0  0.43460  0.60040  0.60040  1.0000 0.220547034
C   C423      1.0  0.00000  0.39960  0.83420  1.0000 0.220547034
C   C424      1.0  0.56540  0.16580  0.16580  1.0000 0.220547034
C   C425      1.0  0.16580  0.16580  0.56540  1.0000 0.220547034
C   C426      1.0  0.39960  0.83420  0.00000  1.0000 0.220547034
C   C427      1.0  0.60040  0.60040  0.43460  1.0000 0.220547034
C   C428      1.0  0.83420  0.39960  0.00000  1.0000 0.2252044983
C   C429      1.0  0.83420  0.00000  0.39960  1.0000 0.220547034
C   C430      1.0  0.16580  0.56540  0.16580  1.0000 0.220547034
C   C431      1.0  0.39960  0.00000  0.83420  1.0000 0.220547034
C   C432      1.0  0.60040  0.43460  0.60040  1.0000 0.220547034
C   C433      1.0  0.40980  0.60984  0.40980  1.0000 -0.2494205303
C   C434      1.0  0.20004  0.00000  0.59020  1.0000 -0.2494205303
C   C435      1.0  0.79996  0.39016  0.79996  1.0000 -0.2494205303
C   C436      1.0  0.59020  0.00000  0.20004  1.0000 -0.2494205303
C   C437      1.0  0.40980  0.40980  0.60984  1.0000 -0.2494205303
C   C438      1.0  0.59020  0.20004  0.00000  1.0000 -0.2494205303
C   C439      1.0  0.79996  0.79996  0.39016  1.0000 -0.2494205303
C   C440      1.0  0.20004  0.59020  0.00000  1.0000 -0.2494205303
C   C441      1.0  0.60984  0.40980  0.40980  1.0000 -0.2494205303
C   C442      1.0  0.00000  0.59020  0.20004  1.0000 -0.2494205303
C   C443      1.0  0.39016  0.79996  0.79996  1.0000 -0.2494205303
C   C444      1.0  0.00000  0.20004  0.59020  1.0000 -0.2494205303
C   C445      1.0  1.00000  0.79996  0.40980  1.0000 -0.2494205303
C   C446      1.0  0.39016  0.59020  0.59020  1.0000 -0.2494205303
C   C447      1.0  0.00000  0.40980  0.79996  1.0000 -0.2494205303
C   C448      1.0  0.60984  0.20004  0.20004  1.0000 -0.2494205303
C   C449      1.0  0.20004  0.20004  0.60984  1.0000 -0.2494205303
C   C450      1.0  0.40980  0.79996  0.00000  1.0000 -0.2494205303
C   C451      1.0  0.59020  0.59020  0.39016  1.0000 -0.2494205303
C   C452      1.0  0.79996  0.40980  0.00000  1.0000 -0.2494205303
C   C453      1.0  0.79996  0.00000  0.40980  1.0000 -0.2494205303
C   C454      1.0  0.20004  0.60984  0.20004  1.0000 -0.2494205303
C   C455      1.0  0.40980  0.00000  0.79996  1.0000 -0.2494205303
C   C456      1.0  0.59020  0.39016  0.59020  1.0000 -0.2494205303
C   C457      1.0  0.32620  0.53496  0.32620  1.0000 0.449569738
C   C458      1.0  0.20876  0.00000  0.67380  1.0000 0.449569738
C   C459      1.0  0.79124  0.46504  0.79124  1.0000 0.449569738
C   C460      1.0  0.67380  0.00000  0.20876  1.0000 0.449569738
C   C461      1.0  0.32620  0.32620  0.53496  1.0000 0.449569738
C   C462      1.0  0.67380  0.20876  0.00000  1.0000 0.449569738
C   C463      1.0  0.79124  0.79124  0.46504  1.0000 0.449569738
C   C464      1.0  0.20876  0.67380  0.00000  1.0000 0.4444257207
C   C465      1.0  0.53496  0.32620  0.32620  1.0000 0.449569738
C   C466      1.0  0.00000  0.67380  0.20876  1.0000 0.4444257207
C   C467      1.0  0.46504  0.79124  0.79124  1.0000 0.449569738
C   C468      1.0  0.00000  0.20876  0.67380  1.0000 0.449569738
C   C469      1.0  0.00000  0.79124  0.32620  1.0000 0.4444257207
C   C470      1.0  0.46504  0.67380  0.67380  1.0000 0.449569738
C   C471      1.0  0.00000  0.32620  0.79124  1.0000 0.449569738
C   C472      1.0  0.53496  0.20876  0.20876  1.0000 0.449569738
C   C473      1.0  0.20876  0.20876  0.53496  1.0000 0.449569738
C   C474      1.0  0.32620  0.79124  0.00000  1.0000 0.4444257207
C   C475      1.0  0.67380  0.67380  0.46504  1.0000 0.449569738
C   C476      1.0  0.79124  0.32620  0.00000  1.0000 0.449569738
C   C477      1.0  0.79124  0.00000  0.32620  1.0000 0.449569738
C   C478      1.0  0.20876  0.53496  0.20876  1.0000 0.4444257207
C   C479      1.0  0.32620  0.00000  0.79124  1.0000 0.449569738
C   C480      1.0  0.67380  0.46504  0.67380  1.0000 0.449569738
C   C481      1.0  0.26520  0.53040  0.26520  1.0000 -0.0903159993
C   C482      1.0  0.26520  0.00000  0.73480  1.0000 -0.0903159993
C   C483      1.0  0.73480  0.46960  0.73480  1.0000 -0.0903159993
C   C484      1.0  0.73480  0.00000  0.26520  1.0000 -0.0903159993
C   C485      1.0  0.26520  0.26520  0.53040  1.0000 -0.0903159993
C   C486      1.0  0.73480  0.26520  0.00000  1.0000 -0.0903159993
C   C487      1.0  0.73480  0.73480  0.46960  1.0000 -0.0903159993
C   C488      1.0  0.26520  0.73480  0.00000  1.0000 -0.0903159993
C   C489      1.0  0.53040  0.26520  0.26520  1.0000 -0.0903159993
C   C490      1.0  0.00000  0.73480  0.26520  1.0000 -0.0903159993
C   C491      1.0  0.46960  0.73480  0.73480  1.0000 -0.0903159993
C   C492      1.0  0.00000  0.26520  0.73480  1.0000 -0.0903159993
C   C493      1.0  0.28145  0.50684  0.28145  1.0000 -0.0534204714
C   C494      1.0  0.22539  0.00000  0.71855  1.0000 -0.0534204714
C   C495      1.0  0.77461  0.49316  0.77461  1.0000 -0.0534204714
C   C496      1.0  0.71855  0.00000  0.22539  1.0000 -0.0534204714
C   C497      1.0  0.28145  0.28145  0.50684  1.0000 -0.0534204714
C   C498      1.0  0.71855  0.22539  0.00000  1.0000 -0.0534204714
C   C499      1.0  0.77461  0.77461  0.49316  1.0000 -0.0534204714
C   C500      1.0  0.22539  0.71855  0.00000  1.0000 -0.0534204714
C   C501      1.0  0.50684  0.28145  0.28145  1.0000 -0.0534204714
C   C502      1.0  0.00000  0.71855  0.22539  1.0000 -0.0534204714
C   C503      1.0  0.49316  0.77461  0.77461  1.0000 -0.0534204714
C   C504      1.0  0.00000  0.22539  0.71855  1.0000 -0.0534204714
C   C505      1.0  0.00000  0.77461  0.28145  1.0000 -0.0534204714
C   C506      1.0  0.49316  0.71855  0.71855  1.0000 -0.0534204714
C   C507      1.0  0.00000  0.28145  0.77461  1.0000 -0.0534204714
C   C508      1.0  0.50684  0.22539  0.22539  1.0000 -0.0534204714
C   C509      1.0  0.22539  0.22539  0.50684  1.0000 -0.0534204714
C   C510      1.0  0.28145  0.77461  0.00000  1.0000 -0.0534204714
C   C511      1.0  0.71855  0.71855  0.49316  1.0000 -0.0534204714
C   C512      1.0  0.77461  0.28145  0.00000  1.0000 -0.0534204714
C   C513      1.0  0.77461  0.00000  0.28145  1.0000 -0.0534204714
C   C514      1.0  0.22539  0.50684  0.22539  1.0000 -0.0534204714
C   C515      1.0  0.28145  0.00000  0.77461  1.0000 -0.0534204714
C   C516      1.0  0.71855  0.49316  0.71855  1.0000 -0.0534204714
C   C517      1.0  0.25768  0.45844  0.25768  1.0000 0.050505002
C   C518      1.0  0.20076  0.00000  0.74232  1.0000 0.050505002
C   C519      1.0  0.79924  0.54156  0.79924  1.0000 0.050505002
C   C520      1.0  0.74232  0.00000  0.20076  1.0000 0.050505002
C   C521      1.0  0.25768  0.25768  0.45844  1.0000 0.050505002
C   C522      1.0  0.74232  0.20076  0.00000  1.0000 0.050505002
C   C523      1.0  0.79924  0.79924  0.54156  1.0000 0.050505002
C   C524      1.0  0.20076  0.74232  0.00000  1.0000 0.050505002
C   C525      1.0  0.45844  0.25768  0.25768  1.0000 0.050505002
C   C526      1.0  0.00000  0.74232  0.20076  1.0000 0.050505002
C   C527      1.0  0.54156  0.79924  0.79924  1.0000 0.050505002
C   C528      1.0  0.00000  0.20076  0.74232  1.0000 0.050505002
C   C529      1.0  0.00000  0.79924  0.25768  1.0000 0.050505002
C   C530      1.0  0.54156  0.74232  0.74232  1.0000 0.050505002
C   C531      1.0  0.00000  0.25768  0.79924  1.0000 0.050505002
C   C532      1.0  0.45844  0.20076  0.20076  1.0000 0.050505002
C   C533      1.0  0.20076  0.20076  0.45844  1.0000 0.050505002
C   C534      1.0  0.25768  0.79924  0.00000  1.0000 0.050505002
C   C535      1.0  0.74232  0.74232  0.54156  1.0000 0.050505002
C   C536      1.0  0.79924  0.25768  0.00000  1.0000 0.050505002
C   C537      1.0  0.79924  0.00000  0.25768  1.0000 0.050505002
C   C538      1.0  0.20076  0.45844  0.20076  1.0000 0.050505002
C   C539      1.0  0.25768  0.00000  0.79924  1.0000 0.050505002
C   C540      1.0  0.74232  0.54156  0.74232  1.0000 0.050505002
N   N1        1.0  0.59803  0.74626  0.59803  1.0000 -0.3976377962
N   N2        1.0  0.14823  0.00000  0.40197  1.0000 -0.3976377962
N   N3        1.0  0.85177  0.25374  0.85177  1.0000 -0.3976377962
N   N4        1.0  0.40197  0.00000  0.14823  1.0000 -0.3976377962
N   N5        1.0  0.59803  0.59803  0.74626  1.0000 -0.3976377962
N   N6        1.0  0.40197  0.14823  0.00000  1.0000 -0.3976377962
N   N7        1.0  0.85177  0.85177  0.25374  1.0000 -0.3976377962
N   N8        1.0  0.14823  0.40197  0.00000  1.0000 -0.3976377962
N   N9        1.0  0.74626  0.59803  0.59803  1.0000 -0.3976377962
N   N10       1.0  0.00000  0.40197  0.14823  1.0000 -0.3976377962
N   N11       1.0  0.25374  0.85177  0.85177  1.0000 -0.3976377962
N   N12       1.0  0.00000  0.14823  0.40197  1.0000 -0.3976377962
N   N13       1.0  0.00000  0.85177  0.59803  1.0000 -0.3976377962
N   N14       1.0  0.25374  0.40197  0.40197  1.0000 -0.3976377962
N   N15       1.0  0.00000  0.59803  0.85177  1.0000 -0.3976377962
N   N16       1.0  0.74626  0.14823  0.14823  1.0000 -0.3976377962
N   N17       1.0  0.14823  0.14823  0.74626  1.0000 -0.3976377962
N   N18       1.0  0.59803  0.85177  0.00000  1.0000 -0.3976377962
N   N19       1.0  0.40197  0.40197  0.25374  1.0000 -0.3976377962
N   N20       1.0  0.85177  0.59803  0.00000  1.0000 -0.3976377962
N   N21       1.0  0.85177  0.00000  0.59803  1.0000 -0.3976377962
N   N22       1.0  0.14823  0.74626  0.14823  1.0000 -0.3976377962
N   N23       1.0  0.59803  0.00000  0.85177  1.0000 -0.3976377962
N   N24       1.0  0.40197  0.25374  0.40197  1.0000 -0.3976377962
N   N25       1.0  0.35438  0.52480  0.35438  1.0000 -0.4669818126
N   N26       1.0  0.17042  0.00000  0.64562  1.0000 -0.4669818126
N   N27       1.0  0.82958  0.47520  0.82958  1.0000 -0.4669818126
N   N28       1.0  0.64562  0.00000  0.17042  1.0000 -0.4669818126
N   N29       1.0  0.35438  0.35438  0.52480  1.0000 -0.4669818126
N   N30       1.0  0.64562  0.17042  0.00000  1.0000 -0.4751270108
N   N31       1.0  0.82958  0.82958  0.47520  1.0000 -0.4669818126
N   N32       1.0  0.17042  0.64562  0.00000  1.0000 -0.4669818126
N   N33       1.0  0.52480  0.35438  0.35438  1.0000 -0.4669818126
N   N34       1.0  0.00000  0.64562  0.17042  1.0000 -0.4669818126
N   N35       1.0  0.47520  0.82958  0.82958  1.0000 -0.4669818126
N   N36       1.0  0.00000  0.17042  0.64562  1.0000 -0.4669818126
N   N37       1.0  0.00000  0.82958  0.35438  1.0000 -0.4669818126
N   N38       1.0  0.47520  0.64562  0.64562  1.0000 -0.4669818126
N   N39       1.0  0.00000  0.35438  0.82958  1.0000 -0.4669818126
N   N40       1.0  0.52480  0.17042  0.17042  1.0000 -0.4669818126
N   N41       1.0  0.17042  0.17042  0.52480  1.0000 -0.4669818126
N   N42       1.0  0.35438  0.82958  0.00000  1.0000 -0.4644949727
N   N43       1.0  0.64562  0.64562  0.47520  1.0000 -0.4669818126
N   N44       1.0  0.82958  0.35438  0.00000  1.0000 -0.4669818126
N   N45       1.0  0.82958  0.00000  0.35438  1.0000 -0.4669818126
N   N46       1.0  0.17042  0.52480  0.17042  1.0000 -0.4669818126
N   N47       1.0  0.35438  0.00000  0.82958  1.0000 -0.4669818126
N   N48       1.0  0.64562  0.47520  0.64562  1.0000 -0.4669818126
N   N49       1.0  0.21817  0.43634  0.21817  1.0000 -0.2129787283
N   N50       1.0  0.21817  0.00000  0.78183  1.0000 -0.2129787283
N   N51       1.0  0.78183  0.56366  0.78183  1.0000 -0.2129787283
N   N52       1.0  0.78183  0.00000  0.21817  1.0000 -0.2129787283
N   N53       1.0  0.21817  0.21817  0.43634  1.0000 -0.2129787283
N   N54       1.0  0.78183  0.21817  0.00000  1.0000 -0.2129787283
N   N55       1.0  0.78183  0.78183  0.56366  1.0000 -0.2129787283
N   N56       1.0  0.21817  0.78183  0.00000  1.0000 -0.2129787283
N   N57       1.0  0.43634  0.21817  0.21817  1.0000 -0.2129787283
N   N58       1.0  0.00000  0.78183  0.21817  1.0000 -0.2129787283
N   N59       1.0  0.56366  0.78183  0.78183  1.0000 -0.2129787283
N   N60       1.0  0.00000  0.21817  0.78183  1.0000 -0.2129787283
O   O1        1.0  0.80355  0.84997  0.72062  1.0000 -0.4971726679
O   O2        1.0  0.12935  0.08293  0.27938  1.0000 -0.4971726679
O   O3        1.0  0.87065  0.15003  0.95358  1.0000 -0.4971726679
O   O4        1.0  0.19645  0.91707  0.04642  1.0000 -0.4971726679
O   O5        1.0  0.72062  0.80355  0.84997  1.0000 -0.4971726679
O   O6        1.0  0.27938  0.12935  0.08293  1.0000 -0.4971726679
O   O7        1.0  0.95358  0.87065  0.15003  1.0000 -0.4971726679
O   O8        1.0  0.04642  0.19645  0.91707  1.0000 -0.4971726679
O   O9        1.0  0.84997  0.72062  0.80355  1.0000 -0.4971726679
O   O10       1.0  0.08293  0.27938  0.12935  1.0000 -0.4971726679
O   O11       1.0  0.15003  0.95358  0.87065  1.0000 -0.4971726679
O   O12       1.0  0.91707  0.04642  0.19645  1.0000 -0.4971726679
O   O13       1.0  0.91707  0.87065  0.72062  1.0000 -0.4971726679
O   O14       1.0  0.15003  0.19645  0.27938  1.0000 -0.4971726679
O   O15       1.0  0.08293  0.80355  0.95358  1.0000 -0.4971726679
O   O16       1.0  0.84997  0.12935  0.04642  1.0000 -0.4971726679
O   O17       1.0  0.12935  0.04642  0.84997  1.0000 -0.4971726679
O   O18       1.0  0.80355  0.95358  0.08293  1.0000 -0.4971726679
O   O19       1.0  0.19645  0.27938  0.15003  1.0000 -0.4971726679
O   O20       1.0  0.87065  0.72062  0.91707  1.0000 -0.4971726679
O   O21       1.0  0.95358  0.08293  0.80355  1.0000 -0.4971726679
O   O22       1.0  0.04642  0.84997  0.12935  1.0000 -0.4971726679
O   O23       1.0  0.72062  0.91707  0.87065  1.0000 -0.4971726679
O   O24       1.0  0.27938  0.15003  0.19645  1.0000 -0.4971726679
O   O25       1.0  0.19645  0.15003  0.27938  1.0000 -0.4971726679
O   O26       1.0  0.87065  0.91707  0.72062  1.0000 -0.4971726679
O   O27       1.0  0.12935  0.84997  0.04642  1.0000 -0.4971726679
O   O28       1.0  0.80355  0.08293  0.95358  1.0000 -0.4971726679
O   O29       1.0  0.27938  0.19645  0.15003  1.0000 -0.4971726679
O   O30       1.0  0.72062  0.87065  0.91707  1.0000 -0.4971726679
O   O31       1.0  0.04642  0.12935  0.84997  1.0000 -0.4971726679
O   O32       1.0  0.95358  0.80355  0.08293  1.0000 -0.4971726679
O   O33       1.0  0.15003  0.27938  0.19645  1.0000 -0.4971726679
O   O34       1.0  0.91707  0.72062  0.87065  1.0000 -0.4971726679
O   O35       1.0  0.84997  0.04642  0.12935  1.0000 -0.4971726679
O   O36       1.0  0.08293  0.95358  0.80355  1.0000 -0.4971726679
O   O37       1.0  0.08293  0.12935  0.27938  1.0000 -0.4971726679
O   O38       1.0  0.84997  0.80355  0.72062  1.0000 -0.4971726679
O   O39       1.0  0.91707  0.19645  0.04642  1.0000 -0.4971726679
O   O40       1.0  0.15003  0.87065  0.95358  1.0000 -0.4971726679
O   O41       1.0  0.87065  0.95358  0.15003  1.0000 -0.4971726679
O   O42       1.0  0.19645  0.04642  0.91707  1.0000 -0.4971726679
O   O43       1.0  0.80355  0.72062  0.84997  1.0000 -0.4971726679
O   O44       1.0  0.12935  0.27938  0.08293  1.0000 -0.4971726679
O   O45       1.0  0.04642  0.91707  0.19645  1.0000 -0.4971726679
O   O46       1.0  0.95358  0.15003  0.87065  1.0000 -0.4971726679
O   O47       1.0  0.27938  0.08293  0.12935  1.0000 -0.4971726679
O   O48       1.0  0.72062  0.84997  0.80355  1.0000 -0.4971726679
O   O49       1.0  0.76576  0.81231  0.64483  1.0000 -0.5299568765
O   O50       1.0  0.16748  0.12093  0.35517  1.0000 -0.5299568765
O   O51       1.0  0.83252  0.18769  0.95345  1.0000 -0.5299568765
O   O52       1.0  0.23424  0.87907  0.04655  1.0000 -0.5299568765
O   O53       1.0  0.64483  0.76576  0.81231  1.0000 -0.5299568765
O   O54       1.0  0.35517  0.16748  0.12093  1.0000 -0.5299568765
O   O55       1.0  0.95345  0.83252  0.18769  1.0000 -0.5299568765
O   O56       1.0  0.04655  0.23424  0.87907  1.0000 -0.5299568765
O   O57       1.0  0.81231  0.64483  0.76576  1.0000 -0.5299568765
O   O58       1.0  0.12093  0.35517  0.16748  1.0000 -0.5299568765
O   O59       1.0  0.18769  0.95345  0.83252  1.0000 -0.5299568765
O   O60       1.0  0.87907  0.04655  0.23424  1.0000 -0.5299568765
O   O61       1.0  0.87907  0.83252  0.64483  1.0000 -0.5299568765
O   O62       1.0  0.18769  0.23424  0.35517  1.0000 -0.5299568765
O   O63       1.0  0.12093  0.76576  0.95345  1.0000 -0.5299568765
O   O64       1.0  0.81231  0.16748  0.04655  1.0000 -0.5299568765
O   O65       1.0  0.16748  0.04655  0.81231  1.0000 -0.5299568765
O   O66       1.0  0.76576  0.95345  0.12093  1.0000 -0.5299568765
O   O67       1.0  0.23424  0.35517  0.18769  1.0000 -0.5299568765
O   O68       1.0  0.83252  0.64483  0.87907  1.0000 -0.5299568765
O   O69       1.0  0.95345  0.12093  0.76576  1.0000 -0.5299568765
O   O70       1.0  0.04655  0.81231  0.16748  1.0000 -0.5299568765
O   O71       1.0  0.64483  0.87907  0.83252  1.0000 -0.5299568765
O   O72       1.0  0.35517  0.18769  0.23424  1.0000 -0.5299568765
O   O73       1.0  0.23424  0.18769  0.35517  1.0000 -0.5299568765
O   O74       1.0  0.83252  0.87907  0.64483  1.0000 -0.5299568765
O   O75       1.0  0.16748  0.81231  0.04655  1.0000 -0.5299568765
O   O76       1.0  0.76576  0.12093  0.95345  1.0000 -0.5299568765
O   O77       1.0  0.35517  0.23424  0.18769  1.0000 -0.5299568765
O   O78       1.0  0.64483  0.83252  0.87907  1.0000 -0.5299568765
O   O79       1.0  0.04655  0.16748  0.81231  1.0000 -0.5299568765
O   O80       1.0  0.95345  0.76576  0.12093  1.0000 -0.5299568765
O   O81       1.0  0.18769  0.35517  0.23424  1.0000 -0.5299568765
O   O82       1.0  0.87907  0.64483  0.83252  1.0000 -0.5299568765
O   O83       1.0  0.81231  0.04655  0.16748  1.0000 -0.5299568765
O   O84       1.0  0.12093  0.95345  0.76576  1.0000 -0.5299568765
O   O85       1.0  0.12093  0.16748  0.35517  1.0000 -0.5299568765
O   O86       1.0  0.81231  0.76576  0.64483  1.0000 -0.5299568765
O   O87       1.0  0.87907  0.23424  0.04655  1.0000 -0.5299568765
O   O88       1.0  0.18769  0.83252  0.95345  1.0000 -0.5299568765
O   O89       1.0  0.83252  0.95345  0.18769  1.0000 -0.5299568765
O   O90       1.0  0.23424  0.04655  0.87907  1.0000 -0.5299568765
O   O91       1.0  0.76576  0.64483  0.81231  1.0000 -0.5299568765
O   O92       1.0  0.16748  0.35517  0.12093  1.0000 -0.5299568765
O   O93       1.0  0.04655  0.87907  0.23424  1.0000 -0.5299568765
O   O94       1.0  0.95345  0.18769  0.83252  1.0000 -0.5299568765
O   O95       1.0  0.35517  0.12093  0.16748  1.0000 -0.5299568765
O   O96       1.0  0.64483  0.81231  0.76576  1.0000 -0.5299568765
O   O97       1.0  0.57680  0.79698  0.57680  1.0000 -0.4268909008
O   O98       1.0  0.22018  0.00000  0.42320  1.0000 -0.4268909008
O   O99       1.0  0.77982  0.20302  0.77982  1.0000 -0.4268909008
O   O100      1.0  0.42320  0.00000  0.22018  1.0000 -0.4268909008
O   O101      1.0  0.57680  0.57680  0.79698  1.0000 -0.4268909008
O   O102      1.0  0.42320  0.22018  0.00000  1.0000 -0.4268909008
O   O103      1.0  0.77982  0.77982  0.20302  1.0000 -0.4268909008
O   O104      1.0  0.22018  0.42320  0.00000  1.0000 -0.4268909008
O   O105      1.0  0.79698  0.57680  0.57680  1.0000 -0.4268909008
O   O106      1.0  0.00000  0.42320  0.22018  1.0000 -0.4268909008
O   O107      1.0  0.20302  0.77982  0.77982  1.0000 -0.419751907
O   O108      1.0  0.00000  0.22018  0.42320  1.0000 -0.4268909008
O   O109      1.0  0.00000  0.77982  0.57680  1.0000 -0.4268909008
O   O110      1.0  0.20302  0.42320  0.42320  1.0000 -0.4268909008
O   O111      1.0  0.00000  0.57680  0.77982  1.0000 -0.419751907
O   O112      1.0  0.79698  0.22018  0.22018  1.0000 -0.4268909008
O   O113      1.0  0.22018  0.22018  0.79698  1.0000 -0.4268909008
O   O114      1.0  0.57680  0.77982  0.00000  1.0000 -0.4268909008
O   O115      1.0  0.42320  0.42320  0.20302  1.0000 -0.4268909008
O   O116      1.0  0.77982  0.57680  0.00000  1.0000 -0.4268909008
O   O117      1.0  0.77982  0.00000  0.57680  1.0000 -0.4268909008
O   O118      1.0  0.22018  0.79698  0.22018  1.0000 -0.4268909008
O   O119      1.0  0.57680  0.00000  0.77982  1.0000 -0.4268909008
O   O120      1.0  0.42320  0.20302  0.42320  1.0000 -0.4268909008
O   O121      1.0  0.34137  0.57742  0.34137  1.0000 -0.419751907
O   O122      1.0  0.23605  0.00000  0.65863  1.0000 -0.419751907
O   O123      1.0  0.76395  0.42258  0.76395  1.0000 -0.419751907
O   O124      1.0  0.65863  0.00000  0.23605  1.0000 -0.419751907
O   O125      1.0  0.34137  0.34137  0.57742  1.0000 -0.419751907
O   O126      1.0  0.65863  0.23605  0.00000  1.0000 -0.419751907
O   O127      1.0  0.76395  0.76395  0.42258  1.0000 -0.419751907
O   O128      1.0  0.23605  0.65863  0.00000  1.0000 -0.419751907
O   O129      1.0  0.57742  0.34137  0.34137  1.0000 -0.419751907
O   O130      1.0  0.00000  0.65863  0.23605  1.0000 -0.419751907
O   O131      1.0  0.42258  0.76395  0.76395  1.0000 -0.419751907
O   O132      1.0  0.00000  0.23605  0.65863  1.0000 -0.419751907
O   O133      1.0  0.00000  0.76395  0.34137  1.0000 -0.419751907
O   O134      1.0  0.42258  0.65863  0.65863  1.0000 -0.419751907
O   O135      1.0  0.00000  0.34137  0.76395  1.0000 -0.419751907
O   O136      1.0  0.57742  0.23605  0.23605  1.0000 -0.419751907
O   O137      1.0  0.23605  0.23605  0.57742  1.0000 -0.419751907
O   O138      1.0  0.34137  0.76395  0.00000  1.0000 -0.419751907
O   O139      1.0  0.65863  0.65863  0.42258  1.0000 -0.419751907
O   O140      1.0  0.76395  0.34137  0.00000  1.0000 -0.419751907
O   O141      1.0  0.76395  0.00000  0.34137  1.0000 -0.419751907
O   O142      1.0  0.23605  0.57742  0.23605  1.0000 -0.419751907
O   O143      1.0  0.34137  0.00000  0.76395  1.0000 -0.419751907
O   O144      1.0  0.65863  0.42258  0.65863  1.0000 -0.419751907
