# DDEC6 charges by PACMAN v1.1 (https://github.com/mtap-research/PACMAN-charge/)
data_2017[Cd][nan]2[ASR]1
_chemical_formula_sum              "Cd4 H120 C136 N12 O24"
_cell_length_a       29.0233
_cell_length_b       29.0233
_cell_length_c       9.899
_cell_angle_alpha    89.0053
_cell_angle_beta     90.9947
_cell_angle_gamma    142.334

_symmetry_space_group_name_H-M    "P 1"
_symmetry_Int_Tables_number       1

loop_
  _symmetry_equiv_pos_as_xyz
  'x, y, z'

loop_
  _atom_site_type_symbol
  _atom_site_label
  _atom_site_symmetry_multiplicity
  _atom_site_fract_x
  _atom_site_fract_y
  _atom_site_fract_z
  _atom_site_occupancy
  _atom_site_charge
Cd  Cd1       1.0  0.64635  0.31641  0.49723  1.0000 0.9361624278
Cd  Cd2       1.0  0.60724  0.27220  0.99208  1.0000 0.9044071295
Cd  Cd3       1.0  0.31641  0.64635  0.50277  1.0000 0.9361624278
Cd  Cd4       1.0  0.27220  0.60724  0.00792  1.0000 0.9044071295
H   H1        1.0  0.75320  0.42420  0.15700  1.0000 0.1188030723
H   H2        1.0  0.73890  0.35690  0.80470  1.0000 0.1188030723
H   H3        1.0  0.87770  0.54310  0.11650  1.0000 0.128879076
H   H4        1.0  0.86050  0.47210  0.75390  1.0000 0.1484805875
H   H5        1.0  0.44960  0.05080  0.70430  1.0000 0.1388453998
H   H6        1.0  0.98730  0.63170  0.97860  1.0000 0.1106939412
H   H7        1.0  0.39940  0.04140  0.31710  1.0000 0.1388453998
H   H8        1.0  0.56370  0.17570  0.67070  1.0000 0.1106939412
H   H9        1.0  0.51140  0.16600  0.29650  1.0000 0.1106939412
H   H10       1.0  0.23010  0.86270  0.88080  1.0000 0.1188030723
H   H11       1.0  0.11040  0.74360  0.94390  1.0000 0.1106939412
H   H12       1.0  0.96780  0.59200  0.71560  1.0000 0.128879076
H   H13       1.0  0.30210  0.92210  0.45860  1.0000 0.1188030723
H   H14       1.0  0.06380  0.68460  0.55570  1.0000 0.1106939412
H   H15       1.0  0.32570  0.95430  0.72800  1.0000 0.1188030723
H   H16       1.0  0.18210  0.80430  0.49520  1.0000 0.1106939412
H   H17       1.0  0.82040  0.30160  0.18660  1.0000 0.1106939412
H   H18       1.0  0.78250  0.32050  0.19350  1.0000 0.1106939412
H   H19       1.0  0.73330  0.24870  0.37100  1.0000 0.1106939412
H   H20       1.0  0.80590  0.27650  0.40160  1.0000 0.1005035383
H   H21       1.0  0.83030  0.35030  0.55360  1.0000 0.1005035383
H   H22       1.0  0.90320  0.44080  0.19050  1.0000 0.1005035383
H   H23       1.0  0.93410  0.41850  0.25500  1.0000 0.1005035383
H   H24       1.0  0.08040  0.70200  0.20270  1.0000 0.1106939412
H   H25       1.0  0.17940  0.66480  0.34970  1.0000 0.1188030723
H   H26       1.0  0.96800  0.58960  0.29680  1.0000 0.1188030723
H   H27       1.0  0.66910  0.17210  0.07690  1.0000 0.1106939412
H   H28       1.0  0.62910  0.09230  0.05850  1.0000 0.1005035383
H   H29       1.0  0.47970  0.00790  0.27770  1.0000 0.1005035383
H   H30       1.0  0.50330  0.98050  0.20700  1.0000 0.1005035383
H   H31       1.0  0.61920  0.09580  0.28400  1.0000 0.1106939412
H   H32       1.0  0.59930  0.13270  0.26200  1.0000 0.1106939412
H   H33       1.0  0.55880  0.07860  0.91160  1.0000 0.1005035383
H   H34       1.0  0.37910  0.86350  0.10790  1.0000 0.1188030723
H   H35       1.0  0.06490  0.55170  0.44190  1.0000 0.1188030723
H   H36       1.0  0.19610  0.82430  0.21860  1.0000 0.1106939412
H   H37       1.0  0.26660  0.74880  0.19510  1.0000 0.128879076
H   H38       1.0  0.30660  0.93520  0.11920  1.0000 0.1188030723
H   H39       1.0  0.35030  0.23290  0.90300  1.0000 0.1106939412
H   H40       1.0  0.54880  0.44540  0.84240  1.0000 0.1188030723
H   H41       1.0  0.50770  0.47930  0.94310  1.0000 0.1106939412
H   H42       1.0  0.31000  0.26640  0.00140  1.0000 0.1188030723
H   H43       1.0  0.36280  0.15900  0.82060  1.0000 0.1106939412
H   H44       1.0  0.34140  0.18680  0.73960  1.0000 0.1005035383
H   H45       1.0  0.34170  0.14970  0.54160  1.0000 0.1005035383
H   H46       1.0  0.30300  0.08340  0.64450  1.0000 0.1106939412
H   H47       1.0  0.40990  0.13350  0.69310  1.0000 0.1188030723
H   H48       1.0  0.42640  0.16020  0.54170  1.0000 0.1106939412
H   H49       1.0  0.50350  0.27270  0.59190  1.0000 0.1106939412
H   H50       1.0  0.57100  0.56680  0.28530  1.0000 0.1188030723
H   H51       1.0  0.59030  0.51370  0.17920  1.0000 0.1188030723
H   H52       1.0  0.52020  0.45800  0.62190  1.0000 0.1106939412
H   H53       1.0  0.44430  0.29790  0.38930  1.0000 0.1005035383
H   H54       1.0  0.42390  0.30550  0.24860  1.0000 0.1106939412
H   H55       1.0  0.35490  0.18570  0.19840  1.0000 0.1106939412
H   H56       1.0  0.38730  0.18490  0.32600  1.0000 0.1106939412
H   H57       1.0  0.44830  0.19250  0.18620  1.0000 0.1188030723
H   H58       1.0  0.43410  0.21710  0.06690  1.0000 0.1188030723
H   H59       1.0  0.53940  0.40520  0.51630  1.0000 0.1188030723
H   H60       1.0  0.55240  0.33220  0.09170  1.0000 0.1188030723
H   H61       1.0  0.42420  0.75320  0.84300  1.0000 0.1188030723
H   H62       1.0  0.35690  0.73890  0.19530  1.0000 0.1188030723
H   H63       1.0  0.54310  0.87770  0.88350  1.0000 0.128879076
H   H64       1.0  0.47210  0.86050  0.24610  1.0000 0.1484805875
H   H65       1.0  0.05080  0.44960  0.29570  1.0000 0.1388453998
H   H66       1.0  0.63170  0.98730  0.02140  1.0000 0.1106939412
H   H67       1.0  0.04140  0.39940  0.68290  1.0000 0.1388453998
H   H68       1.0  0.17570  0.56370  0.32930  1.0000 0.1106939412
H   H69       1.0  0.16600  0.51140  0.70350  1.0000 0.1106939412
H   H70       1.0  0.86270  0.23010  0.11920  1.0000 0.1188030723
H   H71       1.0  0.74360  0.11040  0.05610  1.0000 0.1106939412
H   H72       1.0  0.59200  0.96780  0.28440  1.0000 0.128879076
H   H73       1.0  0.92210  0.30210  0.54140  1.0000 0.1188030723
H   H74       1.0  0.68460  0.06380  0.44430  1.0000 0.1106939412
H   H75       1.0  0.95430  0.32570  0.27200  1.0000 0.1188030723
H   H76       1.0  0.80430  0.18210  0.50480  1.0000 0.1106939412
H   H77       1.0  0.30160  0.82040  0.81340  1.0000 0.1106939412
H   H78       1.0  0.32050  0.78250  0.80650  1.0000 0.1106939412
H   H79       1.0  0.24870  0.73330  0.62900  1.0000 0.1106939412
H   H80       1.0  0.27650  0.80590  0.59840  1.0000 0.1005035383
H   H81       1.0  0.35030  0.83030  0.44640  1.0000 0.1005035383
H   H82       1.0  0.44080  0.90320  0.80950  1.0000 0.1005035383
H   H83       1.0  0.41850  0.93410  0.74500  1.0000 0.1005035383
H   H84       1.0  0.70200  0.08040  0.79730  1.0000 0.1106939412
H   H85       1.0  0.66480  0.17940  0.65030  1.0000 0.1188030723
H   H86       1.0  0.58960  0.96800  0.70320  1.0000 0.1188030723
H   H87       1.0  0.17210  0.66910  0.92310  1.0000 0.1106939412
H   H88       1.0  0.09230  0.62910  0.94150  1.0000 0.1005035383
H   H89       1.0  0.00790  0.47970  0.72230  1.0000 0.1005035383
H   H90       1.0  0.98050  0.50330  0.79300  1.0000 0.1005035383
H   H91       1.0  0.09580  0.61920  0.71600  1.0000 0.1106939412
H   H92       1.0  0.13270  0.59930  0.73800  1.0000 0.1106939412
H   H93       1.0  0.07860  0.55880  0.08840  1.0000 0.1005035383
H   H94       1.0  0.86350  0.37910  0.89210  1.0000 0.1188030723
H   H95       1.0  0.55170  0.06490  0.55810  1.0000 0.1188030723
H   H96       1.0  0.82430  0.19610  0.78140  1.0000 0.1106939412
H   H97       1.0  0.74880  0.26660  0.80490  1.0000 0.128879076
H   H98       1.0  0.93520  0.30660  0.88080  1.0000 0.1188030723
H   H99       1.0  0.23290  0.35030  0.09700  1.0000 0.1106939412
H   H100      1.0  0.44540  0.54880  0.15760  1.0000 0.1188030723
H   H101      1.0  0.47930  0.50770  0.05690  1.0000 0.1106939412
H   H102      1.0  0.26640  0.31000  0.99860  1.0000 0.1188030723
H   H103      1.0  0.15900  0.36280  0.17940  1.0000 0.1106939412
H   H104      1.0  0.18680  0.34140  0.26040  1.0000 0.1005035383
H   H105      1.0  0.14970  0.34170  0.45840  1.0000 0.1005035383
H   H106      1.0  0.08340  0.30300  0.35550  1.0000 0.1106939412
H   H107      1.0  0.13350  0.40990  0.30690  1.0000 0.1188030723
H   H108      1.0  0.16020  0.42640  0.45830  1.0000 0.1106939412
H   H109      1.0  0.27270  0.50350  0.40810  1.0000 0.1106939412
H   H110      1.0  0.56680  0.57100  0.71470  1.0000 0.1188030723
H   H111      1.0  0.51370  0.59030  0.82080  1.0000 0.1188030723
H   H112      1.0  0.45800  0.52020  0.37810  1.0000 0.1106939412
H   H113      1.0  0.29790  0.44430  0.61070  1.0000 0.1005035383
H   H114      1.0  0.30550  0.42390  0.75140  1.0000 0.1106939412
H   H115      1.0  0.18570  0.35490  0.80160  1.0000 0.1106939412
H   H116      1.0  0.18490  0.38730  0.67400  1.0000 0.1106939412
H   H117      1.0  0.19250  0.44830  0.81380  1.0000 0.1188030723
H   H118      1.0  0.21710  0.43410  0.93310  1.0000 0.1188030723
H   H119      1.0  0.40520  0.53940  0.48370  1.0000 0.1188030723
H   H120      1.0  0.33220  0.55240  0.90830  1.0000 0.1188030723
C   C1        1.0  0.77454  0.43466  0.07390  1.0000 0.1005035383
C   C2        1.0  0.76642  0.39558  0.86690  1.0000 0.0858035095
C   C3        1.0  0.84972  0.50608  0.05050  1.0000 -0.2098873846
C   C4        1.0  0.84013  0.46467  0.83600  1.0000 -0.1811458237
C   C5        1.0  0.46062  0.07338  0.62130  1.0000 -0.2098873846
C   C6        1.0  0.96094  0.59946  0.90490  1.0000 -0.1596166394
C   C7        1.0  0.88230  0.52110  0.92590  1.0000 0.1484805875
C   C8        1.0  0.43071  0.06809  0.39250  1.0000 -0.2098873846
C   C9        1.0  0.52897  0.14863  0.59980  1.0000 0.0712553289
C   C10       1.0  0.49896  0.14324  0.38010  1.0000 0.0797753279
C   C11       1.0  0.19637  0.82703  0.81400  1.0000 -0.140045323
C   C12       1.0  0.12359  0.75501  0.85310  1.0000 -0.140045323
C   C13       1.0  0.99526  0.62554  0.78750  1.0000 -0.1087376334
C   C14       1.0  0.32958  0.95262  0.53420  1.0000 -0.1811458237
C   C15       1.0  0.07313  0.70267  0.75770  1.0000 0.1005035383
C   C16       1.0  0.21945  0.84675  0.68420  1.0000 0.1005035383
C   C17       1.0  0.09676  0.72104  0.62200  1.0000 -0.140045323
C   C18       1.0  0.29637  0.92283  0.65400  1.0000 -0.1189502661
C   C19       1.0  0.16825  0.79255  0.58570  1.0000 -0.147952757
C   C20       1.0  0.40681  0.03059  0.51350  1.0000 0.1623348005
C   C21       1.0  0.57301  0.15539  0.99410  1.0000 0.5382952549
C   C22       1.0  0.81627  0.32593  0.23990  1.0000 -0.1666686713
C   C23       1.0  0.78794  0.29226  0.37160  1.0000 -0.2098873846
C   C24       1.0  0.81775  0.35345  0.46430  1.0000 -0.033119687
C   C25       1.0  0.89414  0.40966  0.25810  1.0000 -0.1087376334
C   C26       1.0  0.75990  0.34550  0.47660  1.0000 0.5382952549
C   C27       1.0  0.07813  0.67247  0.25130  1.0000 -0.1596166394
C   C28       1.0  0.13733  0.65047  0.33880  1.0000 -0.1292928226
C   C29       1.0  0.01040  0.60460  0.30690  1.0000 -0.140045323
C   C30       1.0  0.93282  0.48838  0.44910  1.0000 0.4004040219
C   C31       1.0  0.62188  0.11812  0.08590  1.0000 -0.2184083156
C   C32       1.0  0.51027  0.01913  0.20700  1.0000 -0.1087376334
C   C33       1.0  0.59348  0.09752  0.22530  1.0000 -0.1596166394
C   C34       1.0  0.55993  0.09227  0.00260  1.0000 -0.019181444
C   C35       1.0  0.35436  0.91104  0.10750  1.0000 -0.0036187946
C   C36       1.0  0.42545  0.98395  0.02960  1.0000 0.4004040219
C   C37       1.0  0.34177  0.85503  0.12890  1.0000 -0.1292928226
C   C38       1.0  0.06809  0.58191  0.39360  1.0000 -0.1189502661
C   C39       1.0  0.23185  0.83095  0.19380  1.0000 -0.1666686713
C   C40       1.0  0.27433  0.78627  0.18130  1.0000 -0.1292928226
C   C41       1.0  0.14395  0.69745  0.26790  1.0000 0.0604570218
C   C42       1.0  0.29875  0.89785  0.13750  1.0000 -0.1292928226
C   C43       1.0  0.00464  0.55856  0.37710  1.0000 -0.019181444
C   C44       1.0  0.21774  0.77246  0.21390  1.0000 0.0712553289
C   C45       1.0  0.38380  0.28400  0.90940  1.0000 -0.1292928226
C   C46       1.0  0.49950  0.40770  0.87400  1.0000 -0.0994206063
C   C47       1.0  0.47440  0.42840  0.93540  1.0000 -0.1666686713
C   C48       1.0  0.35910  0.30430  0.96940  1.0000 -0.1596166394
C   C49       1.0  0.40357  0.37683  0.98360  1.0000 0.0797753279
C   C50       1.0  0.45383  0.33397  0.85950  1.0000 -0.033119687
C   C51       1.0  0.37280  0.18440  0.73810  1.0000 -0.140045323
C   C52       1.0  0.34790  0.13690  0.62510  1.0000 -0.1811458237
C   C53       1.0  0.53564  0.26076  0.76470  1.0000 0.5875435926
C   C54       1.0  0.41593  0.16407  0.63030  1.0000 -0.2098873846
C   C55       1.0  0.47710  0.24070  0.67290  1.0000 -0.0669232152
C   C56       1.0  0.48429  0.31951  0.78640  1.0000 0.3754235365
C   C57       1.0  0.56438  0.53402  0.33350  1.0000 -0.1596166394
C   C58       1.0  0.57611  0.50209  0.26940  1.0000 -0.1087376334
C   C59       1.0  0.53448  0.46972  0.53170  1.0000 -0.140045323
C   C60       1.0  0.56716  0.45364  0.33610  1.0000 -0.0120031919
C   C61       1.0  0.57776  0.41724  0.26590  1.0000 0.3949560978
C   C62       1.0  0.44470  0.29470  0.29200  1.0000 -0.0994206063
C   C63       1.0  0.40080  0.21380  0.24680  1.0000 -0.1666686713
C   C64       1.0  0.44970  0.22610  0.16060  1.0000 -0.2098873846
C   C65       1.0  0.54603  0.43797  0.46840  1.0000 -0.1189502661
C   C66       1.0  0.52960  0.30880  0.18050  1.0000 -0.0377000488
C   C67       1.0  0.54346  0.51894  0.46560  1.0000 0.0797753279
C   C68       1.0  0.57723  0.31197  0.25890  1.0000 0.5695831634
C   C69       1.0  0.43466  0.77454  0.92610  1.0000 0.1005035383
C   C70       1.0  0.39558  0.76642  0.13310  1.0000 0.0858035095
C   C71       1.0  0.50608  0.84972  0.94950  1.0000 -0.2098873846
C   C72       1.0  0.46467  0.84013  0.16400  1.0000 -0.1811458237
C   C73       1.0  0.07338  0.46062  0.37870  1.0000 -0.2098873846
C   C74       1.0  0.59946  0.96094  0.09510  1.0000 -0.1596166394
C   C75       1.0  0.52110  0.88230  0.07410  1.0000 0.1484805875
C   C76       1.0  0.06809  0.43071  0.60750  1.0000 -0.2098873846
C   C77       1.0  0.14863  0.52897  0.40020  1.0000 0.0712553289
C   C78       1.0  0.14324  0.49896  0.61990  1.0000 0.0797753279
C   C79       1.0  0.82703  0.19637  0.18600  1.0000 -0.140045323
C   C80       1.0  0.75501  0.12359  0.14690  1.0000 -0.140045323
C   C81       1.0  0.62554  0.99526  0.21250  1.0000 -0.1087376334
C   C82       1.0  0.95262  0.32958  0.46580  1.0000 -0.1811458237
C   C83       1.0  0.70267  0.07313  0.24230  1.0000 0.1005035383
C   C84       1.0  0.84675  0.21945  0.31580  1.0000 0.1005035383
C   C85       1.0  0.72104  0.09676  0.37800  1.0000 -0.140045323
C   C86       1.0  0.92283  0.29637  0.34600  1.0000 -0.1189502661
C   C87       1.0  0.79255  0.16825  0.41430  1.0000 -0.147952757
C   C88       1.0  0.03059  0.40681  0.48650  1.0000 0.1623348005
C   C89       1.0  0.15539  0.57301  0.00590  1.0000 0.5382952549
C   C90       1.0  0.32593  0.81627  0.76010  1.0000 -0.1666686713
C   C91       1.0  0.29226  0.78794  0.62840  1.0000 -0.2098873846
C   C92       1.0  0.35345  0.81775  0.53570  1.0000 -0.033119687
C   C93       1.0  0.40966  0.89414  0.74190  1.0000 -0.1087376334
C   C94       1.0  0.34550  0.75990  0.52340  1.0000 0.5382952549
C   C95       1.0  0.67247  0.07813  0.74870  1.0000 -0.1596166394
C   C96       1.0  0.65047  0.13733  0.66120  1.0000 -0.1292928226
C   C97       1.0  0.60460  0.01040  0.69310  1.0000 -0.140045323
C   C98       1.0  0.48838  0.93282  0.55090  1.0000 0.4004040219
C   C99       1.0  0.11812  0.62188  0.91410  1.0000 -0.2184083156
C   C100      1.0  0.01913  0.51027  0.79300  1.0000 -0.1087376334
C   C101      1.0  0.09752  0.59348  0.77470  1.0000 -0.1596166394
C   C102      1.0  0.09227  0.55993  0.99740  1.0000 -0.019181444
C   C103      1.0  0.91104  0.35436  0.89250  1.0000 -0.0036187946
C   C104      1.0  0.98395  0.42545  0.97040  1.0000 0.4004040219
C   C105      1.0  0.85503  0.34177  0.87110  1.0000 -0.1292928226
C   C106      1.0  0.58191  0.06809  0.60640  1.0000 -0.1189502661
C   C107      1.0  0.83095  0.23185  0.80620  1.0000 -0.1666686713
C   C108      1.0  0.78627  0.27433  0.81870  1.0000 -0.1292928226
C   C109      1.0  0.69745  0.14395  0.73210  1.0000 0.0604570218
C   C110      1.0  0.89785  0.29875  0.86250  1.0000 -0.1189502661
C   C111      1.0  0.55856  0.00464  0.62290  1.0000 -0.019181444
C   C112      1.0  0.77246  0.21774  0.78610  1.0000 0.0712553289
C   C113      1.0  0.28400  0.38380  0.09060  1.0000 -0.1292928226
C   C114      1.0  0.40770  0.49950  0.12600  1.0000 -0.0994206063
C   C115      1.0  0.42840  0.47440  0.06460  1.0000 -0.1666686713
C   C116      1.0  0.30430  0.35910  0.03060  1.0000 -0.1596166394
C   C117      1.0  0.37683  0.40357  0.01640  1.0000 0.0797753279
C   C118      1.0  0.33397  0.45383  0.14050  1.0000 -0.033119687
C   C119      1.0  0.18440  0.37280  0.26190  1.0000 -0.140045323
C   C120      1.0  0.13690  0.34790  0.37490  1.0000 -0.1811458237
C   C121      1.0  0.26076  0.53564  0.23530  1.0000 0.5875435926
C   C122      1.0  0.16407  0.41593  0.36970  1.0000 -0.2098873846
C   C123      1.0  0.24070  0.47710  0.32710  1.0000 -0.0669232152
C   C124      1.0  0.31951  0.48429  0.21360  1.0000 0.3754235365
C   C125      1.0  0.53402  0.56438  0.66650  1.0000 -0.1596166394
C   C126      1.0  0.50209  0.57611  0.73060  1.0000 -0.1087376334
C   C127      1.0  0.46972  0.53448  0.46830  1.0000 -0.140045323
C   C128      1.0  0.45364  0.56716  0.66390  1.0000 -0.0120031919
C   C129      1.0  0.41724  0.57776  0.73410  1.0000 0.3949560978
C   C130      1.0  0.29470  0.44470  0.70800  1.0000 -0.0994206063
C   C131      1.0  0.21380  0.40080  0.75320  1.0000 -0.1666686713
C   C132      1.0  0.22610  0.44970  0.83940  1.0000 -0.2098873846
C   C133      1.0  0.43797  0.54603  0.53160  1.0000 -0.1189502661
C   C134      1.0  0.30880  0.52960  0.81950  1.0000 -0.0377000488
C   C135      1.0  0.51894  0.54346  0.53440  1.0000 0.0797753279
C   C136      1.0  0.31197  0.57723  0.74110  1.0000 0.5695831634
N   N1        1.0  0.73239  0.38081  0.97980  1.0000 -0.2453673027
N   N2        1.0  0.54990  0.18690  0.48170  1.0000 -0.2824079536
N   N3        1.0  0.88677  0.42303  0.39350  1.0000 -0.1087376334
N   N4        1.0  0.49165  0.02495  0.07530  1.0000 -0.1087376334
N   N5        1.0  0.44746  0.25774  0.74270  1.0000 -0.0837464884
N   N6        1.0  0.51872  0.34328  0.24390  1.0000 -0.1087376334
N   N7        1.0  0.38081  0.73239  0.02020  1.0000 -0.2453673027
N   N8        1.0  0.18690  0.54990  0.51830  1.0000 -0.2824079536
N   N9        1.0  0.42303  0.88677  0.60650  1.0000 -0.1087376334
N   N10       1.0  0.02495  0.49165  0.92470  1.0000 -0.1087376334
N   N11       1.0  0.25774  0.44746  0.25730  1.0000 -0.0837464884
N   N12       1.0  0.34328  0.51872  0.75610  1.0000 -0.1087376334
O   O1        1.0  0.54441  0.15899  0.07850  1.0000 -0.5207863442
O   O2        1.0  0.61548  0.20392  0.90320  1.0000 -0.5390564345
O   O3        1.0  0.75078  0.36722  0.38890  1.0000 -0.5013229839
O   O4        1.0  0.71773  0.30987  0.58210  1.0000 -0.564998164
O   O5        1.0  0.92264  0.49596  0.56180  1.0000 -0.4859103553
O   O6        1.0  0.41481  0.00059  0.92600  1.0000 -0.5207863442
O   O7        1.0  0.55375  0.37325  0.76810  1.0000 -0.451038792
O   O8        1.0  0.51736  0.24164  0.88660  1.0000 -0.5490362488
O   O9        1.0  0.59586  0.29074  0.71820  1.0000 -0.5998108826
O   O10       1.0  0.64291  0.46189  0.21070  1.0000 -0.5013229839
O   O11       1.0  0.60647  0.30253  0.20050  1.0000 -0.5663821839
O   O12       1.0  0.58007  0.31833  0.38750  1.0000 -0.5490362488
O   O13       1.0  0.15899  0.54441  0.92150  1.0000 -0.5207863442
O   O14       1.0  0.20392  0.61548  0.09680  1.0000 -0.5390564345
O   O15       1.0  0.36722  0.75078  0.61110  1.0000 -0.5013229839
O   O16       1.0  0.30987  0.71773  0.41790  1.0000 -0.564998164
O   O17       1.0  0.49596  0.92264  0.43820  1.0000 -0.4859103553
O   O18       1.0  0.00059  0.41481  0.07400  1.0000 -0.5207863442
O   O19       1.0  0.37325  0.55375  0.23190  1.0000 -0.451038792
O   O20       1.0  0.24164  0.51736  0.11340  1.0000 -0.5490362488
O   O21       1.0  0.29074  0.59586  0.28180  1.0000 -0.5998108826
O   O22       1.0  0.46189  0.64291  0.78930  1.0000 -0.5013229839
O   O23       1.0  0.30253  0.60647  0.79950  1.0000 -0.5663821839
O   O24       1.0  0.31833  0.58007  0.61250  1.0000 -0.5490362488
