# DDEC6 charges by PACMAN v1.1 (https://github.com/mtap-research/PACMAN-charge/)
data_2017[Zn][pcu]3[ASR]6
_chemical_formula_sum              "Zn16 H120 C180 N24 O64"
_cell_length_a       15.977
_cell_length_b       29.903
_cell_length_c       21.397
_cell_angle_alpha    90
_cell_angle_beta     96.578
_cell_angle_gamma    90

_symmetry_space_group_name_H-M    "P 1"
_symmetry_Int_Tables_number       1

loop_
  _symmetry_equiv_pos_as_xyz
  'x, y, z'

loop_
  _atom_site_type_symbol
  _atom_site_label
  _atom_site_symmetry_multiplicity
  _atom_site_fract_x
  _atom_site_fract_y
  _atom_site_fract_z
  _atom_site_occupancy
  _atom_site_charge
Zn  Zn1       1.0  0.67394  0.22983  0.43655  1.0000 0.9773198321
Zn  Zn2       1.0  0.65290  0.21680  0.58186  1.0000 0.9292990521
Zn  Zn3       1.0  0.62840  0.31186  0.51914  1.0000 0.9420308724
Zn  Zn4       1.0  0.80962  0.27268  0.54627  1.0000 0.9420308724
Zn  Zn5       1.0  0.32606  0.72983  0.06345  1.0000 0.9773198321
Zn  Zn6       1.0  0.34710  0.71680  0.91814  1.0000 0.9292990521
Zn  Zn7       1.0  0.37160  0.81186  0.98086  1.0000 0.9420308724
Zn  Zn8       1.0  0.19038  0.77268  0.95373  1.0000 0.9420308724
Zn  Zn9       1.0  0.32606  0.77017  0.56345  1.0000 0.9773198321
Zn  Zn10      1.0  0.34710  0.78320  0.41814  1.0000 0.9292990521
Zn  Zn11      1.0  0.37160  0.68814  0.48086  1.0000 0.9420308724
Zn  Zn12      1.0  0.19038  0.72732  0.45373  1.0000 0.9420308724
Zn  Zn13      1.0  0.67394  0.27017  0.93655  1.0000 0.9773198321
Zn  Zn14      1.0  0.65290  0.28320  0.08186  1.0000 0.9292990521
Zn  Zn15      1.0  0.62840  0.18814  0.01914  1.0000 0.9420308724
Zn  Zn16      1.0  0.80962  0.22732  0.04627  1.0000 0.9420308724
H   H1        1.0  0.62240  0.43140  0.14540  1.0000 0.2769899075
H   H2        1.0  0.20590  0.16330  0.21710  1.0000 0.2693191983
H   H3        1.0  0.85010  0.56120  0.62670  1.0000 0.2769899075
H   H4        1.0  0.10390  0.16780  0.26120  1.0000 0.2693191983
H   H5        1.0  0.60700  0.49070  0.09420  1.0000 0.2769899075
H   H6        1.0  0.90550  0.61410  0.67310  1.0000 0.2610455111
H   H7        1.0  0.38560  0.61310  0.10530  1.0000 0.1198548936
H   H8        1.0  0.51260  0.59580  0.95800  1.0000 0.1121026047
H   H9        1.0  0.46650  0.26130  0.20730  1.0000 0.1288273977
H   H10       1.0  0.74100  0.51260  0.59790  1.0000 0.1288273977
H   H11       1.0  0.63620  0.35850  0.18370  1.0000 0.1288273977
H   H12       1.0  0.92390  0.39430  0.62410  1.0000 0.1198548936
H   H13       1.0  0.92770  0.67570  0.73840  1.0000 0.1288273977
H   H14       1.0  0.69770  0.44390  0.56480  1.0000 0.1288273977
H   H15       1.0  0.40520  0.15930  0.09290  1.0000 0.1198548936
H   H16       1.0  0.65210  0.31150  0.26880  1.0000 0.1288273977
H   H17       1.0  0.11730  0.25730  0.36610  1.0000 0.1288273977
H   H18       1.0  0.34520  0.25280  0.25390  1.0000 0.1375516068
H   H19       1.0  0.57240  0.40670  0.37630  1.0000 0.1198548936
H   H20       1.0  0.45430  0.55490  0.15650  1.0000 0.1375516068
H   H21       1.0  0.01760  0.71970  0.80250  1.0000 0.1198548936
H   H22       1.0  0.97300  0.46480  0.65080  1.0000 0.1375516068
H   H23       1.0  0.56120  0.45520  0.29210  1.0000 0.1288273977
H   H24       1.0  0.28820  0.14620  0.14350  1.0000 0.1288273977
H   H25       1.0  0.57990  0.53610  0.00680  1.0000 0.1288273977
H   H26       1.0  0.20200  0.63190  0.79290  1.0000 0.1121026047
H   H27       1.0  0.87190  0.17600  0.34970  1.0000 0.1198548936
H   H28       1.0  0.01570  0.27470  0.42800  1.0000 0.1198548936
H   H29       1.0  0.97470  0.15850  0.28770  1.0000 0.1288273977
H   H30       1.0  0.11540  0.58960  0.72290  1.0000 0.1375516068
H   H31       1.0  0.37760  0.93140  0.35460  1.0000 0.2769899075
H   H32       1.0  0.79410  0.66330  0.28290  1.0000 0.2693191983
H   H33       1.0  0.14990  0.06120  0.87330  1.0000 0.2769899075
H   H34       1.0  0.89610  0.66780  0.23880  1.0000 0.2693191983
H   H35       1.0  0.39300  0.99070  0.40580  1.0000 0.2769899075
H   H36       1.0  0.09450  0.11410  0.82690  1.0000 0.2610455111
H   H37       1.0  0.61440  0.11310  0.39470  1.0000 0.1198548936
H   H38       1.0  0.48740  0.09580  0.54200  1.0000 0.1121026047
H   H39       1.0  0.53350  0.76130  0.29270  1.0000 0.1288273977
H   H40       1.0  0.25900  0.01260  0.90210  1.0000 0.1288273977
H   H41       1.0  0.36380  0.85850  0.31630  1.0000 0.1288273977
H   H42       1.0  0.07610  0.89430  0.87590  1.0000 0.1198548936
H   H43       1.0  0.07230  0.17570  0.76160  1.0000 0.1288273977
H   H44       1.0  0.30230  0.94390  0.93520  1.0000 0.1288273977
H   H45       1.0  0.59480  0.65930  0.40710  1.0000 0.1198548936
H   H46       1.0  0.34790  0.81150  0.23120  1.0000 0.1288273977
H   H47       1.0  0.88270  0.75730  0.13390  1.0000 0.1288273977
H   H48       1.0  0.65480  0.75280  0.24610  1.0000 0.1375516068
H   H49       1.0  0.42760  0.90670  0.12370  1.0000 0.1198548936
H   H50       1.0  0.54570  0.05490  0.34350  1.0000 0.1375516068
H   H51       1.0  0.98240  0.21970  0.69750  1.0000 0.1198548936
H   H52       1.0  0.02700  0.96480  0.84920  1.0000 0.1375516068
H   H53       1.0  0.43880  0.95520  0.20790  1.0000 0.1288273977
H   H54       1.0  0.71180  0.64620  0.35650  1.0000 0.1288273977
H   H55       1.0  0.42010  0.03610  0.49320  1.0000 0.1288273977
H   H56       1.0  0.79800  0.13190  0.70710  1.0000 0.1121026047
H   H57       1.0  0.12810  0.67600  0.15030  1.0000 0.1198548936
H   H58       1.0  0.98430  0.77470  0.07200  1.0000 0.1198548936
H   H59       1.0  0.02530  0.65850  0.21230  1.0000 0.1288273977
H   H60       1.0  0.88460  0.08960  0.77710  1.0000 0.1375516068
H   H61       1.0  0.37760  0.56860  0.85460  1.0000 0.2769899075
H   H62       1.0  0.79410  0.83670  0.78290  1.0000 0.2693191983
H   H63       1.0  0.14990  0.43880  0.37330  1.0000 0.2769899075
H   H64       1.0  0.89610  0.83220  0.73880  1.0000 0.2693191983
H   H65       1.0  0.39300  0.50930  0.90580  1.0000 0.2769899075
H   H66       1.0  0.09450  0.38590  0.32690  1.0000 0.2610455111
H   H67       1.0  0.61440  0.38690  0.89470  1.0000 0.1198548936
H   H68       1.0  0.48740  0.40420  0.04200  1.0000 0.1121026047
H   H69       1.0  0.53350  0.73870  0.79270  1.0000 0.1288273977
H   H70       1.0  0.25900  0.48740  0.40210  1.0000 0.1288273977
H   H71       1.0  0.36380  0.64150  0.81630  1.0000 0.1288273977
H   H72       1.0  0.07610  0.60570  0.37590  1.0000 0.1198548936
H   H73       1.0  0.07230  0.32430  0.26160  1.0000 0.1288273977
H   H74       1.0  0.30230  0.55610  0.43520  1.0000 0.1288273977
H   H75       1.0  0.59480  0.84070  0.90710  1.0000 0.1198548936
H   H76       1.0  0.34790  0.68850  0.73120  1.0000 0.1288273977
H   H77       1.0  0.88270  0.74270  0.63390  1.0000 0.1288273977
H   H78       1.0  0.65480  0.74720  0.74610  1.0000 0.1375516068
H   H79       1.0  0.42760  0.59330  0.62370  1.0000 0.1198548936
H   H80       1.0  0.54570  0.44510  0.84350  1.0000 0.1375516068
H   H81       1.0  0.98240  0.28030  0.19750  1.0000 0.1198548936
H   H82       1.0  0.02700  0.53520  0.34920  1.0000 0.1375516068
H   H83       1.0  0.43880  0.54480  0.70790  1.0000 0.1288273977
H   H84       1.0  0.71180  0.85380  0.85650  1.0000 0.1288273977
H   H85       1.0  0.42010  0.46390  0.99320  1.0000 0.1288273977
H   H86       1.0  0.79800  0.36810  0.20710  1.0000 0.1121026047
H   H87       1.0  0.12810  0.82400  0.65030  1.0000 0.1198548936
H   H88       1.0  0.98430  0.72530  0.57200  1.0000 0.1198548936
H   H89       1.0  0.02530  0.84150  0.71230  1.0000 0.1288273977
H   H90       1.0  0.88460  0.41040  0.27710  1.0000 0.1375516068
H   H91       1.0  0.62240  0.06860  0.64540  1.0000 0.2769899075
H   H92       1.0  0.20590  0.33670  0.71710  1.0000 0.2693191983
H   H93       1.0  0.85010  0.93880  0.12670  1.0000 0.2769899075
H   H94       1.0  0.10390  0.33220  0.76120  1.0000 0.2693191983
H   H95       1.0  0.60700  0.00930  0.59420  1.0000 0.2769899075
H   H96       1.0  0.90550  0.88590  0.17310  1.0000 0.2610455111
H   H97       1.0  0.38560  0.88690  0.60530  1.0000 0.1198548936
H   H98       1.0  0.51260  0.90420  0.45800  1.0000 0.1121026047
H   H99       1.0  0.46650  0.23870  0.70730  1.0000 0.1288273977
H   H100      1.0  0.74100  0.98740  0.09790  1.0000 0.1288273977
H   H101      1.0  0.63620  0.14150  0.68370  1.0000 0.1288273977
H   H102      1.0  0.92390  0.10570  0.12410  1.0000 0.1198548936
H   H103      1.0  0.92770  0.82430  0.23840  1.0000 0.1288273977
H   H104      1.0  0.69770  0.05610  0.06480  1.0000 0.1288273977
H   H105      1.0  0.40520  0.34070  0.59290  1.0000 0.1198548936
H   H106      1.0  0.65210  0.18850  0.76880  1.0000 0.1288273977
H   H107      1.0  0.11730  0.24270  0.86610  1.0000 0.1288273977
H   H108      1.0  0.34520  0.24720  0.75390  1.0000 0.1375516068
H   H109      1.0  0.57240  0.09330  0.87630  1.0000 0.1198548936
H   H110      1.0  0.45430  0.94510  0.65650  1.0000 0.1375516068
H   H111      1.0  0.01760  0.78030  0.30250  1.0000 0.1198548936
H   H112      1.0  0.97300  0.03520  0.15080  1.0000 0.1375516068
H   H113      1.0  0.56120  0.04480  0.79210  1.0000 0.1288273977
H   H114      1.0  0.28820  0.35380  0.64350  1.0000 0.1288273977
H   H115      1.0  0.57990  0.96390  0.50680  1.0000 0.1288273977
H   H116      1.0  0.20200  0.86810  0.29290  1.0000 0.1121026047
H   H117      1.0  0.87190  0.32400  0.84970  1.0000 0.1198548936
H   H118      1.0  0.01570  0.22530  0.92800  1.0000 0.1198548936
H   H119      1.0  0.97470  0.34150  0.78770  1.0000 0.1288273977
H   H120      1.0  0.11540  0.91040  0.22290  1.0000 0.1375516068
C   C1        1.0  0.42490  0.59726  0.08510  1.0000 -0.0802639026
C   C2        1.0  0.49960  0.58711  0.99750  1.0000 -0.1013965185
C   C3        1.0  0.00890  0.62599  0.72740  1.0000 0.2507234171
C   C4        1.0  0.42890  0.23880  0.19300  1.0000 -0.0802639026
C   C5        1.0  0.77880  0.48880  0.60210  1.0000 -0.1881419856
C   C6        1.0  0.62440  0.36873  0.22280  1.0000 -0.1990490042
C   C7        1.0  0.52360  0.53848  0.08680  1.0000 0.2326031851
C   C8        1.0  0.88740  0.41852  0.61800  1.0000 -0.0802639026
C   C9        1.0  0.98280  0.66630  0.74960  1.0000 -0.2105129555
C   C10       1.0  0.86210  0.49630  0.62730  1.0000 0.2326031851
C   C11       1.0  0.55120  0.47860  0.16660  1.0000 0.5877803544
C   C12       1.0  0.05670  0.20640  0.31980  1.0000 0.2326031851
C   C13       1.0  0.44770  0.21279  0.14480  1.0000 -0.0693012246
C   C14       1.0  0.52340  0.21955  0.11260  1.0000 0.5877803544
C   C15       1.0  0.86820  0.23632  0.43840  1.0000 0.5877803544
C   C16       1.0  0.75250  0.44780  0.58380  1.0000 -0.0693012246
C   C17       1.0  0.39350  0.17780  0.12570  1.0000 -0.061891975
C   C18       1.0  0.95450  0.55570  0.67710  1.0000 0.5877803544
C   C19       1.0  0.63320  0.34054  0.27380  1.0000 -0.0802639026
C   C20       1.0  0.06780  0.24080  0.36270  1.0000 -0.1881419856
C   C21       1.0  0.35700  0.23370  0.22180  1.0000 -0.1810163416
C   C22       1.0  0.58680  0.39693  0.33770  1.0000 -0.0872951331
C   C23       1.0  0.93420  0.22635  0.39740  1.0000 -0.061891975
C   C24       1.0  0.18840  0.21410  0.26860  1.0000 0.5505164668
C   C25       1.0  0.59830  0.41158  0.22950  1.0000 0.2238019511
C   C26       1.0  0.46550  0.56240  0.11610  1.0000 -0.1810163416
C   C27       1.0  0.03690  0.69270  0.78800  1.0000 -0.0872951331
C   C28       1.0  0.30260  0.19940  0.20170  1.0000 0.2326031851
C   C29       1.0  0.91700  0.46060  0.63480  1.0000 -0.1810163416
C   C30       1.0  0.43870  0.61043  0.02560  1.0000 -0.061891975
C   C31       1.0  0.77480  0.36607  0.57300  1.0000 0.5877803544
C   C32       1.0  0.57920  0.42600  0.28710  1.0000 -0.1810163416
C   C33       1.0  0.62830  0.32455  0.38870  1.0000 0.5790656462
C   C34       1.0  0.11930  0.68004  0.80560  1.0000 -0.0419444263
C   C35       1.0  0.39100  0.64827  0.99380  1.0000 0.5790656462
C   C36       1.0  0.17670  0.70696  0.85080  1.0000 0.5877803544
C   C37       1.0  0.61490  0.35404  0.33220  1.0000 -0.0500501542
C   C38       1.0  0.32270  0.17050  0.15500  1.0000 -0.2105129555
C   C39       1.0  0.54030  0.55170  0.02690  1.0000 -0.2105129555
C   C40       1.0  0.14660  0.64100  0.78160  1.0000 -0.0872951331
C   C41       1.0  0.92200  0.19220  0.35360  1.0000 -0.0693012246
C   C42       1.0  0.80540  0.41115  0.59260  1.0000 -0.0693012246
C   C43       1.0  0.00750  0.25080  0.40010  1.0000 -0.0802639026
C   C44       1.0  0.98290  0.18210  0.31610  1.0000 -0.2105129555
C   C45       1.0  0.09410  0.61480  0.74110  1.0000 -0.1709989279
C   C46       1.0  0.57510  0.09726  0.41490  1.0000 -0.0802639026
C   C47       1.0  0.50040  0.08711  0.50250  1.0000 -0.1013965185
C   C48       1.0  0.99110  0.12599  0.77260  1.0000 0.2507234171
C   C49       1.0  0.57110  0.73880  0.30700  1.0000 -0.0802639026
C   C50       1.0  0.22120  0.98880  0.89790  1.0000 -0.1881419856
C   C51       1.0  0.37560  0.86873  0.27720  1.0000 -0.1990490042
C   C52       1.0  0.47640  0.03848  0.41320  1.0000 0.2326031851
C   C53       1.0  0.11260  0.91852  0.88200  1.0000 -0.0802639026
C   C54       1.0  0.01720  0.16630  0.75040  1.0000 -0.2105129555
C   C55       1.0  0.13790  0.99630  0.87270  1.0000 0.2326031851
C   C56       1.0  0.44880  0.97860  0.33340  1.0000 0.5877803544
C   C57       1.0  0.94330  0.70640  0.18020  1.0000 0.2326031851
C   C58       1.0  0.55230  0.71279  0.35520  1.0000 -0.0693012246
C   C59       1.0  0.47660  0.71955  0.38740  1.0000 0.5877803544
C   C60       1.0  0.13180  0.73632  0.06160  1.0000 0.5877803544
C   C61       1.0  0.24750  0.94780  0.91620  1.0000 -0.0693012246
C   C62       1.0  0.60650  0.67780  0.37430  1.0000 -0.061891975
C   C63       1.0  0.04550  0.05570  0.82290  1.0000 0.5877803544
C   C64       1.0  0.36680  0.84054  0.22620  1.0000 -0.0802639026
C   C65       1.0  0.93220  0.74080  0.13730  1.0000 -0.1881419856
C   C66       1.0  0.64300  0.73370  0.27820  1.0000 -0.1810163416
C   C67       1.0  0.41320  0.89693  0.16230  1.0000 -0.0872951331
C   C68       1.0  0.06580  0.72635  0.10260  1.0000 -0.061891975
C   C69       1.0  0.81160  0.71410  0.23140  1.0000 0.5505164668
C   C70       1.0  0.40170  0.91158  0.27050  1.0000 0.2238019511
C   C71       1.0  0.53450  0.06240  0.38390  1.0000 -0.1810163416
C   C72       1.0  0.96310  0.19270  0.71200  1.0000 -0.0872951331
C   C73       1.0  0.69740  0.69940  0.29830  1.0000 0.2326031851
C   C74       1.0  0.08300  0.96060  0.86520  1.0000 -0.1810163416
C   C75       1.0  0.56130  0.11043  0.47440  1.0000 -0.061891975
C   C76       1.0  0.22520  0.86607  0.92700  1.0000 0.5877803544
C   C77       1.0  0.42080  0.92600  0.21290  1.0000 -0.1810163416
C   C78       1.0  0.37170  0.82455  0.11130  1.0000 0.5790656462
C   C79       1.0  0.88070  0.18004  0.69440  1.0000 -0.0419444263
C   C80       1.0  0.60900  0.14827  0.50620  1.0000 0.5790656462
C   C81       1.0  0.82330  0.20696  0.64920  1.0000 0.5877803544
C   C82       1.0  0.38510  0.85404  0.16780  1.0000 -0.0500501542
C   C83       1.0  0.67730  0.67050  0.34500  1.0000 -0.2105129555
C   C84       1.0  0.45970  0.05170  0.47310  1.0000 -0.2105129555
C   C85       1.0  0.85340  0.14100  0.71840  1.0000 -0.0872951331
C   C86       1.0  0.07800  0.69220  0.14640  1.0000 -0.0693012246
C   C87       1.0  0.19460  0.91115  0.90740  1.0000 -0.0693012246
C   C88       1.0  0.99250  0.75080  0.09990  1.0000 -0.0802639026
C   C89       1.0  0.01710  0.68210  0.18390  1.0000 -0.2105129555
C   C90       1.0  0.90590  0.11480  0.75890  1.0000 -0.1709989279
C   C91       1.0  0.57510  0.40274  0.91490  1.0000 -0.0802639026
C   C92       1.0  0.50040  0.41289  0.00250  1.0000 -0.1013965185
C   C93       1.0  0.99110  0.37401  0.27260  1.0000 0.2507234171
C   C94       1.0  0.57110  0.76120  0.80700  1.0000 -0.0802639026
C   C95       1.0  0.22120  0.51120  0.39790  1.0000 -0.1881419856
C   C96       1.0  0.37560  0.63127  0.77720  1.0000 -0.1990490042
C   C97       1.0  0.47640  0.46152  0.91320  1.0000 0.2326031851
C   C98       1.0  0.11260  0.58148  0.38200  1.0000 -0.0802639026
C   C99       1.0  0.01720  0.33370  0.25040  1.0000 -0.2105129555
C   C100      1.0  0.13790  0.50370  0.37270  1.0000 0.2326031851
C   C101      1.0  0.44880  0.52140  0.83340  1.0000 0.5877803544
C   C102      1.0  0.94330  0.79360  0.68020  1.0000 0.2326031851
C   C103      1.0  0.55230  0.78721  0.85520  1.0000 -0.0693012246
C   C104      1.0  0.47660  0.78045  0.88740  1.0000 0.5877803544
C   C105      1.0  0.13180  0.76368  0.56160  1.0000 0.5877803544
C   C106      1.0  0.24750  0.55220  0.41620  1.0000 -0.0693012246
C   C107      1.0  0.60650  0.82220  0.87430  1.0000 -0.061891975
C   C108      1.0  0.04550  0.44430  0.32290  1.0000 0.5877803544
C   C109      1.0  0.36680  0.65946  0.72620  1.0000 -0.0802639026
C   C110      1.0  0.93220  0.75920  0.63730  1.0000 -0.1881419856
C   C111      1.0  0.64300  0.76630  0.77820  1.0000 -0.1810163416
C   C112      1.0  0.41320  0.60307  0.66230  1.0000 -0.0872951331
C   C113      1.0  0.06580  0.77365  0.60260  1.0000 -0.061891975
C   C114      1.0  0.81160  0.78590  0.73140  1.0000 0.5505164668
C   C115      1.0  0.40170  0.58842  0.77050  1.0000 0.2238019511
C   C116      1.0  0.53450  0.43760  0.88390  1.0000 -0.1810163416
C   C117      1.0  0.96310  0.30730  0.21200  1.0000 -0.0872951331
C   C118      1.0  0.69740  0.80060  0.79830  1.0000 0.2326031851
C   C119      1.0  0.08300  0.53940  0.36520  1.0000 -0.1810163416
C   C120      1.0  0.56130  0.38957  0.97440  1.0000 -0.061891975
C   C121      1.0  0.22520  0.63393  0.42700  1.0000 0.5877803544
C   C122      1.0  0.42080  0.57400  0.71290  1.0000 -0.1810163416
C   C123      1.0  0.37170  0.67545  0.61130  1.0000 0.5790656462
C   C124      1.0  0.88070  0.31996  0.19440  1.0000 -0.0419444263
C   C125      1.0  0.60900  0.35173  0.00620  1.0000 0.5790656462
C   C126      1.0  0.82330  0.29304  0.14920  1.0000 0.5877803544
C   C127      1.0  0.38510  0.64596  0.66780  1.0000 -0.0500501542
C   C128      1.0  0.67730  0.82950  0.84500  1.0000 -0.2105129555
C   C129      1.0  0.45970  0.44830  0.97310  1.0000 -0.2105129555
C   C130      1.0  0.85340  0.35900  0.21840  1.0000 -0.0872951331
C   C131      1.0  0.07800  0.80780  0.64640  1.0000 -0.0693012246
C   C132      1.0  0.19460  0.58885  0.40740  1.0000 -0.0693012246
C   C133      1.0  0.99250  0.74920  0.59990  1.0000 -0.0802639026
C   C134      1.0  0.01710  0.81790  0.68390  1.0000 -0.2105129555
C   C135      1.0  0.90590  0.38520  0.25890  1.0000 -0.1709989279
C   C136      1.0  0.42490  0.90274  0.58510  1.0000 -0.0802639026
C   C137      1.0  0.49960  0.91289  0.49750  1.0000 -0.1013965185
C   C138      1.0  0.00890  0.87401  0.22740  1.0000 0.2507234171
C   C139      1.0  0.42890  0.26120  0.69300  1.0000 -0.0802639026
C   C140      1.0  0.77880  0.01120  0.10210  1.0000 -0.1881419856
C   C141      1.0  0.62440  0.13127  0.72280  1.0000 -0.1990490042
C   C142      1.0  0.52360  0.96152  0.58680  1.0000 0.2326031851
C   C143      1.0  0.88740  0.08148  0.11800  1.0000 -0.0802639026
C   C144      1.0  0.98280  0.83370  0.24960  1.0000 -0.2105129555
C   C145      1.0  0.86210  0.00370  0.12730  1.0000 0.2326031851
C   C146      1.0  0.55120  0.02140  0.66667  1.0000 0.5877803544
C   C147      1.0  0.05670  0.29360  0.81980  1.0000 0.2326031851
C   C148      1.0  0.44770  0.28721  0.64480  1.0000 -0.0693012246
C   C149      1.0  0.52340  0.28045  0.61260  1.0000 0.5877803544
C   C150      1.0  0.86820  0.26368  0.93840  1.0000 0.5877803544
C   C151      1.0  0.75250  0.05220  0.08380  1.0000 -0.0693012246
C   C152      1.0  0.39350  0.32220  0.62570  1.0000 -0.061891975
C   C153      1.0  0.95450  0.94430  0.17710  1.0000 0.5877803544
C   C154      1.0  0.63320  0.15946  0.77380  1.0000 -0.0802639026
C   C155      1.0  0.06780  0.25920  0.86270  1.0000 -0.1881419856
C   C156      1.0  0.35700  0.26630  0.72180  1.0000 -0.1810163416
C   C157      1.0  0.58680  0.10307  0.83770  1.0000 -0.0872951331
C   C158      1.0  0.93420  0.27365  0.89740  1.0000 -0.061891975
C   C159      1.0  0.18840  0.28590  0.76860  1.0000 0.5505164668
C   C160      1.0  0.59830  0.08842  0.72950  1.0000 0.2238019511
C   C161      1.0  0.46550  0.93760  0.61610  1.0000 -0.1810163416
C   C162      1.0  0.03690  0.80730  0.28800  1.0000 -0.0872951331
C   C163      1.0  0.30260  0.30060  0.70170  1.0000 0.2326031851
C   C164      1.0  0.91700  0.03940  0.13480  1.0000 -0.1810163416
C   C165      1.0  0.43870  0.88957  0.52560  1.0000 -0.061891975
C   C166      1.0  0.77480  0.13393  0.07300  1.0000 0.5877803544
C   C167      1.0  0.57920  0.07400  0.78710  1.0000 -0.1810163416
C   C168      1.0  0.62830  0.17545  0.88870  1.0000 0.5790656462
C   C169      1.0  0.11930  0.81996  0.30560  1.0000 -0.0419444263
C   C170      1.0  0.39100  0.85173  0.49380  1.0000 0.5790656462
C   C171      1.0  0.17670  0.79304  0.35080  1.0000 0.5877803544
C   C172      1.0  0.61490  0.14596  0.83220  1.0000 -0.0500501542
C   C173      1.0  0.32270  0.32950  0.65500  1.0000 -0.2105129555
C   C174      1.0  0.54030  0.94830  0.52690  1.0000 -0.2105129555
C   C175      1.0  0.14660  0.85900  0.28160  1.0000 -0.0872951331
C   C176      1.0  0.92200  0.30780  0.85360  1.0000 -0.0693012246
C   C177      1.0  0.80540  0.08885  0.09260  1.0000 -0.0693012246
C   C178      1.0  0.00750  0.24920  0.90010  1.0000 -0.0802639026
C   C179      1.0  0.98290  0.31790  0.81610  1.0000 -0.2105129555
C   C180      1.0  0.09410  0.88520  0.24110  1.0000 -0.1709989279
N   N1        1.0  0.59440  0.43987  0.17530  1.0000 -0.4183408265
N   N2        1.0  0.22860  0.18870  0.22780  1.0000 -0.4309376225
N   N3        1.0  0.88490  0.54102  0.64200  1.0000 -0.4444922254
N   N4        1.0  0.11470  0.19270  0.28060  1.0000 -0.4183408265
N   N5        1.0  0.56660  0.50082  0.11350  1.0000 -0.4183408265
N   N6        1.0  0.94970  0.60037  0.68990  1.0000 -0.4309376225
N   N7        1.0  0.40560  0.93987  0.32470  1.0000 -0.4183408265
N   N8        1.0  0.77140  0.68870  0.27220  1.0000 -0.4309376225
N   N9        1.0  0.11510  0.04102  0.85800  1.0000 -0.4518396065
N   N10       1.0  0.88530  0.69270  0.21940  1.0000 -0.4183408265
N   N11       1.0  0.43340  0.00082  0.38650  1.0000 -0.4183408265
N   N12       1.0  0.05030  0.10037  0.81010  1.0000 -0.4309376225
N   N13       1.0  0.40560  0.56013  0.82470  1.0000 -0.4183408265
N   N14       1.0  0.77140  0.81130  0.77220  1.0000 -0.4309376225
N   N15       1.0  0.11510  0.45898  0.35800  1.0000 -0.4444922254
N   N16       1.0  0.88530  0.80730  0.71940  1.0000 -0.4183408265
N   N17       1.0  0.43340  0.49918  0.88650  1.0000 -0.4183408265
N   N18       1.0  0.05030  0.39963  0.31010  1.0000 -0.4309376225
N   N19       1.0  0.59440  0.06013  0.67530  1.0000 -0.4183408265
N   N20       1.0  0.22860  0.31130  0.72780  1.0000 -0.4309376225
N   N21       1.0  0.88490  0.95898  0.14200  1.0000 -0.4444922254
N   N22       1.0  0.11470  0.30730  0.78060  1.0000 -0.4183408265
N   N23       1.0  0.56660  0.99918  0.61350  1.0000 -0.4183408265
N   N24       1.0  0.94970  0.89963  0.18990  1.0000 -0.4309376225
O   O1        1.0  0.69326  0.25801  0.52288  1.0000 -1.0222919032
O   O2        1.0  0.79870  0.21770  0.42704  1.0000 -0.5309845889
O   O3        1.0  0.66880  0.28970  0.38509  1.0000 -0.5590450659
O   O4        1.0  0.33370  0.66592  0.02091  1.0000 -0.5723871633
O   O5        1.0  0.25200  0.69704  0.85769  1.0000 -0.5117370531
O   O6        1.0  0.57050  0.25168  0.12939  1.0000 -0.5391804507
O   O7        1.0  0.53570  0.19183  0.06961  1.0000 -0.5391804507
O   O8        1.0  0.59630  0.33717  0.43681  1.0000 -0.5309845889
O   O9        1.0  0.69720  0.36109  0.55930  1.0000 -0.5309845889
O   O10       1.0  0.88690  0.26413  0.48362  1.0000 -0.5391804507
O   O11       1.0  0.82840  0.33519  0.57252  1.0000 -0.5391804507
O   O12       1.0  0.14390  0.73801  0.87949  1.0000 -0.5309845889
O   O13       1.0  0.41060  0.66182  0.94117  1.0000 -0.5391804507
O   O14       1.0  0.50430  0.49213  0.20370  1.0000 -0.4589870616
O   O15       1.0  0.21220  0.24830  0.29100  1.0000 -0.4518396065
O   O16       1.0  0.01560  0.53286  0.69370  1.0000 -0.4987693697
O   O17       1.0  0.30674  0.75801  0.97712  1.0000 -1.0222919032
O   O18       1.0  0.20130  0.71770  0.07296  1.0000 -0.5309845889
O   O19       1.0  0.33120  0.78970  0.11491  1.0000 -0.5590450659
O   O20       1.0  0.66630  0.16592  0.47909  1.0000 -0.5723871633
O   O21       1.0  0.74800  0.19704  0.64231  1.0000 -0.5117370531
O   O22       1.0  0.42950  0.75168  0.37061  1.0000 -0.5391804507
O   O23       1.0  0.46430  0.69183  0.43039  1.0000 -0.5391804507
O   O24       1.0  0.40370  0.83717  0.06319  1.0000 -0.5309845889
O   O25       1.0  0.30280  0.86109  0.94070  1.0000 -0.5309845889
O   O26       1.0  0.11310  0.76413  0.01638  1.0000 -0.5391804507
O   O27       1.0  0.17160  0.83519  0.92748  1.0000 -0.5391804507
O   O28       1.0  0.85610  0.23801  0.62051  1.0000 -0.5309845889
O   O29       1.0  0.58940  0.16182  0.55883  1.0000 -0.5391804507
O   O30       1.0  0.49570  0.99213  0.29630  1.0000 -0.4589870616
O   O31       1.0  0.78780  0.74830  0.20900  1.0000 -0.4518396065
O   O32       1.0  0.98440  0.03286  0.80630  1.0000 -0.4987693697
O   O33       1.0  0.30674  0.74199  0.47712  1.0000 -1.0222919032
O   O34       1.0  0.20130  0.78230  0.57296  1.0000 -0.5309845889
O   O35       1.0  0.33120  0.71030  0.61491  1.0000 -0.5590450659
O   O36       1.0  0.66630  0.33408  0.97909  1.0000 -0.5723871633
O   O37       1.0  0.74800  0.30296  0.14231  1.0000 -0.5117370531
O   O38       1.0  0.42950  0.74832  0.87061  1.0000 -0.5391804507
O   O39       1.0  0.46430  0.80817  0.93039  1.0000 -0.5391804507
O   O40       1.0  0.40370  0.66283  0.56319  1.0000 -0.5309845889
O   O41       1.0  0.30280  0.63891  0.44070  1.0000 -0.5309845889
O   O42       1.0  0.11310  0.73587  0.51638  1.0000 -0.5391804507
O   O43       1.0  0.17160  0.66481  0.42748  1.0000 -0.5391804507
O   O44       1.0  0.85610  0.26199  0.12051  1.0000 -0.5309845889
O   O45       1.0  0.58940  0.33818  0.05883  1.0000 -0.5391804507
O   O46       1.0  0.49570  0.50787  0.79630  1.0000 -0.4589870616
O   O47       1.0  0.78780  0.75170  0.70900  1.0000 -0.4518396065
O   O48       1.0  0.98440  0.46714  0.30630  1.0000 -0.4987693697
O   O49       1.0  0.69326  0.24199  0.02288  1.0000 -1.0222919032
O   O50       1.0  0.79870  0.28230  0.92704  1.0000 -0.5309845889
O   O51       1.0  0.66880  0.21030  0.88509  1.0000 -0.5590450659
O   O52       1.0  0.33370  0.83408  0.52091  1.0000 -0.5723871633
O   O53       1.0  0.25200  0.80296  0.35769  1.0000 -0.5117370531
O   O54       1.0  0.57050  0.24832  0.62939  1.0000 -0.5391804507
O   O55       1.0  0.53570  0.30817  0.56961  1.0000 -0.5391804507
O   O56       1.0  0.59630  0.16283  0.93681  1.0000 -0.5391804507
O   O57       1.0  0.69720  0.13891  0.05930  1.0000 -0.5309845889
O   O58       1.0  0.88690  0.23587  0.98362  1.0000 -0.5391804507
O   O59       1.0  0.82840  0.16481  0.07252  1.0000 -0.5391804507
O   O60       1.0  0.14390  0.76199  0.37949  1.0000 -0.5309845889
O   O61       1.0  0.41060  0.83818  0.44117  1.0000 -0.5391804507
O   O62       1.0  0.50430  0.00787  0.70370  1.0000 -0.4589870616
O   O63       1.0  0.21220  0.25170  0.79100  1.0000 -0.4518396065
O   O64       1.0  0.01560  0.96714  0.19370  1.0000 -0.4987693697
