# DDEC6 charges by PACMAN v1.1 (https://github.com/mtap-research/PACMAN-charge/)
data_2017[Zn][mog]3[ASR]1
_chemical_formula_sum              "Zn6 H64 C112 N16 O16"
_cell_length_a       14.1504
_cell_length_b       19.257
_cell_length_c       19.43
_cell_angle_alpha    69.873
_cell_angle_beta     82.011
_cell_angle_gamma    75.484

_symmetry_space_group_name_H-M    "P 1"
_symmetry_Int_Tables_number       1

loop_
  _symmetry_equiv_pos_as_xyz
  'x, y, z'

loop_
  _atom_site_type_symbol
  _atom_site_label
  _atom_site_symmetry_multiplicity
  _atom_site_fract_x
  _atom_site_fract_y
  _atom_site_fract_z
  _atom_site_occupancy
  _atom_site_charge
Zn  Zn1       1.0  0.85838  0.30518  0.92508  1.0000 0.6378550309
Zn  Zn2       1.0  0.35352  0.12147  0.28991  1.0000 0.7392594296
Zn  Zn3       1.0  0.34984  0.52663  0.57223  1.0000 0.7392594296
Zn  Zn4       1.0  0.14162  0.69482  0.07492  1.0000 0.6378550309
Zn  Zn5       1.0  0.64648  0.87853  0.71009  1.0000 0.7392594296
Zn  Zn6       1.0  0.65016  0.47337  0.42777  1.0000 0.7392594296
H   H1        1.0  0.30790  0.09470  0.15540  1.0000 0.1208574214
H   H2        1.0  0.66740  0.37140  0.67630  1.0000 0.1457681435
H   H3        1.0  0.54560  0.42180  0.59410  1.0000 0.1208574214
H   H4        1.0  0.41010  0.56510  0.69680  1.0000 0.1208574214
H   H5        1.0  0.19330  0.39950  0.43920  1.0000 0.1208574214
H   H6        1.0  0.27890  0.80740  0.55510  1.0000 0.1208574214
H   H7        1.0  0.52040  0.06210  0.18820  1.0000 0.1208574214
H   H8        1.0  0.52620  0.51640  0.78280  1.0000 0.1384296619
H   H9        1.0  0.47980  0.34430  0.47360  1.0000 0.1208574214
H   H10       1.0  0.16940  0.58480  0.65950  1.0000 0.1208574214
H   H11       1.0  0.20100  0.36590  0.87620  1.0000 0.1208574214
H   H12       1.0  0.19840  0.28870  0.00650  1.0000 0.1208574214
H   H13       1.0  0.93280  0.15750  0.19600  1.0000 0.1208574214
H   H14       1.0  0.76070  0.15830  0.19130  1.0000 0.1302360076
H   H15       1.0  0.63630  0.10820  0.10200  1.0000 0.1384296619
H   H16       1.0  0.14670  0.21260  0.27520  1.0000 0.1208574214
H   H17       1.0  0.42220  0.25790  0.21860  1.0000 0.1101307003
H   H18       1.0  0.53750  0.30770  0.13500  1.0000 0.1384296619
H   H19       1.0  0.49620  0.29750  0.99050  1.0000 0.1302360076
H   H20       1.0  0.49790  0.37810  0.86130  1.0000 0.1208574214
H   H21       1.0  0.19390  0.32970  0.74840  1.0000 0.1384296619
H   H22       1.0  0.30670  0.38420  0.66250  1.0000 0.1208574214
H   H23       1.0  0.38460  0.72600  0.38930  1.0000 0.1101307003
H   H24       1.0  0.04520  0.53780  0.73860  1.0000 0.1384296619
H   H25       1.0  0.94870  0.47230  0.66470  1.0000 0.1302360076
H   H26       1.0  0.77410  0.47510  0.66140  1.0000 0.1302360076
H   H27       1.0  0.26200  0.91700  0.49000  1.0000 0.1302360076
H   H28       1.0  0.23400  0.30170  0.38630  1.0000 0.1302360076
H   H29       1.0  0.03500  0.26120  0.19480  1.0000 0.1302360076
H   H30       1.0  0.50600  0.25500  0.41900  1.0000 0.1208574214
H   H31       1.0  0.19600  0.14380  0.07020  1.0000 0.1384296619
H   H32       1.0  0.40800  0.83680  0.32690  1.0000 0.1208574214
H   H33       1.0  0.69210  0.90530  0.84460  1.0000 0.1208574214
H   H34       1.0  0.33260  0.62860  0.32370  1.0000 0.1457681435
H   H35       1.0  0.45440  0.57820  0.40590  1.0000 0.1208574214
H   H36       1.0  0.58990  0.43490  0.30320  1.0000 0.1208574214
H   H37       1.0  0.80670  0.60050  0.56080  1.0000 0.1208574214
H   H38       1.0  0.72110  0.19260  0.44490  1.0000 0.1208574214
H   H39       1.0  0.47960  0.93790  0.81180  1.0000 0.1208574214
H   H40       1.0  0.47380  0.48360  0.21720  1.0000 0.1384296619
H   H41       1.0  0.52020  0.65570  0.52640  1.0000 0.1208574214
H   H42       1.0  0.83060  0.41520  0.34050  1.0000 0.1208574214
H   H43       1.0  0.79900  0.63410  0.12380  1.0000 0.1208574214
H   H44       1.0  0.80160  0.71130  0.99350  1.0000 0.1208574214
H   H45       1.0  0.06720  0.84250  0.80400  1.0000 0.1208574214
H   H46       1.0  0.23930  0.84170  0.80870  1.0000 0.1302360076
H   H47       1.0  0.36370  0.89180  0.89800  1.0000 0.1384296619
H   H48       1.0  0.85330  0.78740  0.72480  1.0000 0.1208574214
H   H49       1.0  0.57780  0.74210  0.78140  1.0000 0.1101307003
H   H50       1.0  0.46250  0.69230  0.86500  1.0000 0.1384296619
H   H51       1.0  0.50380  0.70250  0.00950  1.0000 0.1302360076
H   H52       1.0  0.50210  0.62190  0.13870  1.0000 0.1208574214
H   H53       1.0  0.80610  0.67030  0.25160  1.0000 0.1384296619
H   H54       1.0  0.69330  0.61580  0.33750  1.0000 0.1208574214
H   H55       1.0  0.61540  0.27400  0.61070  1.0000 0.1101307003
H   H56       1.0  0.95480  0.46220  0.26140  1.0000 0.1384296619
H   H57       1.0  0.05130  0.52770  0.33530  1.0000 0.1302360076
H   H58       1.0  0.22590  0.52490  0.33860  1.0000 0.1302360076
H   H59       1.0  0.73800  0.08300  0.51000  1.0000 0.1302360076
H   H60       1.0  0.76600  0.69830  0.61370  1.0000 0.1302360076
H   H61       1.0  0.96500  0.73880  0.80520  1.0000 0.1302360076
H   H62       1.0  0.49400  0.74500  0.58100  1.0000 0.1208574214
H   H63       1.0  0.80400  0.85620  0.92980  1.0000 0.1384296619
H   H64       1.0  0.59200  0.16320  0.67310  1.0000 0.1208574214
C   C1        1.0  0.25100  0.12876  0.16249  1.0000 0.0898128304
C   C2        1.0  0.61510  0.40991  0.68178  1.0000 -0.181937888
C   C3        1.0  0.54190  0.44085  0.63256  1.0000 0.0962567705
C   C4        1.0  0.46140  0.52522  0.69312  1.0000 0.0898128304
C   C5        1.0  0.25540  0.36971  0.43563  1.0000 -0.1134047518
C   C6        1.0  0.30390  0.81510  0.50680  1.0000 -0.1134047518
C   C7        1.0  0.09590  0.20635  0.11955  1.0000 0.1208574214
C   C8        1.0  0.60120  0.21424  0.11008  1.0000 0.1208574214
C   C9        1.0  0.52420  0.11231  0.17727  1.0000 0.0816531836
C   C10       1.0  0.44020  0.28000  0.42688  1.0000 -0.0999689863
C   C11       1.0  0.26960  0.31190  0.40598  1.0000 -0.1134047518
C   C12       1.0  0.36670  0.97770  0.34140  1.0000 0.5515347499
C   C13       1.0  0.35330  0.89836  0.39106  1.0000 -0.010919877
C   C14       1.0  0.60800  0.43846  0.74022  1.0000 0.1302360076
C   C15       1.0  0.53140  0.49634  0.74486  1.0000 -0.2003078905
C   C16       1.0  0.10280  0.42856  0.75131  1.0000 0.1208574214
C   C17       1.0  0.33560  0.38287  0.46013  1.0000 -0.0220066641
C   C18       1.0  0.42680  0.33650  0.45605  1.0000 -0.0999689863
C   C19       1.0  0.32910  0.75568  0.47905  1.0000 -0.010919877
C   C20       1.0  0.17240  0.53295  0.67518  1.0000 0.1101307003
C   C21       1.0  0.05620  0.35390  0.87614  1.0000 0.1790801245
C   C22       1.0  0.14910  0.34550  0.90326  1.0000 -0.2003078905
C   C23       1.0  0.14820  0.30260  0.97499  1.0000 -0.2003078905
C   C24       1.0  0.05380  0.28258  0.99295  1.0000 0.1790801245
C   C25       1.0  0.02140  0.23980  0.06277  1.0000 -0.0808673771
C   C26       1.0  0.18050  0.15590  0.11044  1.0000 -0.181937888
C   C27       1.0  0.92860  0.22646  0.08393  1.0000 0.1736358183
C   C28       1.0  0.89520  0.18219  0.15536  1.0000 -0.2003078905
C   C29       1.0  0.80050  0.18267  0.15311  1.0000 -0.1890583546
C   C30       1.0  0.77290  0.22874  0.07948  1.0000 0.1790801245
C   C31       1.0  0.67870  0.24679  0.05492  1.0000 -0.0808673771
C   C32       1.0  0.59420  0.13927  0.12593  1.0000 -0.1890583546
C   C33       1.0  0.15590  0.19809  0.23336  1.0000 0.0898128304
C   C34       1.0  0.37770  0.20385  0.36744  1.0000 0.5400688428
C   C35       1.0  0.36220  0.26663  0.40066  1.0000 -0.010919877
C   C36       1.0  0.37950  0.83840  0.36470  1.0000 -0.0891138635
C   C37       1.0  0.31590  0.88690  0.46210  1.0000 -0.0891138635
C   C38       1.0  0.46650  0.22690  0.19563  1.0000 0.0898128304
C   C39       1.0  0.53560  0.25716  0.14520  1.0000 -0.1890583546
C   C40       1.0  0.64810  0.29368  0.98511  1.0000 0.1790801245
C   C41       1.0  0.55030  0.31275  0.96184  1.0000 -0.2003078905
C   C42       1.0  0.55120  0.35693  0.89057  1.0000 -0.2003078905
C   C43       1.0  0.65050  0.36501  0.86861  1.0000 0.1886313784
C   C44       1.0  0.68370  0.40317  0.79780  1.0000 -0.0891138635
C   C45       1.0  0.77940  0.41162  0.77493  1.0000 0.1886313784
C   C46       1.0  0.93540  0.40969  0.77897  1.0000 0.1790801245
C   C47       1.0  0.02630  0.39637  0.80496  1.0000 -0.0808673771
C   C48       1.0  0.18480  0.38220  0.72928  1.0000 -0.1890583546
C   C49       1.0  0.25310  0.41554  0.67816  1.0000 0.0816531836
C   C50       1.0  0.32040  0.44571  0.49259  1.0000 0.5400688428
C   C51       1.0  0.32160  0.67659  0.52748  1.0000 0.5515347499
C   C52       1.0  0.36730  0.76614  0.40800  1.0000 -0.1189370376
C   C53       1.0  0.09790  0.50470  0.72438  1.0000 -0.2003078905
C   C54       1.0  0.90810  0.45089  0.70402  1.0000 -0.1890583546
C   C55       1.0  0.81180  0.45220  0.70219  1.0000 -0.1890583546
C   C56       1.0  0.08360  0.22610  0.18367  1.0000 -0.1890583546
C   C57       1.0  0.74900  0.87124  0.83751  1.0000 0.0898128304
C   C58       1.0  0.38490  0.59009  0.31822  1.0000 -0.181937888
C   C59       1.0  0.45810  0.55915  0.36744  1.0000 0.0962567705
C   C60       1.0  0.53860  0.47478  0.30688  1.0000 0.0898128304
C   C61       1.0  0.74460  0.63029  0.56437  1.0000 -0.1134047518
C   C62       1.0  0.69610  0.18490  0.49320  1.0000 -0.1134047518
C   C63       1.0  0.90410  0.79365  0.88045  1.0000 0.1208574214
C   C64       1.0  0.39880  0.78576  0.88992  1.0000 0.1208574214
C   C65       1.0  0.47580  0.88769  0.82273  1.0000 0.0816531836
C   C66       1.0  0.55980  0.72000  0.57312  1.0000 -0.0999689863
C   C67       1.0  0.73040  0.68810  0.59402  1.0000 -0.1134047518
C   C68       1.0  0.63330  0.02230  0.65860  1.0000 0.5515347499
C   C69       1.0  0.64670  0.10164  0.60894  1.0000 -0.010919877
C   C70       1.0  0.39200  0.56154  0.25978  1.0000 0.1302360076
C   C71       1.0  0.46860  0.50366  0.25514  1.0000 -0.2003078905
C   C72       1.0  0.89720  0.57144  0.24869  1.0000 0.1208574214
C   C73       1.0  0.66440  0.61713  0.53987  1.0000 -0.0220066641
C   C74       1.0  0.57320  0.66350  0.54395  1.0000 -0.0999689863
C   C75       1.0  0.67090  0.24432  0.52095  1.0000 -0.010919877
C   C76       1.0  0.82760  0.46705  0.32482  1.0000 0.1101307003
C   C77       1.0  0.94380  0.64610  0.12386  1.0000 0.1790801245
C   C78       1.0  0.85090  0.65450  0.09674  1.0000 -0.2003078905
C   C79       1.0  0.85180  0.69740  0.02501  1.0000 -0.2003078905
C   C80       1.0  0.94620  0.71742  0.00705  1.0000 0.1790801245
C   C81       1.0  0.97860  0.76020  0.93723  1.0000 -0.0808673771
C   C82       1.0  0.81950  0.84410  0.88956  1.0000 -0.181937888
C   C83       1.0  0.07140  0.77354  0.91607  1.0000 0.1736358183
C   C84       1.0  0.10480  0.81781  0.84464  1.0000 -0.2003078905
C   C85       1.0  0.19950  0.81733  0.84689  1.0000 -0.1890583546
C   C86       1.0  0.22710  0.77126  0.92052  1.0000 0.1790801245
C   C87       1.0  0.32130  0.75321  0.94508  1.0000 -0.0808673771
C   C88       1.0  0.40580  0.86073  0.87407  1.0000 -0.1890583546
C   C89       1.0  0.84410  0.80191  0.76664  1.0000 0.0898128304
C   C90       1.0  0.62230  0.79615  0.63256  1.0000 0.5400688428
C   C91       1.0  0.63780  0.73337  0.59934  1.0000 -0.010919877
C   C92       1.0  0.62050  0.16160  0.63530  1.0000 -0.0891138635
C   C93       1.0  0.68410  0.11310  0.53790  1.0000 -0.0891138635
C   C94       1.0  0.53350  0.77310  0.80437  1.0000 0.0898128304
C   C95       1.0  0.46440  0.74284  0.85480  1.0000 -0.1890583546
C   C96       1.0  0.35190  0.70632  0.01489  1.0000 0.1790801245
C   C97       1.0  0.44970  0.68725  0.03816  1.0000 -0.2003078905
C   C98       1.0  0.44880  0.64307  0.10943  1.0000 -0.2003078905
C   C99       1.0  0.34950  0.63499  0.13139  1.0000 0.1886313784
C   C100      1.0  0.31630  0.59683  0.20220  1.0000 -0.0891138635
C   C101      1.0  0.22060  0.58838  0.22507  1.0000 0.1886313784
C   C102      1.0  0.06460  0.59031  0.22103  1.0000 0.1790801245
C   C103      1.0  0.97370  0.60363  0.19504  1.0000 -0.0808673771
C   C104      1.0  0.81520  0.61780  0.27072  1.0000 -0.1890583546
C   C105      1.0  0.74690  0.58446  0.32184  1.0000 0.0816531836
C   C106      1.0  0.67960  0.55429  0.50741  1.0000 0.5400688428
C   C107      1.0  0.67840  0.32341  0.47252  1.0000 0.5515347499
C   C108      1.0  0.63270  0.23386  0.59200  1.0000 -0.1189370376
C   C109      1.0  0.90210  0.49530  0.27562  1.0000 -0.2003078905
C   C110      1.0  0.09190  0.54911  0.29598  1.0000 -0.1890583546
C   C111      1.0  0.18820  0.54780  0.29781  1.0000 -0.1890583546
C   C112      1.0  0.91640  0.77390  0.81633  1.0000 -0.1890583546
N   N1        1.0  0.85161  0.25328  0.03814  1.0000 -0.3532816889
N   N2        1.0  0.46032  0.15545  0.21287  1.0000 -0.215864072
N   N3        1.0  0.23933  0.15023  0.22241  1.0000 -0.215864072
N   N4        1.0  0.70763  0.32695  0.92742  1.0000 -0.3594224375
N   N5        1.0  0.46504  0.49768  0.63787  1.0000 -0.2429340106
N   N6        1.0  0.85545  0.38535  0.82120  1.0000 -0.3594224375
N   N7        1.0  0.24531  0.49000  0.65064  1.0000 -0.215864072
N   N8        1.0  0.99792  0.31567  0.93263  1.0000 -0.3594224375
N   N9        1.0  0.14839  0.74672  0.96186  1.0000 -0.3532816889
N   N10       1.0  0.53968  0.84455  0.78713  1.0000 -0.215864072
N   N11       1.0  0.76067  0.84977  0.77759  1.0000 -0.215864072
N   N12       1.0  0.29237  0.67305  0.07258  1.0000 -0.3594224375
N   N13       1.0  0.53496  0.50232  0.36213  1.0000 -0.2429340106
N   N14       1.0  0.14455  0.61465  0.17880  1.0000 -0.3594224375
N   N15       1.0  0.75469  0.51000  0.34936  1.0000 -0.215864072
N   N16       1.0  0.00208  0.68433  0.06737  1.0000 -0.3532816889
O   O1        1.0  0.30607  0.20512  0.33234  1.0000 -0.5578164083
O   O2        1.0  0.45512  0.15558  0.37265  1.0000 -0.5226038021
O   O3        1.0  0.34150  0.02866  0.36935  1.0000 -0.5102752072
O   O4        1.0  0.39268  0.44565  0.52695  1.0000 -0.5578164083
O   O5        1.0  0.24275  0.49397  0.48703  1.0000 -0.5414713246
O   O6        1.0  0.34276  0.62522  0.49760  1.0000 -0.5226038021
O   O7        1.0  0.29620  0.66396  0.59429  1.0000 -0.5757482272
O   O8        1.0  0.40113  0.98639  0.27582  1.0000 -0.5890332085
O   O9        1.0  0.69393  0.79488  0.66766  1.0000 -0.5578164083
O   O10       1.0  0.54488  0.84442  0.62735  1.0000 -0.5226038021
O   O11       1.0  0.65850  0.97134  0.63065  1.0000 -0.5102752072
O   O12       1.0  0.60732  0.55435  0.47305  1.0000 -0.5578164083
O   O13       1.0  0.75725  0.50603  0.51297  1.0000 -0.5414713246
O   O14       1.0  0.65724  0.37478  0.50240  1.0000 -0.5226038021
O   O15       1.0  0.70380  0.33604  0.40571  1.0000 -0.5757482272
O   O16       1.0  0.59887  0.01361  0.72418  1.0000 -0.5890332085
