# DDEC6 charges by PACMAN v1.1 (https://github.com/mtap-research/PACMAN-charge/)
data_2017[Cu][nan]3[ASR]12
_chemical_formula_sum              "Cu24 H72 C204 O112"
_cell_length_a       24.5203
_cell_length_b       24.5203
_cell_length_c       24.5203
_cell_angle_alpha    102.663
_cell_angle_beta     102.663
_cell_angle_gamma    124.163

_symmetry_space_group_name_H-M    "P 1"
_symmetry_Int_Tables_number       1

loop_
  _symmetry_equiv_pos_as_xyz
  'x, y, z'

loop_
  _atom_site_type_symbol
  _atom_site_label
  _atom_site_symmetry_multiplicity
  _atom_site_fract_x
  _atom_site_fract_y
  _atom_site_fract_z
  _atom_site_occupancy
  _atom_site_charge
Cu  Cu1       1.0  0.34514  0.00000  0.34514  1.0000 0.8581601818
Cu  Cu2       1.0  0.00000  0.34514  0.34514  1.0000 0.8581601818
Cu  Cu3       1.0  0.65486  0.00000  0.65486  1.0000 0.8581601818
Cu  Cu4       1.0  0.00000  0.65486  0.65486  1.0000 0.8581601818
Cu  Cu5       1.0  0.25826  0.00000  0.25826  1.0000 0.8529838462
Cu  Cu6       1.0  0.00000  0.25826  0.25826  1.0000 0.8529838462
Cu  Cu7       1.0  0.74174  0.00000  0.74174  1.0000 0.8529838462
Cu  Cu8       1.0  0.00000  0.74174  0.74174  1.0000 0.8529838462
Cu  Cu9       1.0  0.50470  0.50470  0.34548  1.0000 0.8581601818
Cu  Cu10      1.0  0.15922  0.50470  0.00000  1.0000 0.8581601818
Cu  Cu11      1.0  0.15922  0.15922  0.65452  1.0000 0.8581601818
Cu  Cu12      1.0  0.50470  0.15922  0.00000  1.0000 0.8581601818
Cu  Cu13      1.0  0.84078  0.49530  0.00000  1.0000 0.8581601818
Cu  Cu14      1.0  0.84078  0.84078  0.34548  1.0000 0.8581601818
Cu  Cu15      1.0  0.49530  0.84078  0.00000  1.0000 0.8581601818
Cu  Cu16      1.0  0.49530  0.49530  0.65452  1.0000 0.8581601818
Cu  Cu17      1.0  0.38047  0.38047  0.25686  1.0000 0.8728095134
Cu  Cu18      1.0  0.12361  0.38047  0.00000  1.0000 0.8728095134
Cu  Cu19      1.0  0.12361  0.12361  0.74314  1.0000 0.8728095134
Cu  Cu20      1.0  0.38047  0.12361  0.00000  1.0000 0.8728095134
Cu  Cu21      1.0  0.87639  0.61953  0.00000  1.0000 0.8728095134
Cu  Cu22      1.0  0.87639  0.87639  0.25686  1.0000 0.8728095134
Cu  Cu23      1.0  0.61953  0.87639  0.00000  1.0000 0.8728095134
Cu  Cu24      1.0  0.61953  0.61953  0.74314  1.0000 0.8728095134
H   H1        1.0  0.51680  0.22690  0.44370  1.0000 0.1398496804
H   H2        1.0  0.07310  0.51680  0.28990  1.0000 0.1398496804
H   H3        1.0  0.78320  0.07310  0.55630  1.0000 0.1398496804
H   H4        1.0  0.22690  0.78320  0.71010  1.0000 0.1398496804
H   H5        1.0  0.21680  0.77310  0.28990  1.0000 0.1398496804
H   H6        1.0  0.92690  0.21680  0.44370  1.0000 0.1398496804
H   H7        1.0  0.48320  0.92690  0.71010  1.0000 0.1398496804
H   H8        1.0  0.77310  0.48320  0.55630  1.0000 0.1398496804
H   H9        1.0  0.48320  0.77310  0.55630  1.0000 0.1398496804
H   H10       1.0  0.92690  0.48320  0.71010  1.0000 0.1398496804
H   H11       1.0  0.21680  0.92690  0.44370  1.0000 0.1398496804
H   H12       1.0  0.77310  0.21680  0.28990  1.0000 0.1398496804
H   H13       1.0  0.78320  0.22690  0.71010  1.0000 0.1398496804
H   H14       1.0  0.07310  0.78320  0.55630  1.0000 0.1398496804
H   H15       1.0  0.51680  0.07310  0.28990  1.0000 0.1398496804
H   H16       1.0  0.22690  0.51680  0.44370  1.0000 0.1398496804
H   H17       1.0  0.57470  0.41930  0.44780  1.0000 0.1269110217
H   H18       1.0  0.12690  0.57470  0.15540  1.0000 0.1269110217
H   H19       1.0  0.97150  0.12690  0.55220  1.0000 0.1269110217
H   H20       1.0  0.41930  0.97150  0.84460  1.0000 0.1269110217
H   H21       1.0  0.02850  0.58070  0.15540  1.0000 0.1269110217
H   H22       1.0  0.87310  0.02850  0.44780  1.0000 0.1269110217
H   H23       1.0  0.42530  0.87310  0.84460  1.0000 0.1269110217
H   H24       1.0  0.58070  0.42530  0.55220  1.0000 0.1269110217
H   H25       1.0  0.42530  0.58070  0.55220  1.0000 0.1269110217
H   H26       1.0  0.87310  0.42530  0.84460  1.0000 0.1269110217
H   H27       1.0  0.02850  0.87310  0.44780  1.0000 0.1269110217
H   H28       1.0  0.58070  0.02850  0.15540  1.0000 0.1269110217
H   H29       1.0  0.97150  0.41930  0.84460  1.0000 0.1269110217
H   H30       1.0  0.12690  0.97150  0.55220  1.0000 0.1269110217
H   H31       1.0  0.57470  0.12690  0.15540  1.0000 0.1269110217
H   H32       1.0  0.41930  0.57470  0.44780  1.0000 0.1269110217
H   H33       1.0  0.37460  0.22960  0.32540  1.0000 0.1398496804
H   H34       1.0  0.04920  0.37460  0.14500  1.0000 0.1398496804
H   H35       1.0  0.90420  0.04920  0.67460  1.0000 0.1398496804
H   H36       1.0  0.22960  0.90420  0.85500  1.0000 0.1398496804
H   H37       1.0  0.09580  0.77040  0.14500  1.0000 0.1398496804
H   H38       1.0  0.95080  0.09580  0.32540  1.0000 0.1398496804
H   H39       1.0  0.62540  0.95080  0.85500  1.0000 0.1398496804
H   H40       1.0  0.77040  0.62540  0.67460  1.0000 0.1398496804
H   H41       1.0  0.62540  0.77040  0.67460  1.0000 0.1398496804
H   H42       1.0  0.95080  0.62540  0.85500  1.0000 0.1398496804
H   H43       1.0  0.09580  0.95080  0.32540  1.0000 0.1398496804
H   H44       1.0  0.77040  0.09580  0.14500  1.0000 0.1398496804
H   H45       1.0  0.90420  0.22960  0.85500  1.0000 0.1398496804
H   H46       1.0  0.04920  0.90420  0.67460  1.0000 0.1398496804
H   H47       1.0  0.37460  0.04920  0.14500  1.0000 0.1398496804
H   H48       1.0  0.22960  0.37460  0.32540  1.0000 0.1398496804
H   H49       1.0  0.65650  0.50490  0.28380  1.0000 0.1398496804
H   H50       1.0  0.37270  0.65650  0.15160  1.0000 0.1398496804
H   H51       1.0  0.22110  0.37270  0.71620  1.0000 0.1398496804
H   H52       1.0  0.50490  0.22110  0.84840  1.0000 0.1398496804
H   H53       1.0  0.77890  0.49510  0.15160  1.0000 0.1398496804
H   H54       1.0  0.62730  0.77890  0.28380  1.0000 0.1398496804
H   H55       1.0  0.34350  0.62730  0.84840  1.0000 0.1398496804
H   H56       1.0  0.49510  0.34350  0.71620  1.0000 0.1398496804
H   H57       1.0  0.34350  0.49510  0.71620  1.0000 0.1398496804
H   H58       1.0  0.62730  0.34350  0.84840  1.0000 0.1398496804
H   H59       1.0  0.77890  0.62730  0.28380  1.0000 0.1398496804
H   H60       1.0  0.49510  0.77890  0.15160  1.0000 0.1398496804
H   H61       1.0  0.22110  0.50490  0.84840  1.0000 0.1398496804
H   H62       1.0  0.37270  0.22110  0.71620  1.0000 0.1398496804
H   H63       1.0  0.65650  0.37270  0.15160  1.0000 0.1398496804
H   H64       1.0  0.50490  0.65650  0.28380  1.0000 0.1398496804
H   H65       1.0  0.46430  0.31790  0.14640  1.0000 0.1398496804
H   H66       1.0  0.31790  0.46430  0.14640  1.0000 0.1398496804
H   H67       1.0  0.17150  0.31790  0.85360  1.0000 0.1398496804
H   H68       1.0  0.31790  0.17150  0.85360  1.0000 0.1398496804
H   H69       1.0  0.82850  0.68210  0.14640  1.0000 0.1398496804
H   H70       1.0  0.68210  0.82850  0.14640  1.0000 0.1398496804
H   H71       1.0  0.53570  0.68210  0.85360  1.0000 0.1398496804
H   H72       1.0  0.68210  0.53570  0.85360  1.0000 0.1398496804
C   C1        1.0  0.43707  0.21793  0.38300  1.0000 -0.0088078689
C   C2        1.0  0.05407  0.43707  0.21914  1.0000 -0.0088078689
C   C3        1.0  0.83493  0.05407  0.61700  1.0000 -0.0088078689
C   C4        1.0  0.21793  0.83493  0.78086  1.0000 -0.0088078689
C   C5        1.0  0.16507  0.78207  0.21914  1.0000 -0.0088078689
C   C6        1.0  0.94593  0.16507  0.38300  1.0000 -0.0088078689
C   C7        1.0  0.56293  0.94593  0.78086  1.0000 -0.0088078689
C   C8        1.0  0.78207  0.56293  0.61700  1.0000 -0.0088078689
C   C9        1.0  0.56293  0.78207  0.61700  1.0000 -0.0088078689
C   C10       1.0  0.94593  0.56293  0.78086  1.0000 -0.0088078689
C   C11       1.0  0.16507  0.94593  0.38300  1.0000 -0.0088078689
C   C12       1.0  0.78207  0.16507  0.21914  1.0000 -0.0088078689
C   C13       1.0  0.83493  0.21793  0.78086  1.0000 -0.0088078689
C   C14       1.0  0.05407  0.83493  0.61700  1.0000 -0.0088078689
C   C15       1.0  0.43707  0.05407  0.21914  1.0000 -0.0088078689
C   C16       1.0  0.21793  0.43707  0.38300  1.0000 -0.0088078689
C   C17       1.0  0.50540  0.25358  0.42898  1.0000 -0.0968778823
C   C18       1.0  0.07642  0.50540  0.25182  1.0000 -0.0968778823
C   C19       1.0  0.82460  0.07642  0.57102  1.0000 -0.0968778823
C   C20       1.0  0.25358  0.82460  0.74818  1.0000 -0.0968778823
C   C21       1.0  0.17540  0.74642  0.25182  1.0000 -0.0968778823
C   C22       1.0  0.92358  0.17540  0.42898  1.0000 -0.0968778823
C   C23       1.0  0.49460  0.92358  0.74818  1.0000 -0.0968778823
C   C24       1.0  0.74642  0.49460  0.57102  1.0000 -0.0968778823
C   C25       1.0  0.49460  0.74642  0.57102  1.0000 -0.0968778823
C   C26       1.0  0.92358  0.49460  0.74818  1.0000 -0.0968778823
C   C27       1.0  0.17540  0.92358  0.42898  1.0000 -0.0968778823
C   C28       1.0  0.74642  0.17540  0.25182  1.0000 -0.0968778823
C   C29       1.0  0.82460  0.25358  0.74818  1.0000 -0.0968778823
C   C30       1.0  0.07642  0.82460  0.57102  1.0000 -0.0968778823
C   C31       1.0  0.50540  0.07642  0.25182  1.0000 -0.0968778823
C   C32       1.0  0.25358  0.50540  0.42898  1.0000 -0.0968778823
C   C33       1.0  0.55686  0.32954  0.45300  1.0000 0.0035734663
C   C34       1.0  0.10386  0.55686  0.22732  1.0000 0.0035734663
C   C35       1.0  0.87654  0.10386  0.54700  1.0000 0.0035734663
C   C36       1.0  0.32954  0.87654  0.77268  1.0000 0.0035734663
C   C37       1.0  0.12346  0.67046  0.22732  1.0000 0.0035734663
C   C38       1.0  0.89614  0.12346  0.45300  1.0000 0.0035734663
C   C39       1.0  0.44314  0.89614  0.77268  1.0000 0.0035734663
C   C40       1.0  0.67046  0.44314  0.54700  1.0000 0.0035734663
C   C41       1.0  0.44314  0.67046  0.54700  1.0000 0.0035734663
C   C42       1.0  0.89614  0.44314  0.77268  1.0000 0.0035734663
C   C43       1.0  0.12346  0.89614  0.45300  1.0000 0.0035734663
C   C44       1.0  0.67046  0.12346  0.22732  1.0000 0.0035734663
C   C45       1.0  0.87654  0.32954  0.77268  1.0000 0.0035734663
C   C46       1.0  0.10386  0.87654  0.54700  1.0000 0.0035734663
C   C47       1.0  0.55686  0.10386  0.22732  1.0000 0.0035734663
C   C48       1.0  0.32954  0.55686  0.45300  1.0000 0.0035734663
C   C49       1.0  0.53998  0.36763  0.43061  1.0000 -0.1253917302
C   C50       1.0  0.10937  0.53998  0.17235  1.0000 -0.1253917302
C   C51       1.0  0.93702  0.10937  0.56939  1.0000 -0.1193388162
C   C52       1.0  0.36763  0.93702  0.82765  1.0000 -0.1253917302
C   C53       1.0  0.06298  0.63237  0.17235  1.0000 -0.1253917302
C   C54       1.0  0.89063  0.06298  0.43061  1.0000 -0.1193388162
C   C55       1.0  0.46002  0.89063  0.82765  1.0000 -0.1253917302
C   C56       1.0  0.63237  0.46002  0.56939  1.0000 -0.1253917302
C   C57       1.0  0.46002  0.63237  0.56939  1.0000 -0.1193388162
C   C58       1.0  0.89063  0.46002  0.82765  1.0000 -0.1193388162
C   C59       1.0  0.06298  0.89063  0.43061  1.0000 -0.1253917302
C   C60       1.0  0.63237  0.06298  0.17235  1.0000 -0.1193388162
C   C61       1.0  0.93702  0.36763  0.82765  1.0000 -0.1193388162
C   C62       1.0  0.10937  0.93702  0.56939  1.0000 -0.1253917302
C   C63       1.0  0.53998  0.10937  0.17235  1.0000 -0.1253917302
C   C64       1.0  0.36763  0.53998  0.43061  1.0000 -0.1253917302
C   C65       1.0  0.47157  0.33037  0.38234  1.0000 -0.0088078689
C   C66       1.0  0.08923  0.47157  0.14120  1.0000 -0.0088078689
C   C67       1.0  0.94803  0.08923  0.61766  1.0000 -0.0088078689
C   C68       1.0  0.33037  0.94803  0.85880  1.0000 -0.0088078689
C   C69       1.0  0.05197  0.66963  0.14120  1.0000 -0.0088078689
C   C70       1.0  0.91077  0.05197  0.38234  1.0000 -0.0088078689
C   C71       1.0  0.52843  0.91077  0.85880  1.0000 -0.0088078689
C   C72       1.0  0.66963  0.52843  0.61766  1.0000 -0.0088078689
C   C73       1.0  0.52843  0.66963  0.61766  1.0000 -0.0088078689
C   C74       1.0  0.91077  0.52843  0.85880  1.0000 -0.0088078689
C   C75       1.0  0.05197  0.91077  0.38234  1.0000 -0.0088078689
C   C76       1.0  0.66963  0.05197  0.14120  1.0000 -0.0088078689
C   C77       1.0  0.94803  0.33037  0.85880  1.0000 -0.0088078689
C   C78       1.0  0.08923  0.94803  0.61766  1.0000 -0.0088078689
C   C79       1.0  0.47157  0.08923  0.14120  1.0000 -0.0088078689
C   C80       1.0  0.33037  0.47157  0.38234  1.0000 -0.0088078689
C   C81       1.0  0.42057  0.25528  0.35845  1.0000 -0.0918366752
C   C82       1.0  0.06212  0.42057  0.16529  1.0000 -0.0918366752
C   C83       1.0  0.89683  0.06212  0.64155  1.0000 -0.0918366752
C   C84       1.0  0.25528  0.89683  0.83471  1.0000 -0.0918366752
C   C85       1.0  0.10317  0.74472  0.16529  1.0000 -0.0918366752
C   C86       1.0  0.93788  0.10317  0.35845  1.0000 -0.0918366752
C   C87       1.0  0.57943  0.93788  0.83471  1.0000 -0.0918366752
C   C88       1.0  0.74472  0.57943  0.64155  1.0000 -0.0918366752
C   C89       1.0  0.57943  0.74472  0.64155  1.0000 -0.0918366752
C   C90       1.0  0.93788  0.57943  0.83471  1.0000 -0.0918366752
C   C91       1.0  0.10317  0.93788  0.35845  1.0000 -0.0918366752
C   C92       1.0  0.74472  0.10317  0.16529  1.0000 -0.0918366752
C   C93       1.0  0.89683  0.25528  0.83471  1.0000 -0.0918366752
C   C94       1.0  0.06212  0.89683  0.64155  1.0000 -0.0918366752
C   C95       1.0  0.42057  0.06212  0.16529  1.0000 -0.0918366752
C   C96       1.0  0.25528  0.42057  0.35845  1.0000 -0.0918366752
C   C97       1.0  0.38246  0.13458  0.35498  1.0000 0.5824941945
C   C98       1.0  0.02748  0.38246  0.24788  1.0000 0.5824941945
C   C99       1.0  0.77960  0.02748  0.64502  1.0000 0.5824941945
C   C100      1.0  0.13458  0.77960  0.75212  1.0000 0.5824941945
C   C101      1.0  0.22040  0.86542  0.24788  1.0000 0.5824941945
C   C102      1.0  0.97252  0.22040  0.35498  1.0000 0.5824941945
C   C103      1.0  0.61754  0.97252  0.75212  1.0000 0.5824941945
C   C104      1.0  0.86542  0.61754  0.64502  1.0000 0.5824941945
C   C105      1.0  0.61754  0.86542  0.64502  1.0000 0.5824941945
C   C106      1.0  0.97252  0.61754  0.75212  1.0000 0.5824941945
C   C107      1.0  0.22040  0.97252  0.35498  1.0000 0.5824941945
C   C108      1.0  0.86542  0.22040  0.24788  1.0000 0.5824941945
C   C109      1.0  0.77960  0.13458  0.75212  1.0000 0.5824941945
C   C110      1.0  0.02748  0.77960  0.64502  1.0000 0.5824941945
C   C111      1.0  0.38246  0.02748  0.24788  1.0000 0.5824941945
C   C112      1.0  0.13458  0.38246  0.35498  1.0000 0.5824941945
C   C113      1.0  0.63190  0.36810  0.50000  1.0000 0.3685431098
C   C114      1.0  0.13190  0.63190  0.26380  1.0000 0.3685431098
C   C115      1.0  0.86810  0.13190  0.50000  1.0000 0.3685431098
C   C116      1.0  0.36810  0.86810  0.73620  1.0000 0.3685431098
C   C117      1.0  0.36810  0.63190  0.50000  1.0000 0.3685431098
C   C118      1.0  0.86810  0.36810  0.73620  1.0000 0.3685431098
C   C119      1.0  0.13190  0.86810  0.50000  1.0000 0.3685431098
C   C120      1.0  0.63190  0.13190  0.26380  1.0000 0.3685431098
C   C121      1.0  0.45854  0.37260  0.35434  1.0000 0.5824941945
C   C122      1.0  0.10420  0.45854  0.08594  1.0000 0.5824941945
C   C123      1.0  0.01826  0.10420  0.64566  1.0000 0.5824941945
C   C124      1.0  0.37260  0.01826  0.91406  1.0000 0.5824941945
C   C125      1.0  0.98174  0.62740  0.08594  1.0000 0.5824941945
C   C126      1.0  0.89580  0.98174  0.35434  1.0000 0.5824941945
C   C127      1.0  0.54146  0.89580  0.91406  1.0000 0.5824941945
C   C128      1.0  0.62740  0.54146  0.64566  1.0000 0.5824941945
C   C129      1.0  0.54146  0.62740  0.64566  1.0000 0.5824941945
C   C130      1.0  0.89580  0.54146  0.91406  1.0000 0.5824941945
C   C131      1.0  0.98174  0.89580  0.35434  1.0000 0.5824941945
C   C132      1.0  0.62740  0.98174  0.08594  1.0000 0.5824941945
C   C133      1.0  0.01826  0.37260  0.91406  1.0000 0.5824941945
C   C134      1.0  0.10420  0.01826  0.64566  1.0000 0.5824941945
C   C135      1.0  0.45854  0.10420  0.08594  1.0000 0.5824941945
C   C136      1.0  0.37260  0.45854  0.35434  1.0000 0.5824941945
C   C137      1.0  0.55391  0.41363  0.21894  1.0000 -0.0044597953
C   C138      1.0  0.33497  0.55391  0.14028  1.0000 -0.0088078689
C   C139      1.0  0.19469  0.33497  0.78106  1.0000 -0.0044597953
C   C140      1.0  0.41363  0.19469  0.85972  1.0000 -0.0044597953
C   C141      1.0  0.80531  0.58637  0.14028  1.0000 -0.0088078689
C   C142      1.0  0.66503  0.80531  0.21894  1.0000 -0.0088078689
C   C143      1.0  0.44609  0.66503  0.85972  1.0000 -0.0088078689
C   C144      1.0  0.58637  0.44609  0.78106  1.0000 -0.0044597953
C   C145      1.0  0.44609  0.58637  0.78106  1.0000 -0.0044597953
C   C146      1.0  0.66503  0.44609  0.85972  1.0000 -0.0044597953
C   C147      1.0  0.80531  0.66503  0.21894  1.0000 -0.0044597953
C   C148      1.0  0.58637  0.80531  0.14028  1.0000 -0.0088078689
C   C149      1.0  0.19469  0.41363  0.85972  1.0000 -0.0044597953
C   C150      1.0  0.33497  0.19469  0.78106  1.0000 -0.0044597953
C   C151      1.0  0.55391  0.33497  0.14028  1.0000 -0.0088078689
C   C152      1.0  0.41363  0.55391  0.21894  1.0000 -0.0088078689
C   C153      1.0  0.63058  0.46186  0.24724  1.0000 -0.1108506015
C   C154      1.0  0.38334  0.63058  0.16872  1.0000 -0.1108506015
C   C155      1.0  0.21462  0.38334  0.75276  1.0000 -0.1108506015
C   C156      1.0  0.46186  0.21462  0.83128  1.0000 -0.1108506015
C   C157      1.0  0.78538  0.53814  0.16872  1.0000 -0.1108506015
C   C158      1.0  0.61666  0.78538  0.24724  1.0000 -0.1108506015
C   C159      1.0  0.36942  0.61666  0.83128  1.0000 -0.1108506015
C   C160      1.0  0.53814  0.36942  0.75276  1.0000 -0.1108506015
C   C161      1.0  0.36942  0.53814  0.75276  1.0000 -0.1108506015
C   C162      1.0  0.61666  0.36942  0.83128  1.0000 -0.1108506015
C   C163      1.0  0.78538  0.61666  0.24724  1.0000 -0.1108506015
C   C164      1.0  0.53814  0.78538  0.16872  1.0000 -0.1108506015
C   C165      1.0  0.21462  0.46186  0.83128  1.0000 -0.1108506015
C   C166      1.0  0.38334  0.21462  0.75276  1.0000 -0.1108506015
C   C167      1.0  0.63058  0.38334  0.16872  1.0000 -0.1108506015
C   C168      1.0  0.46186  0.63058  0.24724  1.0000 -0.1108506015
C   C169      1.0  0.66840  0.44660  0.22180  1.0000 0.0444896435
C   C170      1.0  0.44660  0.66840  0.22180  1.0000 0.0444896435
C   C171      1.0  0.22480  0.44660  0.77820  1.0000 0.0444896435
C   C172      1.0  0.44660  0.22480  0.77820  1.0000 0.0444896435
C   C173      1.0  0.77520  0.55340  0.22180  1.0000 0.0444896435
C   C174      1.0  0.55340  0.77520  0.22180  1.0000 0.0444896435
C   C175      1.0  0.33160  0.55340  0.77820  1.0000 0.0444896435
C   C176      1.0  0.55340  0.33160  0.77820  1.0000 0.0444896435
C   C177      1.0  0.51590  0.35040  0.16550  1.0000 -0.1193388162
C   C178      1.0  0.35040  0.51590  0.16550  1.0000 -0.1193388162
C   C179      1.0  0.18490  0.35040  0.83450  1.0000 -0.1193388162
C   C180      1.0  0.35040  0.18490  0.83450  1.0000 -0.1193388162
C   C181      1.0  0.81510  0.64960  0.16550  1.0000 -0.1193388162
C   C182      1.0  0.64960  0.81510  0.16550  1.0000 -0.1193388162
C   C183      1.0  0.48410  0.64960  0.83450  1.0000 -0.1193388162
C   C184      1.0  0.64960  0.48410  0.83450  1.0000 -0.1193388162
C   C185      1.0  0.51280  0.42771  0.24831  1.0000 0.5824941945
C   C186      1.0  0.26449  0.51280  0.08509  1.0000 0.5824941945
C   C187      1.0  0.17940  0.26449  0.75169  1.0000 0.5824941945
C   C188      1.0  0.42771  0.17940  0.91491  1.0000 0.5824941945
C   C189      1.0  0.82060  0.57229  0.08509  1.0000 0.5824941945
C   C190      1.0  0.73551  0.82060  0.24831  1.0000 0.5824941945
C   C191      1.0  0.48720  0.73551  0.91491  1.0000 0.5824941945
C   C192      1.0  0.57229  0.48720  0.75169  1.0000 0.5824941945
C   C193      1.0  0.48720  0.57229  0.75169  1.0000 0.5824941945
C   C194      1.0  0.73551  0.48720  0.91491  1.0000 0.5824941945
C   C195      1.0  0.82060  0.73551  0.24831  1.0000 0.5824941945
C   C196      1.0  0.57229  0.82060  0.08509  1.0000 0.5824941945
C   C197      1.0  0.17940  0.42771  0.91491  1.0000 0.5824941945
C   C198      1.0  0.26449  0.17940  0.75169  1.0000 0.5824941945
C   C199      1.0  0.51280  0.26449  0.08509  1.0000 0.5824941945
C   C200      1.0  0.42771  0.51280  0.24831  1.0000 0.5824941945
C   C201      1.0  0.75240  0.50000  0.25240  1.0000 0.5082398047
C   C202      1.0  0.50000  0.75240  0.25240  1.0000 0.5082398047
C   C203      1.0  0.24760  0.50000  0.74760  1.0000 0.5003992607
C   C204      1.0  0.50000  0.24760  0.74760  1.0000 0.5003992607
O   O1        1.0  0.39863  0.10467  0.38192  1.0000 -0.5101789368
O   O2        1.0  0.01671  0.39863  0.29396  1.0000 -0.5186117926
O   O3        1.0  0.72275  0.01671  0.61808  1.0000 -0.5186117926
O   O4        1.0  0.10467  0.72275  0.70604  1.0000 -0.5186117926
O   O5        1.0  0.27725  0.89533  0.29396  1.0000 -0.5186117926
O   O6        1.0  0.98329  0.27725  0.38192  1.0000 -0.5186117926
O   O7        1.0  0.60137  0.98329  0.70604  1.0000 -0.5186117926
O   O8        1.0  0.89533  0.60137  0.61808  1.0000 -0.5186117926
O   O9        1.0  0.60137  0.89533  0.61808  1.0000 -0.5186117926
O   O10       1.0  0.98329  0.60137  0.70604  1.0000 -0.5186117926
O   O11       1.0  0.27725  0.98329  0.38192  1.0000 -0.5186117926
O   O12       1.0  0.89533  0.27725  0.29396  1.0000 -0.5186117926
O   O13       1.0  0.72275  0.10467  0.70604  1.0000 -0.5186117926
O   O14       1.0  0.01671  0.72275  0.61808  1.0000 -0.5186117926
O   O15       1.0  0.39863  0.01671  0.29396  1.0000 -0.5186117926
O   O16       1.0  0.10467  0.39863  0.38192  1.0000 -0.5186117926
O   O17       1.0  0.32603  0.10479  0.30928  1.0000 -0.5101789368
O   O18       1.0  0.01675  0.32603  0.22124  1.0000 -0.5101789368
O   O19       1.0  0.79551  0.01675  0.69072  1.0000 -0.5101789368
O   O20       1.0  0.10479  0.79551  0.77876  1.0000 -0.5101789368
O   O21       1.0  0.20449  0.89521  0.22124  1.0000 -0.5101789368
O   O22       1.0  0.98325  0.20449  0.30928  1.0000 -0.5101789368
O   O23       1.0  0.67397  0.98325  0.77876  1.0000 -0.5101789368
O   O24       1.0  0.89521  0.67397  0.69072  1.0000 -0.5101789368
O   O25       1.0  0.67397  0.89521  0.69072  1.0000 -0.5101789368
O   O26       1.0  0.98325  0.67397  0.77876  1.0000 -0.5101789368
O   O27       1.0  0.20449  0.98325  0.30928  1.0000 -0.5101789368
O   O28       1.0  0.89521  0.20449  0.22124  1.0000 -0.5101789368
O   O29       1.0  0.79551  0.10479  0.77876  1.0000 -0.5101789368
O   O30       1.0  0.01675  0.79551  0.69072  1.0000 -0.5101789368
O   O31       1.0  0.32603  0.01675  0.22124  1.0000 -0.5101789368
O   O32       1.0  0.10479  0.32603  0.30928  1.0000 -0.5101789368
O   O33       1.0  0.65993  0.34007  0.50000  1.0000 -0.3868039782
O   O34       1.0  0.15993  0.65993  0.31986  1.0000 -0.3868039782
O   O35       1.0  0.84007  0.15993  0.50000  1.0000 -0.3868039782
O   O36       1.0  0.34007  0.84007  0.68014  1.0000 -0.3868039782
O   O37       1.0  0.34007  0.65993  0.50000  1.0000 -0.3868039782
O   O38       1.0  0.84007  0.34007  0.68014  1.0000 -0.3868039782
O   O39       1.0  0.15993  0.84007  0.50000  1.0000 -0.3868039782
O   O40       1.0  0.65993  0.15993  0.31986  1.0000 -0.3868039782
O   O41       1.0  0.50492  0.44032  0.38038  1.0000 -0.5101789368
O   O42       1.0  0.12454  0.50492  0.06460  1.0000 -0.5101789368
O   O43       1.0  0.05994  0.12454  0.61962  1.0000 -0.5101789368
O   O44       1.0  0.44032  0.05994  0.93540  1.0000 -0.5101789368
O   O45       1.0  0.94006  0.55968  0.06460  1.0000 -0.5101789368
O   O46       1.0  0.87546  0.94006  0.38038  1.0000 -0.5101789368
O   O47       1.0  0.49508  0.87546  0.93540  1.0000 -0.5101789368
O   O48       1.0  0.55968  0.49508  0.61962  1.0000 -0.5101789368
O   O49       1.0  0.49508  0.55968  0.61962  1.0000 -0.5101789368
O   O50       1.0  0.87546  0.49508  0.93540  1.0000 -0.5101789368
O   O51       1.0  0.94006  0.87546  0.38038  1.0000 -0.5101789368
O   O52       1.0  0.55968  0.94006  0.06460  1.0000 -0.5101789368
O   O53       1.0  0.05994  0.44032  0.93540  1.0000 -0.5101789368
O   O54       1.0  0.12454  0.05994  0.61962  1.0000 -0.5101789368
O   O55       1.0  0.50492  0.12454  0.06460  1.0000 -0.5101789368
O   O56       1.0  0.44032  0.50492  0.38038  1.0000 -0.5101789368
O   O57       1.0  0.39886  0.33488  0.30670  1.0000 -0.5186117926
O   O58       1.0  0.09216  0.39886  0.06398  1.0000 -0.5186117926
O   O59       1.0  0.02818  0.09216  0.69330  1.0000 -0.5186117926
O   O60       1.0  0.33488  0.02818  0.93602  1.0000 -0.5186117926
O   O61       1.0  0.97182  0.66512  0.06398  1.0000 -0.5186117926
O   O62       1.0  0.90784  0.97182  0.30670  1.0000 -0.5186117926
O   O63       1.0  0.60114  0.90784  0.93602  1.0000 -0.5186117926
O   O64       1.0  0.66512  0.60114  0.69330  1.0000 -0.5186117926
O   O65       1.0  0.60114  0.66512  0.69330  1.0000 -0.5186117926
O   O66       1.0  0.90784  0.60114  0.93602  1.0000 -0.5186117926
O   O67       1.0  0.97182  0.90784  0.30670  1.0000 -0.5186117926
O   O68       1.0  0.66512  0.97182  0.06398  1.0000 -0.5186117926
O   O69       1.0  0.02818  0.33488  0.93602  1.0000 -0.5186117926
O   O70       1.0  0.09216  0.02818  0.69330  1.0000 -0.5186117926
O   O71       1.0  0.39886  0.09216  0.06398  1.0000 -0.5186117926
O   O72       1.0  0.33488  0.39886  0.30670  1.0000 -0.5186117926
O   O73       1.0  0.54954  0.48509  0.29615  1.0000 -0.5045376511
O   O74       1.0  0.25339  0.54954  0.06445  1.0000 -0.5045376511
O   O75       1.0  0.18894  0.25339  0.70385  1.0000 -0.5045376511
O   O76       1.0  0.48509  0.18894  0.93555  1.0000 -0.5101789368
O   O77       1.0  0.81106  0.51491  0.06445  1.0000 -0.5045376511
O   O78       1.0  0.74661  0.81106  0.29615  1.0000 -0.5045376511
O   O79       1.0  0.45046  0.74661  0.93555  1.0000 -0.5101789368
O   O80       1.0  0.51491  0.45046  0.70385  1.0000 -0.5101789368
O   O81       1.0  0.45046  0.51491  0.70385  1.0000 -0.5045376511
O   O82       1.0  0.74661  0.45046  0.93555  1.0000 -0.5101789368
O   O83       1.0  0.81106  0.74661  0.29615  1.0000 -0.5045376511
O   O84       1.0  0.51491  0.81106  0.06445  1.0000 -0.5045376511
O   O85       1.0  0.18894  0.48509  0.93555  1.0000 -0.5101789368
O   O86       1.0  0.25339  0.18894  0.70385  1.0000 -0.5045376511
O   O87       1.0  0.54954  0.25339  0.06445  1.0000 -0.5045376511
O   O88       1.0  0.48509  0.54954  0.29615  1.0000 -0.5045376511
O   O89       1.0  0.44507  0.38110  0.22177  1.0000 -0.5101789368
O   O90       1.0  0.22330  0.44507  0.06397  1.0000 -0.5101789368
O   O91       1.0  0.15933  0.22330  0.77823  1.0000 -0.5101789368
O   O92       1.0  0.38110  0.15933  0.93603  1.0000 -0.5101789368
O   O93       1.0  0.84067  0.61890  0.06397  1.0000 -0.5101789368
O   O94       1.0  0.77670  0.84067  0.22177  1.0000 -0.5101789368
O   O95       1.0  0.55493  0.77670  0.93603  1.0000 -0.5101789368
O   O96       1.0  0.61890  0.55493  0.77823  1.0000 -0.5101789368
O   O97       1.0  0.55493  0.61890  0.77823  1.0000 -0.5101789368
O   O98       1.0  0.77670  0.55493  0.93603  1.0000 -0.5101789368
O   O99       1.0  0.84067  0.77670  0.22177  1.0000 -0.5101789368
O   O100      1.0  0.61890  0.84067  0.06397  1.0000 -0.5101789368
O   O101      1.0  0.15933  0.38110  0.93603  1.0000 -0.5101789368
O   O102      1.0  0.22330  0.15933  0.77823  1.0000 -0.5101789368
O   O103      1.0  0.44507  0.22330  0.06397  1.0000 -0.5101789368
O   O104      1.0  0.38110  0.44507  0.22177  1.0000 -0.5101789368
O   O105      1.0  0.77740  0.53760  0.31500  1.0000 -0.4400758269
O   O106      1.0  0.46240  0.77740  0.23980  1.0000 -0.4400758269
O   O107      1.0  0.22260  0.46240  0.68500  1.0000 -0.4400758269
O   O108      1.0  0.53760  0.22260  0.76020  1.0000 -0.4400758269
O   O109      1.0  0.77740  0.46240  0.23980  1.0000 -0.4400758269
O   O110      1.0  0.53760  0.77740  0.31500  1.0000 -0.4400758269
O   O111      1.0  0.22260  0.53760  0.76020  1.0000 -0.4400758269
O   O112      1.0  0.46240  0.22260  0.68500  1.0000 -0.4400758269
