# DDEC6 charges by PACMAN v1.1 (https://github.com/mtap-research/PACMAN-charge/)
data_2017[Tb][nan]3[ASR]4
_chemical_formula_sum              "Tb4 H48 C52 O34"
_cell_length_a       11.855
_cell_length_b       12.414
_cell_length_c       12.473
_cell_angle_alpha    90
_cell_angle_beta     99.01
_cell_angle_gamma    90

_symmetry_space_group_name_H-M    "P 1"
_symmetry_Int_Tables_number       1

loop_
  _symmetry_equiv_pos_as_xyz
  'x, y, z'

loop_
  _atom_site_type_symbol
  _atom_site_label
  _atom_site_symmetry_multiplicity
  _atom_site_fract_x
  _atom_site_fract_y
  _atom_site_fract_z
  _atom_site_occupancy
  _atom_site_charge
Tb  Tb1       1.0  0.62638  0.55460  0.86973  1.0000 2.0524281552
Tb  Tb2       1.0  0.37362  0.05460  0.13027  1.0000 2.0524281552
Tb  Tb3       1.0  0.35831  0.77035  0.81307  1.0000 2.0691682389
Tb  Tb4       1.0  0.64169  0.27035  0.18693  1.0000 2.0691682389
H   H1        1.0  0.67310  0.59750  0.51920  1.0000 0.1565031214
H   H2        1.0  0.32690  0.09750  0.48080  1.0000 0.1565031214
H   H3        1.0  0.52020  0.66990  0.21620  1.0000 0.133128821
H   H4        1.0  0.47980  0.16990  0.78380  1.0000 0.133128821
H   H5        1.0  0.35490  0.72170  0.46860  1.0000 0.1488166017
H   H6        1.0  0.64510  0.22170  0.53140  1.0000 0.1488166017
H   H7        1.0  0.69830  0.69280  0.19870  1.0000 0.1001304714
H   H8        1.0  0.30170  0.19280  0.80130  1.0000 0.1001304714
H   H9        1.0  0.89090  0.65390  0.25490  1.0000 0.1401197892
H   H10       1.0  0.10910  0.15390  0.74510  1.0000 0.1401197892
H   H11       1.0  0.86900  0.53280  0.22250  1.0000 0.1401197892
H   H12       1.0  0.13100  0.03280  0.77750  1.0000 0.1401197892
H   H13       1.0  0.85550  0.62220  0.13260  1.0000 0.1565031214
H   H14       1.0  0.14450  0.12220  0.86740  1.0000 0.1565031214
H   H15       1.0  0.34050  0.63390  0.14570  1.0000 0.0889808378
H   H16       1.0  0.65950  0.13390  0.85430  1.0000 0.0889808378
H   H17       1.0  0.14560  0.64890  0.15620  1.0000 0.1401197892
H   H18       1.0  0.85440  0.14890  0.84380  1.0000 0.1401197892
H   H19       1.0  0.14760  0.77090  0.12430  1.0000 0.1401197892
H   H20       1.0  0.85240  0.27090  0.87570  1.0000 0.1401197892
H   H21       1.0  0.16710  0.68210  0.03980  1.0000 0.1488166017
H   H22       1.0  0.83290  0.18210  0.96020  1.0000 0.1488166017
H   H23       1.0  0.00040  0.46610  0.07220  1.0000 0.1401197892
H   H24       1.0  0.99960  0.96610  0.92780  1.0000 0.1401197892
H   H25       1.0  0.28630  0.39380  0.95300  1.0000 0.1488166017
H   H26       1.0  0.71370  0.89380  0.04700  1.0000 0.1488166017
H   H27       1.0  0.99010  0.43660  0.74950  1.0000 0.1488166017
H   H28       1.0  0.00990  0.93660  0.25050  1.0000 0.1488166017
H   H29       1.0  0.36330  0.37950  0.79860  1.0000 0.1001304714
H   H30       1.0  0.63670  0.87950  0.20140  1.0000 0.1001304714
H   H31       1.0  0.31950  0.34770  0.60740  1.0000 0.1401197892
H   H32       1.0  0.68050  0.84770  0.39260  1.0000 0.1401197892
H   H33       1.0  0.29480  0.47100  0.59010  1.0000 0.1488166017
H   H34       1.0  0.70520  0.97100  0.40990  1.0000 0.1488166017
H   H35       1.0  0.41870  0.43140  0.63540  1.0000 0.1488166017
H   H36       1.0  0.58130  0.93140  0.36460  1.0000 0.1488166017
H   H37       1.0  0.36770  0.44750  0.12740  1.0000 0.1001304714
H   H38       1.0  0.63230  0.94750  0.87260  1.0000 0.1001304714
H   H39       1.0  0.34100  0.48700  0.30530  1.0000 0.1401197892
H   H40       1.0  0.65900  0.98700  0.69470  1.0000 0.1401197892
H   H41       1.0  0.29860  0.36920  0.32100  1.0000 0.1488166017
H   H42       1.0  0.70140  0.86920  0.67900  1.0000 0.1488166017
H   H43       1.0  0.42660  0.39020  0.30960  1.0000 0.1401197892
H   H44       1.0  0.57340  0.89020  0.69040  1.0000 0.1401197892
H   H45       1.0  0.22850  0.88850  0.68640  1.0000 0.3167184433
H   H46       1.0  0.77150  0.38850  0.31360  1.0000 0.3167184433
H   H47       1.0  0.19540  0.83630  0.58810  1.0000 0.3951793602
H   H48       1.0  0.80460  0.33630  0.41190  1.0000 0.3937641671
C   C1        1.0  0.51490  0.66050  0.51200  1.0000 0.0091415374
C   C2        1.0  0.48510  0.16050  0.48800  1.0000 0.0091415374
C   C3        1.0  0.61080  0.62460  0.47250  1.0000 -0.2472868124
C   C4        1.0  0.38920  0.12460  0.52750  1.0000 -0.2472868124
C   C5        1.0  0.61190  0.63010  0.36080  1.0000 0.2662637523
C   C6        1.0  0.38810  0.13010  0.63920  1.0000 0.2662637523
C   C7        1.0  0.51800  0.66630  0.29040  1.0000 -0.3523165742
C   C8        1.0  0.48200  0.16630  0.70960  1.0000 -0.3523165742
C   C9        1.0  0.42030  0.69710  0.33080  1.0000 0.277817919
C   C10       1.0  0.57970  0.19710  0.66920  1.0000 0.277817919
C   C11       1.0  0.41890  0.69730  0.44130  1.0000 -0.2472868124
C   C12       1.0  0.58110  0.19730  0.55870  1.0000 -0.2472868124
C   C13       1.0  0.51120  0.65840  0.63100  1.0000 0.6437669686
C   C14       1.0  0.48880  0.15840  0.36900  1.0000 0.6437669686
C   C15       1.0  0.72140  0.61840  0.21690  1.0000 0.0629483974
C   C16       1.0  0.27860  0.11840  0.78310  1.0000 0.0629483974
C   C17       1.0  0.64380  0.54210  0.14120  1.0000 0.6297709039
C   C18       1.0  0.35620  0.04210  0.85880  1.0000 0.6297709039
C   C19       1.0  0.84550  0.60570  0.20570  1.0000 -0.451959442
C   C20       1.0  0.15450  0.10570  0.79430  1.0000 -0.451959442
C   C21       1.0  0.30840  0.70530  0.15560  1.0000 0.0725136093
C   C22       1.0  0.69160  0.20530  0.84440  1.0000 0.0725136093
C   C23       1.0  0.36830  0.78760  0.09210  1.0000 0.6437669686
C   C24       1.0  0.63170  0.28760  0.90790  1.0000 0.6437669686
C   C25       1.0  0.18030  0.70140  0.11520  1.0000 -0.4431536057
C   C26       1.0  0.81970  0.20140  0.88480  1.0000 -0.4431536057
C   C27       1.0  0.97710  0.45460  0.90850  1.0000 0.028174446
C   C28       1.0  0.02290  0.95460  0.09150  1.0000 0.028174446
C   C29       1.0  0.03730  0.45200  0.01320  1.0000 -0.231438958
C   C30       1.0  0.96270  0.95200  0.98680  1.0000 -0.231438958
C   C31       1.0  0.15280  0.42800  0.02900  1.0000 0.2662637523
C   C32       1.0  0.84720  0.92800  0.97100  1.0000 0.2662637523
C   C33       1.0  0.20850  0.40880  0.94180  1.0000 -0.3523165742
C   C34       1.0  0.79150  0.90880  0.05820  1.0000 -0.3523165742
C   C35       1.0  0.14750  0.41220  0.83650  1.0000 0.277817919
C   C36       1.0  0.85250  0.91220  0.16350  1.0000 0.277817919
C   C37       1.0  0.03110  0.43480  0.81950  1.0000 -0.2378025064
C   C38       1.0  0.96890  0.93480  0.18050  1.0000 -0.2378025064
C   C39       1.0  0.85130  0.48080  0.89150  1.0000 0.554583936
C   C40       1.0  0.14870  0.98080  0.10850  1.0000 0.554583936
C   C41       1.0  0.31250  0.42710  0.75030  1.0000 0.0783029786
C   C42       1.0  0.68750  0.92710  0.24970  1.0000 0.0783029786
C   C43       1.0  0.32750  0.54280  0.78980  1.0000 0.5868054322
C   C44       1.0  0.67250  0.04280  0.21020  1.0000 0.5868054322
C   C45       1.0  0.33880  0.41850  0.63520  1.0000 -0.451959442
C   C46       1.0  0.66120  0.91850  0.36480  1.0000 -0.451959442
C   C47       1.0  0.31970  0.39990  0.16380  1.0000 0.0725136093
C   C48       1.0  0.68030  0.89990  0.83620  1.0000 0.0725136093
C   C49       1.0  0.33910  0.28440  0.13520  1.0000 0.5868054322
C   C50       1.0  0.66090  0.78440  0.86480  1.0000 0.5868054322
C   C51       1.0  0.34920  0.41280  0.28620  1.0000 -0.451959442
C   C52       1.0  0.65080  0.91280  0.71380  1.0000 -0.451959442
O   O1        1.0  0.43540  0.71540  0.66370  1.0000 -0.6757970759
O   O2        1.0  0.56460  0.21540  0.33630  1.0000 -0.6757970759
O   O3        1.0  0.58270  0.60130  0.68930  1.0000 -0.6433495888
O   O4        1.0  0.41730  0.10130  0.31070  1.0000 -0.6433495888
O   O5        1.0  0.71220  0.59980  0.32710  1.0000 -0.2204830655
O   O6        1.0  0.28780  0.09980  0.67290  1.0000 -0.2204830655
O   O7        1.0  0.62020  0.45290  0.17340  1.0000 -0.6492894599
O   O8        1.0  0.37980  0.95290  0.82660  1.0000 -0.6492894599
O   O9        1.0  0.61020  0.57880  0.04610  1.0000 -0.6627878854
O   O10       1.0  0.38980  0.07880  0.95390  1.0000 -0.6627878854
O   O11       1.0  0.32110  0.72720  0.26730  1.0000 -0.1987532188
O   O12       1.0  0.67890  0.22720  0.73270  1.0000 -0.1987532188
O   O13       1.0  0.37360  0.76240  0.99660  1.0000 -0.6704834112
O   O14       1.0  0.62640  0.26240  0.00340  1.0000 -0.6704834112
O   O15       1.0  0.40820  0.87290  0.13900  1.0000 -0.6704834112
O   O16       1.0  0.59180  0.37290  0.86100  1.0000 -0.6704834112
O   O17       1.0  0.79970  0.50370  0.79940  1.0000 -0.6000512251
O   O18       1.0  0.20030  0.00370  0.20060  1.0000 -0.6000512251
O   O19       1.0  0.79990  0.47910  0.97350  1.0000 -0.6492894599
O   O20       1.0  0.20010  0.97910  0.02650  1.0000 -0.6492894599
O   O21       1.0  0.20330  0.42960  0.13610  1.0000 -0.1987532188
O   O22       1.0  0.79670  0.92960  0.86390  1.0000 -0.1987532188
O   O23       1.0  0.25850  0.21730  0.12290  1.0000 -0.5894958386
O   O24       1.0  0.74150  0.71730  0.87710  1.0000 -0.5894958386
O   O25       1.0  0.44060  0.25420  0.12820  1.0000 -0.7405506381
O   O26       1.0  0.55940  0.75420  0.87180  1.0000 -0.7405506381
O   O27       1.0  0.19620  0.39430  0.74700  1.0000 -0.1987532188
O   O28       1.0  0.80380  0.89430  0.25300  1.0000 -0.1987532188
O   O29       1.0  0.24990  0.61000  0.76700  1.0000 -0.5894958386
O   O30       1.0  0.75010  0.11000  0.23300  1.0000 -0.5894958386
O   O31       1.0  0.42360  0.56870  0.84490  1.0000 -0.7223786423
O   O32       1.0  0.57640  0.06870  0.15510  1.0000 -0.7223786423
O   O33       1.0  0.23640  0.83160  0.65030  1.0000 -0.7405506381
O   O34       1.0  0.76360  0.33160  0.34970  1.0000 -0.7405506381
