# DDEC6 charges by PACMAN v1.1 (https://github.com/mtap-research/PACMAN-charge/)
data_2017[La][nan]3[ASR]2
_chemical_formula_sum              "La4 H36 C30 O24"
_cell_length_a       9.076
_cell_length_b       9.867
_cell_length_c       16.303
_cell_angle_alpha    103.349
_cell_angle_beta     104.11
_cell_angle_gamma    98.526

_symmetry_space_group_name_H-M    "P 1"
_symmetry_Int_Tables_number       1

loop_
  _symmetry_equiv_pos_as_xyz
  'x, y, z'

loop_
  _atom_site_type_symbol
  _atom_site_label
  _atom_site_symmetry_multiplicity
  _atom_site_fract_x
  _atom_site_fract_y
  _atom_site_fract_z
  _atom_site_occupancy
  _atom_site_charge
La  La1       1.0  0.69213  0.45144  0.59811  1.0000 1.8315298628
La  La2       1.0  0.30787  0.54856  0.40189  1.0000 1.8361474346
La  La3       1.0  0.84842  0.42670  0.86433  1.0000 1.8722262453
La  La4       1.0  0.15158  0.57330  0.13567  1.0000 1.8722262453
H   H1        1.0  0.37740  0.02750  0.61690  1.0000 0.1394522223
H   H2        1.0  0.62260  0.97250  0.38310  1.0000 0.1394522223
H   H3        1.0  0.40950  0.06310  0.71930  1.0000 0.1293193664
H   H4        1.0  0.59050  0.93690  0.28070  1.0000 0.1293193664
H   H5        1.0  0.60930  0.93860  0.72960  1.0000 0.0990278978
H   H6        1.0  0.39070  0.06140  0.27040  1.0000 0.0990278978
H   H7        1.0  0.45430  0.83740  0.66490  1.0000 0.0811305452
H   H8        1.0  0.54570  0.16260  0.33510  1.0000 0.0811305452
H   H9        1.0  0.54590  0.89730  0.54630  1.0000 0.1230523558
H   H10       1.0  0.45410  0.10270  0.45370  1.0000 0.1230523558
H   H11       1.0  0.70870  0.96250  0.61680  1.0000 0.1475777622
H   H12       1.0  0.29130  0.03750  0.38320  1.0000 0.1475777622
H   H13       1.0  0.51250  0.14170  0.98650  1.0000 0.1230523558
H   H14       1.0  0.48750  0.85830  0.01350  1.0000 0.1230523558
H   H15       1.0  0.50050  0.05170  0.89170  1.0000 0.1293193664
H   H16       1.0  0.49950  0.94830  0.10830  1.0000 0.1293193664
H   H17       1.0  0.31140  0.18440  0.83690  1.0000 0.0905857045
H   H18       1.0  0.68860  0.81560  0.16310  1.0000 0.0905857045
H   H19       1.0  0.25350  0.07340  0.88350  1.0000 0.0905857045
H   H20       1.0  0.74650  0.92660  0.11650  1.0000 0.0905857045
H   H21       1.0  0.28740  0.24970  0.00990  1.0000 0.1293193664
H   H22       1.0  0.71260  0.75030  0.99010  1.0000 0.1293193664
H   H23       1.0  0.37260  0.36360  0.97470  1.0000 0.1394522223
H   H24       1.0  0.62740  0.63640  0.02530  1.0000 0.1394522223
H   H25       1.0  0.53390  0.75010  0.84040  1.0000 0.1293193664
H   H26       1.0  0.46610  0.24990  0.15960  1.0000 0.1293193664
H   H27       1.0  0.47950  0.60560  0.85950  1.0000 0.1293193664
H   H28       1.0  0.52050  0.39440  0.14050  1.0000 0.1293193664
H   H29       1.0  0.29530  0.69260  0.72280  1.0000 0.0990278978
H   H30       1.0  0.70470  0.30740  0.27720  1.0000 0.0990278978
H   H31       1.0  0.27250  0.72330  0.81730  1.0000 0.0811305452
H   H32       1.0  0.72750  0.27670  0.18270  1.0000 0.0811305452
H   H33       1.0  0.24220  0.44200  0.71290  1.0000 0.1475777622
H   H34       1.0  0.75780  0.55800  0.28710  1.0000 0.1475777622
H   H35       1.0  0.20110  0.48040  0.80210  1.0000 0.1230523558
H   H36       1.0  0.79890  0.51960  0.19790  1.0000 0.1230523558
C   C1        1.0  0.57180  0.18370  0.68330  1.0000 0.6487467062
C   C2        1.0  0.42820  0.81630  0.31670  1.0000 0.6487467062
C   C3        1.0  0.45830  0.04840  0.67220  1.0000 -0.3303496916
C   C4        1.0  0.54170  0.95160  0.32780  1.0000 -0.3303496916
C   C5        1.0  0.53340  0.92090  0.67280  1.0000 -0.1045185294
C   C6        1.0  0.46660  0.07910  0.32720  1.0000 -0.1045185294
C   C7        1.0  0.61300  0.89140  0.60100  1.0000 -0.3430547644
C   C8        1.0  0.38700  0.10860  0.39900  1.0000 -0.3430547644
C   C9        1.0  0.64860  0.74550  0.58880  1.0000 0.6487467062
C   C10       1.0  0.35140  0.25450  0.41120  1.0000 0.6487467062
C   C11       1.0  0.61770  0.25720  0.91980  1.0000 0.6108352612
C   C12       1.0  0.38230  0.74280  0.08020  1.0000 0.6108352612
C   C13       1.0  0.49250  0.14360  0.92560  1.0000 -0.3303496916
C   C14       1.0  0.50750  0.85640  0.07440  1.0000 -0.3303496916
C   C15       1.0  0.32570  0.16240  0.89290  1.0000 -0.0886591863
C   C16       1.0  0.67430  0.83760  0.10710  1.0000 -0.0886591863
C   C17       1.0  0.28890  0.28000  0.95750  1.0000 -0.3462303359
C   C18       1.0  0.71110  0.72000  0.04250  1.0000 -0.3462303359
C   C19       1.0  0.13850  0.32220  0.92490  1.0000 0.6424393724
C   C20       1.0  0.86150  0.67780  0.07510  1.0000 0.6424393724
C   C21       1.0  0.55000  0.57870  0.74890  1.0000 0.6487467062
C   C22       1.0  0.45000  0.42130  0.25110  1.0000 0.6487467062
C   C23       1.0  0.47420  0.65300  0.81330  1.0000 -0.3462303359
C   C24       1.0  0.52580  0.34700  0.18670  1.0000 -0.3462303359
C   C25       1.0  0.30510  0.65790  0.77450  1.0000 -0.0886591863
C   C26       1.0  0.69490  0.34210  0.22550  1.0000 -0.0886591863
C   C27       1.0  0.19980  0.50920  0.74900  1.0000 -0.3303496916
C   C28       1.0  0.80020  0.49080  0.25100  1.0000 -0.3303496916
C   C29       1.0  0.03420  0.50100  0.69980  1.0000 0.6487467062
C   C30       1.0  0.96580  0.49900  0.30020  1.0000 0.6487467062
O   O1        1.0  0.69810  0.21530  0.74280  1.0000 -0.6103759933
O   O2        1.0  0.30190  0.78470  0.25720  1.0000 -0.6103759933
O   O3        1.0  0.53320  0.25800  0.63250  1.0000 -0.6103759933
O   O4        1.0  0.46680  0.74200  0.36750  1.0000 -0.6103759933
O   O5        1.0  0.76210  0.72530  0.64299  1.0000 -0.5718764592
O   O6        1.0  0.23790  0.27470  0.35701  1.0000 -0.5718764592
O   O7        1.0  0.55950  0.64200  0.52672  1.0000 -0.6619725157
O   O8        1.0  0.44050  0.35800  0.47328  1.0000 -0.6619725157
O   O9        1.0  0.75840  0.24400  0.94335  1.0000 -0.6174436737
O   O10       1.0  0.24160  0.75600  0.05665  1.0000 -0.6174436737
O   O11       1.0  0.58330  0.35710  0.88980  1.0000 -0.586348765
O   O12       1.0  0.41670  0.64290  0.11020  1.0000 -0.586348765
O   O13       1.0  0.10820  0.42690  0.97591  1.0000 -0.6923337508
O   O14       1.0  0.89180  0.57310  0.02409  1.0000 -0.6923337508
O   O15       1.0  0.04460  0.26080  0.85126  1.0000 -0.5467202593
O   O16       1.0  0.95540  0.73920  0.14874  1.0000 -0.5467202593
O   O17       1.0  0.68180  0.55210  0.77780  1.0000 -0.6732070972
O   O18       1.0  0.31820  0.44790  0.22220  1.0000 -0.6732070972
O   O19       1.0  0.48600  0.54710  0.66773  1.0000 -0.5571194221
O   O20       1.0  0.51400  0.45290  0.33227  1.0000 -0.5571194221
O   O21       1.0  0.92420  0.44450  0.72570  1.0000 -0.6923337508
O   O22       1.0  0.07580  0.55550  0.27430  1.0000 -0.6923337508
O   O23       1.0  0.00210  0.54170  0.63185  1.0000 -0.5571194221
O   O24       1.0  0.99790  0.45830  0.36815  1.0000 -0.5571194221
