# DDEC6 charges by PACMAN v1.1 (https://github.com/mtap-research/PACMAN-charge/)
data_2017[Zn][ths]3[ASR]4
_chemical_formula_sum              "Zn12 H96 C144 I24 N48"
_cell_length_a       19.3023
_cell_length_b       19.3023
_cell_length_c       30.831
_cell_angle_alpha    79.2803
_cell_angle_beta     100.72
_cell_angle_gamma    134.644

_symmetry_space_group_name_H-M    "P 1"
_symmetry_Int_Tables_number       1

loop_
  _symmetry_equiv_pos_as_xyz
  'x, y, z'

loop_
  _atom_site_type_symbol
  _atom_site_label
  _atom_site_symmetry_multiplicity
  _atom_site_fract_x
  _atom_site_fract_y
  _atom_site_fract_z
  _atom_site_occupancy
  _atom_site_charge
Zn  Zn1       1.0  0.79623  0.95493  0.39951  1.0000 0.4525428464
Zn  Zn2       1.0  0.71985  0.47677  0.56717  1.0000 0.4601430794
Zn  Zn3       1.0  0.18510  0.53274  0.72101  1.0000 0.4344849711
Zn  Zn4       1.0  0.04507  0.20377  0.89951  1.0000 0.4525428464
Zn  Zn5       1.0  0.52323  0.28015  0.06717  1.0000 0.4601430794
Zn  Zn6       1.0  0.46726  0.81490  0.22101  1.0000 0.4358521625
Zn  Zn7       1.0  0.95493  0.79623  0.10049  1.0000 0.4525428464
Zn  Zn8       1.0  0.47677  0.71985  0.93283  1.0000 0.4601430794
Zn  Zn9       1.0  0.53274  0.18510  0.77899  1.0000 0.4358521625
Zn  Zn10      1.0  0.20377  0.04507  0.60049  1.0000 0.4525428464
Zn  Zn11      1.0  0.28015  0.52323  0.43283  1.0000 0.4601430794
Zn  Zn12      1.0  0.81490  0.46726  0.27899  1.0000 0.4358521625
H   H1        1.0  0.88834  0.27628  0.77601  1.0000 0.1310528368
H   H2        1.0  0.39187  0.89249  0.67390  1.0000 0.1393283315
H   H3        1.0  0.13977  0.15719  0.47147  1.0000 0.1393283315
H   H4        1.0  0.53471  0.83077  0.75497  1.0000 0.1393283315
H   H5        1.0  0.55108  0.13498  0.62280  1.0000 0.1393283315
H   H6        1.0  0.25284  0.72722  0.67668  1.0000 0.1076100281
H   H7        1.0  0.00451  0.04251  0.42612  1.0000 0.1076100281
H   H8        1.0  0.08873  0.36175  0.58530  1.0000 0.1310528368
H   H9        1.0  0.97112  0.16414  0.52593  1.0000 0.1393283315
H   H10       1.0  0.79495  0.33639  0.69907  1.0000 0.1220076506
H   H11       1.0  0.44210  0.38862  0.62535  1.0000 0.1393283315
H   H12       1.0  0.40084  0.36176  0.49393  1.0000 0.1393283315
H   H13       1.0  0.54871  0.40607  0.49813  1.0000 0.1076100281
H   H14       1.0  0.32788  0.44064  0.65894  1.0000 0.1393283315
H   H15       1.0  0.08133  0.43383  0.63464  1.0000 0.1017457428
H   H16       1.0  0.84227  0.05247  0.47838  1.0000 0.1076100281
H   H17       1.0  0.39280  0.66706  0.75381  1.0000 0.1017457428
H   H18       1.0  0.81502  0.45708  0.65180  1.0000 0.1017457428
H   H19       1.0  0.30842  0.50190  0.70755  1.0000 0.1017457428
H   H20       1.0  0.00528  0.31002  0.83190  1.0000 0.1076100281
H   H21       1.0  0.71984  0.99092  0.81364  1.0000 0.1310528368
H   H22       1.0  0.58172  0.26154  0.57661  1.0000 0.1017457428
H   H23       1.0  0.83950  0.03104  0.86887  1.0000 0.1017457428
H   H24       1.0  0.58885  0.43285  0.62598  1.0000 0.1076100281
H   H25       1.0  0.72372  0.11166  0.27601  1.0000 0.1310528368
H   H26       1.0  0.10751  0.60813  0.17390  1.0000 0.1393283315
H   H27       1.0  0.84281  0.86023  0.97147  1.0000 0.1393283315
H   H28       1.0  0.16923  0.46529  0.25497  1.0000 0.1393283315
H   H29       1.0  0.86502  0.44892  0.12280  1.0000 0.1393283315
H   H30       1.0  0.27278  0.74716  0.17668  1.0000 0.1076100281
H   H31       1.0  0.95749  0.99549  0.92612  1.0000 0.1076100281
H   H32       1.0  0.63825  0.91127  0.08530  1.0000 0.1310528368
H   H33       1.0  0.83586  0.02888  0.02593  1.0000 0.1393283315
H   H34       1.0  0.66361  0.20505  0.19907  1.0000 0.1220076506
H   H35       1.0  0.61138  0.55790  0.12535  1.0000 0.1393283315
H   H36       1.0  0.63824  0.59916  0.99393  1.0000 0.1393283315
H   H37       1.0  0.59393  0.45129  0.99813  1.0000 0.1076100281
H   H38       1.0  0.55936  0.67212  0.15894  1.0000 0.1393283315
H   H39       1.0  0.56617  0.91867  0.13464  1.0000 0.1017457428
H   H40       1.0  0.94753  0.15773  0.97838  1.0000 0.1076100281
H   H41       1.0  0.33294  0.60720  0.25381  1.0000 0.1017457428
H   H42       1.0  0.54292  0.18498  0.15180  1.0000 0.1017457428
H   H43       1.0  0.49810  0.69158  0.20755  1.0000 0.1017457428
H   H44       1.0  0.68998  0.99472  0.33190  1.0000 0.1076100281
H   H45       1.0  0.00908  0.28016  0.31364  1.0000 0.1310528368
H   H46       1.0  0.73846  0.41828  0.07661  1.0000 0.1076100281
H   H47       1.0  0.96896  0.16050  0.36887  1.0000 0.1017457428
H   H48       1.0  0.56715  0.41115  0.12598  1.0000 0.1076100281
H   H49       1.0  0.27628  0.88834  0.72399  1.0000 0.1310528368
H   H50       1.0  0.89249  0.39187  0.82610  1.0000 0.1393283315
H   H51       1.0  0.15719  0.13977  0.02853  1.0000 0.1393283315
H   H52       1.0  0.83077  0.53471  0.74503  1.0000 0.1393283315
H   H53       1.0  0.13498  0.55108  0.87720  1.0000 0.1393283315
H   H54       1.0  0.72722  0.25284  0.82332  1.0000 0.1076100281
H   H55       1.0  0.04251  0.00451  0.07388  1.0000 0.1076100281
H   H56       1.0  0.36175  0.08873  0.91470  1.0000 0.1310528368
H   H57       1.0  0.16414  0.97112  0.97407  1.0000 0.1393283315
H   H58       1.0  0.33639  0.79495  0.80093  1.0000 0.1220076506
H   H59       1.0  0.38862  0.44210  0.87465  1.0000 0.1393283315
H   H60       1.0  0.36176  0.40084  0.00607  1.0000 0.1393283315
H   H61       1.0  0.40607  0.54871  0.00187  1.0000 0.1076100281
H   H62       1.0  0.44064  0.32788  0.84106  1.0000 0.1393283315
H   H63       1.0  0.43383  0.08133  0.86536  1.0000 0.1076100281
H   H64       1.0  0.05247  0.84227  0.02162  1.0000 0.1076100281
H   H65       1.0  0.66706  0.39280  0.74619  1.0000 0.1017457428
H   H66       1.0  0.45708  0.81502  0.84820  1.0000 0.1017457428
H   H67       1.0  0.50190  0.30842  0.79245  1.0000 0.1017457428
H   H68       1.0  0.31002  0.00528  0.66810  1.0000 0.1076100281
H   H69       1.0  0.99092  0.71984  0.68636  1.0000 0.1310528368
H   H70       1.0  0.26154  0.58172  0.92339  1.0000 0.1017457428
H   H71       1.0  0.03104  0.83950  0.63113  1.0000 0.1017457428
H   H72       1.0  0.43285  0.58885  0.87402  1.0000 0.1076100281
H   H73       1.0  0.11166  0.72372  0.22399  1.0000 0.1310528368
H   H74       1.0  0.60813  0.10751  0.32610  1.0000 0.1393283315
H   H75       1.0  0.86023  0.84281  0.52853  1.0000 0.1393283315
H   H76       1.0  0.46529  0.16923  0.24503  1.0000 0.1393283315
H   H77       1.0  0.44892  0.86502  0.37720  1.0000 0.1393283315
H   H78       1.0  0.74716  0.27278  0.32332  1.0000 0.1076100281
H   H79       1.0  0.99549  0.95749  0.57388  1.0000 0.1076100281
H   H80       1.0  0.91127  0.63825  0.41470  1.0000 0.1310528368
H   H81       1.0  0.02888  0.83586  0.47407  1.0000 0.1393283315
H   H82       1.0  0.20505  0.66361  0.30093  1.0000 0.1220076506
H   H83       1.0  0.55790  0.61138  0.37465  1.0000 0.1393283315
H   H84       1.0  0.59916  0.63824  0.50607  1.0000 0.1393283315
H   H85       1.0  0.45129  0.59393  0.50187  1.0000 0.1076100281
H   H86       1.0  0.67212  0.55936  0.34106  1.0000 0.1393283315
H   H87       1.0  0.91867  0.56617  0.36536  1.0000 0.1017457428
H   H88       1.0  0.15773  0.94753  0.52162  1.0000 0.1076100281
H   H89       1.0  0.60720  0.33294  0.24619  1.0000 0.1017457428
H   H90       1.0  0.18498  0.54292  0.34820  1.0000 0.1017457428
H   H91       1.0  0.69158  0.49810  0.29245  1.0000 0.1017457428
H   H92       1.0  0.99472  0.68998  0.16810  1.0000 0.1076100281
H   H93       1.0  0.28016  0.00908  0.18636  1.0000 0.1310528368
H   H94       1.0  0.41828  0.73846  0.42339  1.0000 0.1017457428
H   H95       1.0  0.16050  0.96896  0.13113  1.0000 0.1017457428
H   H96       1.0  0.41115  0.56715  0.37402  1.0000 0.1076100281
C   C1        1.0  0.65630  0.14370  0.69630  1.0000 0.3676814735
C   C2        1.0  0.40617  0.37123  0.55910  1.0000 0.0615486305
C   C3        1.0  0.87700  0.22460  0.79470  1.0000 -0.147840171
C   C4        1.0  0.39370  0.84750  0.69110  1.0000 -0.1623369704
C   C5        1.0  0.07924  0.13736  0.47320  1.0000 -0.1414000778
C   C6        1.0  0.07077  0.17623  0.50320  1.0000 0.0615486305
C   C7        1.0  0.47750  0.81130  0.73840  1.0000 -0.147840171
C   C8        1.0  0.60640  0.20080  0.62940  1.0000 -0.1414000778
C   C9        1.0  0.31140  0.74880  0.69270  1.0000 0.0787082763
C   C10       1.0  0.56947  0.98573  0.71760  1.0000 0.3621548191
C   C11       1.0  0.99853  0.06967  0.44620  1.0000 0.0615486305
C   C12       1.0  0.13570  0.39130  0.61000  1.0000 -0.131322338
C   C13       1.0  0.71397  0.10223  0.75310  1.0000 0.3676814735
C   C14       1.0  0.98070  0.14170  0.50490  1.0000 -0.147840171
C   C15       1.0  0.20910  0.39230  0.61710  1.0000 0.0701208691
C   C16       1.0  0.74930  0.31910  0.67430  1.0000 -0.147840171
C   C17       1.0  0.79133  0.12887  0.78910  1.0000 0.0615486305
C   C18       1.0  0.46310  0.39250  0.59870  1.0000 -0.1414000778
C   C19       1.0  0.43881  0.37659  0.52140  1.0000 -0.147840171
C   C20       1.0  0.52690  0.40350  0.52410  1.0000 0.0787082763
C   C21       1.0  0.47899  0.88021  0.71490  1.0000 0.0701208691
C   C22       1.0  0.15527  0.25113  0.53244  1.0000 0.3676814735
C   C23       1.0  0.27520  0.43680  0.65350  1.0000 -0.1414000778
C   C24       1.0  0.13200  0.43460  0.63960  1.0000 0.0885786296
C   C25       1.0  0.90410  0.07490  0.47660  1.0000 0.0787082763
C   C26       1.0  0.31258  0.34302  0.55830  1.0000 0.3621548191
C   C27       1.0  0.21810  0.34910  0.58650  1.0000 0.3621548191
C   C28       1.0  0.39250  0.71390  0.73770  1.0000 0.0701208691
C   C29       1.0  0.76090  0.39070  0.64580  1.0000 0.0787082763
C   C30       1.0  0.66984  0.22176  0.66630  1.0000 0.0615486305
C   C31       1.0  0.26470  0.47530  0.68170  1.0000 0.0701208691
C   C32       1.0  0.94630  0.24390  0.82800  1.0000 0.0885786296
C   C33       1.0  0.77830  0.05750  0.81680  1.0000 -0.131322338
C   C34       1.0  0.62470  0.27670  0.60230  1.0000 0.0885786296
C   C35       1.0  0.85010  0.08170  0.84950  1.0000 0.0885786296
C   C36       1.0  0.55030  0.41910  0.59870  1.0000 0.0885786296
C   C37       1.0  0.85630  0.34370  0.19630  1.0000 0.3676814735
C   C38       1.0  0.62877  0.59383  0.05910  1.0000 0.0615486305
C   C39       1.0  0.77540  0.12300  0.29470  1.0000 -0.147840171
C   C40       1.0  0.15250  0.60630  0.19110  1.0000 -0.1623369704
C   C41       1.0  0.86264  0.92076  0.97320  1.0000 -0.1414000778
C   C42       1.0  0.82377  0.92923  0.00320  1.0000 0.0615486305
C   C43       1.0  0.18870  0.52250  0.23840  1.0000 -0.147840171
C   C44       1.0  0.79920  0.39360  0.12940  1.0000 -0.1414000778
C   C45       1.0  0.25120  0.68860  0.19270  1.0000 0.0787082763
C   C46       1.0  0.01427  0.43053  0.21760  1.0000 0.3621548191
C   C47       1.0  0.93033  0.00147  0.94620  1.0000 0.0615486305
C   C48       1.0  0.60870  0.86430  0.11000  1.0000 -0.131322338
C   C49       1.0  0.89777  0.28603  0.25310  1.0000 0.3676814735
C   C50       1.0  0.85830  0.01930  0.00490  1.0000 -0.1414000778
C   C51       1.0  0.60770  0.79090  0.11710  1.0000 0.0701208691
C   C52       1.0  0.68090  0.25070  0.17430  1.0000 -0.147840171
C   C53       1.0  0.87113  0.20867  0.28910  1.0000 0.0615486305
C   C54       1.0  0.60750  0.53690  0.09870  1.0000 -0.1414000778
C   C55       1.0  0.62341  0.56119  0.02140  1.0000 -0.147840171
C   C56       1.0  0.59650  0.47310  0.02410  1.0000 0.0787082763
C   C57       1.0  0.11979  0.52101  0.21490  1.0000 0.0701208691
C   C58       1.0  0.74887  0.84473  0.03244  1.0000 0.3676814735
C   C59       1.0  0.56320  0.72480  0.15350  1.0000 -0.1414000778
C   C60       1.0  0.56540  0.86800  0.13960  1.0000 0.0885786296
C   C61       1.0  0.92510  0.09590  0.97660  1.0000 0.0787082763
C   C62       1.0  0.65698  0.68742  0.05830  1.0000 0.3621548191
C   C63       1.0  0.65090  0.78190  0.08650  1.0000 0.3621548191
C   C64       1.0  0.28610  0.60750  0.23770  1.0000 0.0701208691
C   C65       1.0  0.60930  0.23910  0.14580  1.0000 0.0787082763
C   C66       1.0  0.77824  0.33016  0.16630  1.0000 0.0615486305
C   C67       1.0  0.52470  0.73530  0.18170  1.0000 0.0701208691
C   C68       1.0  0.75610  0.05370  0.32800  1.0000 0.0885786296
C   C69       1.0  0.94250  0.22170  0.31680  1.0000 -0.131322338
C   C70       1.0  0.72330  0.37530  0.10230  1.0000 0.0885786296
C   C71       1.0  0.91830  0.14990  0.34950  1.0000 0.0885786296
C   C72       1.0  0.58090  0.44970  0.09870  1.0000 0.0885786296
C   C73       1.0  0.14370  0.65630  0.80370  1.0000 0.3676814735
C   C74       1.0  0.37123  0.40617  0.94090  1.0000 0.0615486305
C   C75       1.0  0.22460  0.87700  0.70530  1.0000 -0.147840171
C   C76       1.0  0.84750  0.39370  0.80890  1.0000 -0.1623369704
C   C77       1.0  0.13736  0.07924  0.02680  1.0000 -0.1414000778
C   C78       1.0  0.17623  0.07077  0.99680  1.0000 0.0615486305
C   C79       1.0  0.81130  0.47750  0.76160  1.0000 -0.147840171
C   C80       1.0  0.20080  0.60640  0.87060  1.0000 -0.1414000778
C   C81       1.0  0.74880  0.31140  0.80730  1.0000 0.0787082763
C   C82       1.0  0.98573  0.56947  0.78240  1.0000 0.3621548191
C   C83       1.0  0.06967  0.99853  0.05380  1.0000 0.0615486305
C   C84       1.0  0.39130  0.13570  0.89000  1.0000 -0.131322338
C   C85       1.0  0.10223  0.71397  0.74690  1.0000 0.3676814735
C   C86       1.0  0.14170  0.98070  0.99510  1.0000 -0.1414000778
C   C87       1.0  0.39230  0.20910  0.88290  1.0000 0.0701208691
C   C88       1.0  0.31910  0.74930  0.82570  1.0000 -0.147840171
C   C89       1.0  0.12887  0.79133  0.71090  1.0000 0.0701208691
C   C90       1.0  0.39250  0.46310  0.90130  1.0000 -0.1414000778
C   C91       1.0  0.37659  0.43881  0.97860  1.0000 -0.147840171
C   C92       1.0  0.40350  0.52690  0.97590  1.0000 0.0787082763
C   C93       1.0  0.88021  0.47899  0.78510  1.0000 0.0701208691
C   C94       1.0  0.25113  0.15527  0.96756  1.0000 0.3676814735
C   C95       1.0  0.43680  0.27520  0.84650  1.0000 -0.1414000778
C   C96       1.0  0.43460  0.13200  0.86040  1.0000 0.0885786296
C   C97       1.0  0.07490  0.90410  0.02340  1.0000 0.0787082763
C   C98       1.0  0.34302  0.31258  0.94170  1.0000 0.3621548191
C   C99       1.0  0.34910  0.21810  0.91350  1.0000 0.3621548191
C   C100      1.0  0.71390  0.39250  0.76230  1.0000 0.0701208691
C   C101      1.0  0.39070  0.76090  0.85420  1.0000 0.0787082763
C   C102      1.0  0.22176  0.66984  0.83370  1.0000 0.0615486305
C   C103      1.0  0.47530  0.26470  0.81830  1.0000 0.0701208691
C   C104      1.0  0.24390  0.94630  0.67200  1.0000 0.0885786296
C   C105      1.0  0.05750  0.77830  0.68320  1.0000 -0.131322338
C   C106      1.0  0.27670  0.62470  0.89770  1.0000 0.0885786296
C   C107      1.0  0.08170  0.85010  0.65050  1.0000 0.0885786296
C   C108      1.0  0.41910  0.55030  0.90130  1.0000 0.0885786296
C   C109      1.0  0.34370  0.85630  0.30370  1.0000 0.3676814735
C   C110      1.0  0.59383  0.62877  0.44090  1.0000 0.0615486305
C   C111      1.0  0.12300  0.77540  0.20530  1.0000 -0.147840171
C   C112      1.0  0.60630  0.15250  0.30890  1.0000 -0.1623369704
C   C113      1.0  0.92076  0.86264  0.52680  1.0000 -0.1414000778
C   C114      1.0  0.92923  0.82377  0.49680  1.0000 0.0615486305
C   C115      1.0  0.52250  0.18870  0.26160  1.0000 -0.147840171
C   C116      1.0  0.39360  0.79920  0.37060  1.0000 -0.1414000778
C   C117      1.0  0.68860  0.25120  0.30730  1.0000 0.0787082763
C   C118      1.0  0.43053  0.01427  0.28240  1.0000 0.3621548191
C   C119      1.0  0.00147  0.93033  0.55380  1.0000 0.0615486305
C   C120      1.0  0.86430  0.60870  0.39000  1.0000 -0.131322338
C   C121      1.0  0.28603  0.89777  0.24690  1.0000 0.3676814735
C   C122      1.0  0.01930  0.85830  0.49510  1.0000 -0.1414000778
C   C123      1.0  0.79090  0.60770  0.38290  1.0000 0.0701208691
C   C124      1.0  0.25070  0.68090  0.32570  1.0000 -0.147840171
C   C125      1.0  0.20867  0.87113  0.21090  1.0000 0.0615486305
C   C126      1.0  0.53690  0.60750  0.40130  1.0000 -0.1414000778
C   C127      1.0  0.56119  0.62341  0.47860  1.0000 -0.147840171
C   C128      1.0  0.47310  0.59650  0.47590  1.0000 0.0787082763
C   C129      1.0  0.52101  0.11979  0.28510  1.0000 0.0701208691
C   C130      1.0  0.84473  0.74887  0.46756  1.0000 0.3676814735
C   C131      1.0  0.72480  0.56320  0.34650  1.0000 -0.1414000778
C   C132      1.0  0.86800  0.56540  0.36040  1.0000 0.0885786296
C   C133      1.0  0.09590  0.92510  0.52340  1.0000 0.0787082763
C   C134      1.0  0.68742  0.65698  0.44170  1.0000 0.3621548191
C   C135      1.0  0.78190  0.65090  0.41350  1.0000 0.3621548191
C   C136      1.0  0.60750  0.28610  0.26230  1.0000 0.0701208691
C   C137      1.0  0.23910  0.60930  0.35420  1.0000 0.0787082763
C   C138      1.0  0.33016  0.77824  0.33370  1.0000 0.0615486305
C   C139      1.0  0.73530  0.52470  0.31830  1.0000 0.0787082763
C   C140      1.0  0.05370  0.75610  0.17200  1.0000 0.0885786296
C   C141      1.0  0.22170  0.94250  0.18320  1.0000 -0.131322338
C   C142      1.0  0.37530  0.72330  0.39770  1.0000 0.0885786296
C   C143      1.0  0.14990  0.91830  0.15050  1.0000 0.0885786296
C   C144      1.0  0.44970  0.58090  0.40130  1.0000 0.0885786296
I   I1        1.0  0.64227  0.87091  0.43416  1.0000 -0.431671376
I   I2        1.0  0.21187  0.47069  0.79643  1.0000 -0.431671376
I   I3        1.0  0.03354  0.50276  0.69750  1.0000 -0.4381371873
I   I4        1.0  0.82430  0.87366  0.36031  1.0000 -0.431671376
I   I5        1.0  0.74989  0.46725  0.49359  1.0000 -0.4381371873
I   I6        1.0  0.82995  0.63227  0.60597  1.0000 -0.4558134104
I   I7        1.0  0.12909  0.35773  0.93416  1.0000 -0.431671376
I   I8        1.0  0.52931  0.78813  0.29643  1.0000 -0.431671376
I   I9        1.0  0.49724  0.96646  0.19750  1.0000 -0.4381371873
I   I10       1.0  0.12634  0.17570  0.86031  1.0000 -0.431671376
I   I11       1.0  0.53275  0.25011  0.99359  1.0000 -0.4381371873
I   I12       1.0  0.36773  0.17005  0.10597  1.0000 -0.4558134104
I   I13       1.0  0.87091  0.64227  0.06584  1.0000 -0.431671376
I   I14       1.0  0.47069  0.21187  0.70357  1.0000 -0.431671376
I   I15       1.0  0.50276  0.03354  0.80250  1.0000 -0.4381371873
I   I16       1.0  0.87366  0.82430  0.13969  1.0000 -0.431671376
I   I17       1.0  0.46725  0.74989  0.00641  1.0000 -0.4381371873
I   I18       1.0  0.63227  0.82995  0.89403  1.0000 -0.4558134104
I   I19       1.0  0.35773  0.12909  0.56584  1.0000 -0.431671376
I   I20       1.0  0.78813  0.52931  0.20357  1.0000 -0.431671376
I   I21       1.0  0.96646  0.49724  0.30250  1.0000 -0.4381371873
I   I22       1.0  0.17570  0.12634  0.63969  1.0000 -0.431671376
I   I23       1.0  0.25011  0.53275  0.50641  1.0000 -0.4381371873
I   I24       1.0  0.17005  0.36773  0.39403  1.0000 -0.4558134104
N   N1        1.0  0.72633  0.17387  0.72878  1.0000 -0.3821308191
N   N2        1.0  0.14000  0.28420  0.56014  1.0000 -0.3895743737
N   N3        1.0  0.24094  0.28026  0.52894  1.0000 -0.3895743737
N   N4        1.0  0.63700  0.00640  0.74909  1.0000 -0.3895743737
N   N5        1.0  0.30514  0.37946  0.58780  1.0000 -0.3895743737
N   N6        1.0  0.91211  0.04029  0.44677  1.0000 -0.186427862
N   N7        1.0  0.57520  0.05100  0.68938  1.0000 -0.3895743737
N   N8        1.0  0.69981  0.37059  0.61030  1.0000 -0.186427862
N   N9        1.0  0.93399  0.17401  0.85479  1.0000 -0.1728658105
N   N10       1.0  0.30984  0.68256  0.71526  1.0000 -0.1782239253
N   N11       1.0  0.19585  0.47715  0.67456  1.0000 -0.186427862
N   N12       1.0  0.58310  0.42630  0.56249  1.0000 -0.186427862
N   N13       1.0  0.82613  0.27367  0.22878  1.0000 -0.3821308191
N   N14       1.0  0.71580  0.86000  0.06014  1.0000 -0.3895743737
N   N15       1.0  0.71974  0.75906  0.02894  1.0000 -0.3895743737
N   N16       1.0  0.99360  0.36300  0.24909  1.0000 -0.3895743737
N   N17       1.0  0.62054  0.69486  0.08780  1.0000 -0.3895743737
N   N18       1.0  0.95971  0.08789  0.94677  1.0000 -0.186427862
N   N19       1.0  0.94900  0.42480  0.18938  1.0000 -0.3895743737
N   N20       1.0  0.62941  0.30019  0.11030  1.0000 -0.1782239253
N   N21       1.0  0.82599  0.06601  0.35479  1.0000 -0.1728658105
N   N22       1.0  0.31744  0.69016  0.21526  1.0000 -0.1782239253
N   N23       1.0  0.52285  0.80415  0.17456  1.0000 -0.186427862
N   N24       1.0  0.57370  0.41690  0.06249  1.0000 -0.186427862
N   N25       1.0  0.17387  0.72633  0.77122  1.0000 -0.3821308191
N   N26       1.0  0.28420  0.14000  0.93986  1.0000 -0.3895743737
N   N27       1.0  0.28026  0.24094  0.97106  1.0000 -0.3895743737
N   N28       1.0  0.00640  0.63700  0.75091  1.0000 -0.3895743737
N   N29       1.0  0.37946  0.30514  0.91220  1.0000 -0.3895743737
N   N30       1.0  0.04029  0.91211  0.05323  1.0000 -0.186427862
N   N31       1.0  0.05100  0.57520  0.81062  1.0000 -0.3895743737
N   N32       1.0  0.37059  0.69981  0.88970  1.0000 -0.186427862
N   N33       1.0  0.17401  0.93399  0.64521  1.0000 -0.1728658105
N   N34       1.0  0.68256  0.30984  0.78474  1.0000 -0.1782239253
N   N35       1.0  0.47715  0.19585  0.82544  1.0000 -0.186427862
N   N36       1.0  0.42630  0.58310  0.93751  1.0000 -0.186427862
N   N37       1.0  0.27367  0.82613  0.27122  1.0000 -0.3821308191
N   N38       1.0  0.86000  0.71580  0.43986  1.0000 -0.3895743737
N   N39       1.0  0.75906  0.71974  0.47106  1.0000 -0.3895743737
N   N40       1.0  0.36300  0.99360  0.25091  1.0000 -0.3895743737
N   N41       1.0  0.69486  0.62054  0.41220  1.0000 -0.3895743737
N   N42       1.0  0.08789  0.95971  0.55323  1.0000 -0.186427862
N   N43       1.0  0.42480  0.94900  0.31062  1.0000 -0.3895743737
N   N44       1.0  0.30019  0.62941  0.38970  1.0000 -0.186427862
N   N45       1.0  0.06601  0.82599  0.14521  1.0000 -0.1728658105
N   N46       1.0  0.69016  0.31744  0.28474  1.0000 -0.1782239253
N   N47       1.0  0.80415  0.52285  0.32544  1.0000 -0.186427862
N   N48       1.0  0.41690  0.57370  0.43751  1.0000 -0.186427862
