# DDEC6 charges by PACMAN v1.1 (https://github.com/mtap-research/PACMAN-charge/)
data_2017[Zn][dia]3[ASR]9
_chemical_formula_sum              "Zn16 H224 C240 N96 O64"
_cell_length_a       19.1029
_cell_length_b       19.4772
_cell_length_c       25.1966
_cell_angle_alpha    90
_cell_angle_beta     90
_cell_angle_gamma    90

_symmetry_space_group_name_H-M    "P 1"
_symmetry_Int_Tables_number       1

loop_
  _symmetry_equiv_pos_as_xyz
  'x, y, z'

loop_
  _atom_site_type_symbol
  _atom_site_label
  _atom_site_symmetry_multiplicity
  _atom_site_fract_x
  _atom_site_fract_y
  _atom_site_fract_z
  _atom_site_occupancy
  _atom_site_charge
Zn  Zn1       1.0  0.28339  0.47654  0.51403  1.0000 0.7633798888
Zn  Zn2       1.0  0.78678  0.53958  0.72281  1.0000 0.7654834782
Zn  Zn3       1.0  0.71661  0.02346  0.01403  1.0000 0.7633798888
Zn  Zn4       1.0  0.21322  0.96042  0.22281  1.0000 0.7654834782
Zn  Zn5       1.0  0.78339  0.52346  0.98597  1.0000 0.7633798888
Zn  Zn6       1.0  0.28678  0.46042  0.77719  1.0000 0.7654834782
Zn  Zn7       1.0  0.21661  0.97654  0.48597  1.0000 0.7633798888
Zn  Zn8       1.0  0.71322  0.03958  0.27719  1.0000 0.7654834782
Zn  Zn9       1.0  0.71661  0.52346  0.48597  1.0000 0.7633798888
Zn  Zn10      1.0  0.21322  0.46042  0.27719  1.0000 0.7654834782
Zn  Zn11      1.0  0.28339  0.97654  0.98597  1.0000 0.7633798888
Zn  Zn12      1.0  0.78678  0.03958  0.77719  1.0000 0.7654834782
Zn  Zn13      1.0  0.21661  0.47654  0.01403  1.0000 0.7633798888
Zn  Zn14      1.0  0.71322  0.53958  0.22281  1.0000 0.7654834782
Zn  Zn15      1.0  0.78339  0.02346  0.51403  1.0000 0.7633798888
Zn  Zn16      1.0  0.28678  0.96042  0.72281  1.0000 0.7654834782
H   H1        1.0  0.48660  0.40230  0.64370  1.0000 0.1192788443
H   H2        1.0  0.59050  0.43750  0.68070  1.0000 0.1192788443
H   H3        1.0  0.59040  0.60410  0.58860  1.0000 0.1123821301
H   H4        1.0  0.48820  0.56740  0.54880  1.0000 0.1123821301
H   H5        1.0  0.05470  0.53380  0.71470  1.0000 0.1123821301
H   H6        1.0  0.15230  0.51370  0.66230  1.0000 0.1123821301
H   H7        1.0  0.02700  0.49170  0.53670  1.0000 0.1192788443
H   H8        1.0  0.93170  0.51540  0.58810  1.0000 0.1192788443
H   H9        1.0  0.76740  0.70240  0.72190  1.0000 0.1123821301
H   H10       1.0  0.77330  0.58730  0.84450  1.0000 0.1271737003
H   H11       1.0  0.81350  0.96040  0.91800  1.0000 0.1192788443
H   H12       1.0  0.63300  0.89700  0.96590  1.0000 0.1271737003
H   H13       1.0  0.79260  0.75430  0.89550  1.0000 0.1192788443
H   H14       1.0  0.77990  0.67950  0.91640  1.0000 0.1192788443
H   H15       1.0  0.69040  0.73840  0.94860  1.0000 0.1123821301
H   H16       1.0  0.65840  0.69780  0.90090  1.0000 0.1271737003
H   H17       1.0  0.66840  0.80010  0.84940  1.0000 0.1123821301
H   H18       1.0  0.61230  0.80320  0.89480  1.0000 0.1192788443
H   H19       1.0  0.73920  0.38630  0.73720  1.0000 0.1192788443
H   H20       1.0  0.85690  0.48390  0.83560  1.0000 0.1271737003
H   H21       1.0  0.63590  0.16730  0.00560  1.0000 0.1192788443
H   H22       1.0  0.80750  0.11470  0.93330  1.0000 0.1367123874
H   H23       1.0  0.87410  0.39260  0.90660  1.0000 0.1192788443
H   H24       1.0  0.89230  0.32700  0.87350  1.0000 0.1192788443
H   H25       1.0  0.76170  0.34250  0.92170  1.0000 0.1271737003
H   H26       1.0  0.82450  0.30830  0.95180  1.0000 0.101257018
H   H27       1.0  0.75500  0.25350  0.86190  1.0000 0.1192788443
H   H28       1.0  0.82780  0.22390  0.87990  1.0000 0.1192788443
H   H29       1.0  0.51340  0.09770  0.14370  1.0000 0.1192788443
H   H30       1.0  0.40950  0.06250  0.18070  1.0000 0.1192788443
H   H31       1.0  0.40960  0.89590  0.08860  1.0000 0.1123821301
H   H32       1.0  0.51180  0.93260  0.04880  1.0000 0.1123821301
H   H33       1.0  0.94530  0.96620  0.21470  1.0000 0.1123821301
H   H34       1.0  0.84770  0.98630  0.16230  1.0000 0.1123821301
H   H35       1.0  0.97300  0.00830  0.03670  1.0000 0.1192788443
H   H36       1.0  0.06830  0.98460  0.08810  1.0000 0.1192788443
H   H37       1.0  0.23260  0.79760  0.22190  1.0000 0.1123821301
H   H38       1.0  0.22670  0.91270  0.34450  1.0000 0.1271737003
H   H39       1.0  0.18650  0.53960  0.41800  1.0000 0.1192788443
H   H40       1.0  0.36700  0.60300  0.46590  1.0000 0.1271737003
H   H41       1.0  0.20740  0.74570  0.39550  1.0000 0.1192788443
H   H42       1.0  0.22010  0.82050  0.41640  1.0000 0.1192788443
H   H43       1.0  0.30960  0.76160  0.44860  1.0000 0.1123821301
H   H44       1.0  0.34160  0.80220  0.40090  1.0000 0.1271737003
H   H45       1.0  0.33160  0.69990  0.34940  1.0000 0.1123821301
H   H46       1.0  0.38770  0.69680  0.39480  1.0000 0.1192788443
H   H47       1.0  0.26080  0.11370  0.23720  1.0000 0.1192788443
H   H48       1.0  0.14310  0.01610  0.33560  1.0000 0.1271737003
H   H49       1.0  0.36410  0.33270  0.50560  1.0000 0.1192788443
H   H50       1.0  0.19250  0.38530  0.43330  1.0000 0.1367123874
H   H51       1.0  0.12590  0.10740  0.40660  1.0000 0.1192788443
H   H52       1.0  0.10770  0.17300  0.37350  1.0000 0.1192788443
H   H53       1.0  0.23830  0.15750  0.42170  1.0000 0.1271737003
H   H54       1.0  0.17550  0.19170  0.45180  1.0000 0.101257018
H   H55       1.0  0.24500  0.24650  0.36190  1.0000 0.1192788443
H   H56       1.0  0.17220  0.27610  0.37990  1.0000 0.1192788443
H   H57       1.0  0.98660  0.59770  0.85630  1.0000 0.1192788443
H   H58       1.0  0.09050  0.56250  0.81930  1.0000 0.1192788443
H   H59       1.0  0.09040  0.39590  0.91140  1.0000 0.1123821301
H   H60       1.0  0.98820  0.43260  0.95120  1.0000 0.1123821301
H   H61       1.0  0.55470  0.46620  0.78530  1.0000 0.1123821301
H   H62       1.0  0.65230  0.48630  0.83770  1.0000 0.1123821301
H   H63       1.0  0.52700  0.50830  0.96330  1.0000 0.1192788443
H   H64       1.0  0.43170  0.48460  0.91190  1.0000 0.1192788443
H   H65       1.0  0.26740  0.29760  0.77810  1.0000 0.1123821301
H   H66       1.0  0.27330  0.41270  0.65550  1.0000 0.1271737003
H   H67       1.0  0.31350  0.03960  0.58200  1.0000 0.1192788443
H   H68       1.0  0.13300  0.10300  0.53410  1.0000 0.1271737003
H   H69       1.0  0.29260  0.24570  0.60450  1.0000 0.1192788443
H   H70       1.0  0.27990  0.32050  0.58360  1.0000 0.1192788443
H   H71       1.0  0.19040  0.26160  0.55140  1.0000 0.1123821301
H   H72       1.0  0.15840  0.30220  0.59910  1.0000 0.1271737003
H   H73       1.0  0.16840  0.19990  0.65060  1.0000 0.1123821301
H   H74       1.0  0.11230  0.19680  0.60520  1.0000 0.1192788443
H   H75       1.0  0.23920  0.61370  0.76280  1.0000 0.1192788443
H   H76       1.0  0.35690  0.51610  0.66440  1.0000 0.1271737003
H   H77       1.0  0.13590  0.83270  0.49440  1.0000 0.1192788443
H   H78       1.0  0.30750  0.88530  0.56670  1.0000 0.1367123874
H   H79       1.0  0.37410  0.60740  0.59340  1.0000 0.1192788443
H   H80       1.0  0.39230  0.67300  0.62650  1.0000 0.1192788443
H   H81       1.0  0.26170  0.65750  0.57830  1.0000 0.1271737003
H   H82       1.0  0.32450  0.69170  0.54820  1.0000 0.101257018
H   H83       1.0  0.25500  0.74650  0.63810  1.0000 0.1192788443
H   H84       1.0  0.32780  0.77610  0.62010  1.0000 0.1192788443
H   H85       1.0  0.01340  0.90230  0.35630  1.0000 0.1192788443
H   H86       1.0  0.90950  0.93750  0.31930  1.0000 0.1192788443
H   H87       1.0  0.90960  0.10410  0.41140  1.0000 0.1123821301
H   H88       1.0  0.01180  0.06740  0.45120  1.0000 0.1123821301
H   H89       1.0  0.44530  0.03380  0.28530  1.0000 0.1123821301
H   H90       1.0  0.34770  0.01370  0.33770  1.0000 0.1123821301
H   H91       1.0  0.47300  0.99170  0.46330  1.0000 0.1192788443
H   H92       1.0  0.56830  0.01540  0.41190  1.0000 0.1192788443
H   H93       1.0  0.73260  0.20240  0.27810  1.0000 0.1123821301
H   H94       1.0  0.72670  0.08730  0.15550  1.0000 0.1271737003
H   H95       1.0  0.68650  0.46040  0.08200  1.0000 0.1192788443
H   H96       1.0  0.86700  0.39700  0.03410  1.0000 0.1271737003
H   H97       1.0  0.70740  0.25430  0.10450  1.0000 0.1192788443
H   H98       1.0  0.72010  0.17950  0.08360  1.0000 0.1192788443
H   H99       1.0  0.80960  0.23840  0.05140  1.0000 0.1123821301
H   H100      1.0  0.84160  0.19780  0.09910  1.0000 0.1271737003
H   H101      1.0  0.83160  0.30010  0.15060  1.0000 0.1123821301
H   H102      1.0  0.88770  0.30320  0.10520  1.0000 0.1192788443
H   H103      1.0  0.76080  0.88630  0.26280  1.0000 0.1192788443
H   H104      1.0  0.64310  0.98390  0.16440  1.0000 0.1271737003
H   H105      1.0  0.86410  0.66730  0.99440  1.0000 0.1192788443
H   H106      1.0  0.69250  0.61470  0.06670  1.0000 0.1367123874
H   H107      1.0  0.62590  0.89260  0.09340  1.0000 0.1192788443
H   H108      1.0  0.60770  0.82700  0.12650  1.0000 0.1192788443
H   H109      1.0  0.73830  0.84250  0.07830  1.0000 0.1271737003
H   H110      1.0  0.67550  0.80830  0.04820  1.0000 0.101257018
H   H111      1.0  0.74500  0.75350  0.13810  1.0000 0.1192788443
H   H112      1.0  0.67220  0.72390  0.12010  1.0000 0.1192788443
H   H113      1.0  0.51340  0.59770  0.35630  1.0000 0.1192788443
H   H114      1.0  0.40950  0.56250  0.31930  1.0000 0.1192788443
H   H115      1.0  0.40960  0.39590  0.41140  1.0000 0.1123821301
H   H116      1.0  0.51180  0.43260  0.45120  1.0000 0.1123821301
H   H117      1.0  0.94530  0.46620  0.28530  1.0000 0.1123821301
H   H118      1.0  0.84770  0.48630  0.33770  1.0000 0.1123821301
H   H119      1.0  0.97300  0.50830  0.46330  1.0000 0.1192788443
H   H120      1.0  0.06830  0.48460  0.41190  1.0000 0.1192788443
H   H121      1.0  0.23260  0.29760  0.27810  1.0000 0.1123821301
H   H122      1.0  0.22670  0.41270  0.15550  1.0000 0.1271737003
H   H123      1.0  0.18650  0.03960  0.08200  1.0000 0.1192788443
H   H124      1.0  0.36700  0.10300  0.03410  1.0000 0.1271737003
H   H125      1.0  0.20740  0.24570  0.10450  1.0000 0.1192788443
H   H126      1.0  0.22010  0.32050  0.08360  1.0000 0.1192788443
H   H127      1.0  0.30960  0.26160  0.05140  1.0000 0.1123821301
H   H128      1.0  0.34160  0.30220  0.09910  1.0000 0.1271737003
H   H129      1.0  0.33160  0.19990  0.15060  1.0000 0.1123821301
H   H130      1.0  0.38770  0.19680  0.10520  1.0000 0.1192788443
H   H131      1.0  0.26080  0.61370  0.26280  1.0000 0.1192788443
H   H132      1.0  0.14310  0.51610  0.16440  1.0000 0.1271737003
H   H133      1.0  0.36410  0.83270  0.99440  1.0000 0.1192788443
H   H134      1.0  0.19250  0.88530  0.06670  1.0000 0.1367123874
H   H135      1.0  0.12590  0.60740  0.09340  1.0000 0.1192788443
H   H136      1.0  0.10770  0.67300  0.12650  1.0000 0.1192788443
H   H137      1.0  0.23830  0.65750  0.07830  1.0000 0.1271737003
H   H138      1.0  0.17550  0.69170  0.04820  1.0000 0.101257018
H   H139      1.0  0.24500  0.74650  0.13810  1.0000 0.1192788443
H   H140      1.0  0.17220  0.77610  0.12010  1.0000 0.1192788443
H   H141      1.0  0.48660  0.90230  0.85630  1.0000 0.1192788443
H   H142      1.0  0.59050  0.93750  0.81930  1.0000 0.1192788443
H   H143      1.0  0.59040  0.10410  0.91140  1.0000 0.1123821301
H   H144      1.0  0.48820  0.06740  0.95120  1.0000 0.1123821301
H   H145      1.0  0.05470  0.03380  0.78530  1.0000 0.1123821301
H   H146      1.0  0.15230  0.01370  0.83770  1.0000 0.1123821301
H   H147      1.0  0.02700  0.99170  0.96330  1.0000 0.1192788443
H   H148      1.0  0.93170  0.01540  0.91190  1.0000 0.1192788443
H   H149      1.0  0.76740  0.20240  0.77810  1.0000 0.1123821301
H   H150      1.0  0.77330  0.08730  0.65550  1.0000 0.1271737003
H   H151      1.0  0.81350  0.46040  0.58200  1.0000 0.1192788443
H   H152      1.0  0.63300  0.39700  0.53410  1.0000 0.1271737003
H   H153      1.0  0.79260  0.25430  0.60450  1.0000 0.1192788443
H   H154      1.0  0.77990  0.17950  0.58360  1.0000 0.1192788443
H   H155      1.0  0.69040  0.23840  0.55140  1.0000 0.1123821301
H   H156      1.0  0.65840  0.19780  0.59910  1.0000 0.1271737003
H   H157      1.0  0.66840  0.30010  0.65060  1.0000 0.1123821301
H   H158      1.0  0.61230  0.30320  0.60520  1.0000 0.1192788443
H   H159      1.0  0.73920  0.88630  0.76280  1.0000 0.1192788443
H   H160      1.0  0.85690  0.98390  0.66440  1.0000 0.1271737003
H   H161      1.0  0.63590  0.66730  0.49440  1.0000 0.1192788443
H   H162      1.0  0.80750  0.61470  0.56670  1.0000 0.1367123874
H   H163      1.0  0.87410  0.89260  0.59340  1.0000 0.1192788443
H   H164      1.0  0.89230  0.82700  0.62650  1.0000 0.1192788443
H   H165      1.0  0.76170  0.84250  0.57830  1.0000 0.1271737003
H   H166      1.0  0.82450  0.80830  0.54820  1.0000 0.101257018
H   H167      1.0  0.75500  0.75350  0.63810  1.0000 0.1192788443
H   H168      1.0  0.82780  0.72390  0.62010  1.0000 0.1192788443
H   H169      1.0  0.01340  0.40230  0.14370  1.0000 0.1192788443
H   H170      1.0  0.90950  0.43750  0.18070  1.0000 0.1192788443
H   H171      1.0  0.90960  0.60410  0.08860  1.0000 0.1123821301
H   H172      1.0  0.01180  0.56740  0.04880  1.0000 0.1123821301
H   H173      1.0  0.44530  0.53380  0.21470  1.0000 0.1123821301
H   H174      1.0  0.34770  0.51370  0.16230  1.0000 0.1123821301
H   H175      1.0  0.47300  0.49170  0.03670  1.0000 0.1192788443
H   H176      1.0  0.56830  0.51540  0.08810  1.0000 0.1192788443
H   H177      1.0  0.73260  0.70240  0.22190  1.0000 0.1123821301
H   H178      1.0  0.72670  0.58730  0.34450  1.0000 0.1271737003
H   H179      1.0  0.68650  0.96040  0.41800  1.0000 0.1192788443
H   H180      1.0  0.86700  0.89700  0.46590  1.0000 0.1271737003
H   H181      1.0  0.70740  0.75430  0.39550  1.0000 0.1192788443
H   H182      1.0  0.72010  0.67950  0.41640  1.0000 0.1192788443
H   H183      1.0  0.80960  0.73840  0.44860  1.0000 0.1123821301
H   H184      1.0  0.84160  0.69780  0.40090  1.0000 0.1271737003
H   H185      1.0  0.83160  0.80010  0.34940  1.0000 0.1123821301
H   H186      1.0  0.88770  0.80320  0.39480  1.0000 0.1192788443
H   H187      1.0  0.76080  0.38630  0.23720  1.0000 0.1192788443
H   H188      1.0  0.64310  0.48390  0.33560  1.0000 0.1271737003
H   H189      1.0  0.86410  0.16730  0.50560  1.0000 0.1192788443
H   H190      1.0  0.69250  0.11470  0.43330  1.0000 0.1367123874
H   H191      1.0  0.62590  0.39260  0.40660  1.0000 0.1192788443
H   H192      1.0  0.60770  0.32700  0.37350  1.0000 0.1192788443
H   H193      1.0  0.73830  0.34250  0.42170  1.0000 0.1271737003
H   H194      1.0  0.67550  0.30830  0.45180  1.0000 0.101257018
H   H195      1.0  0.74500  0.25350  0.36190  1.0000 0.1192788443
H   H196      1.0  0.67220  0.22390  0.37990  1.0000 0.1192788443
H   H197      1.0  0.98660  0.09770  0.64370  1.0000 0.1192788443
H   H198      1.0  0.09050  0.06250  0.68070  1.0000 0.1192788443
H   H199      1.0  0.09040  0.89590  0.58860  1.0000 0.1123821301
H   H200      1.0  0.98820  0.93260  0.54880  1.0000 0.1123821301
H   H201      1.0  0.55470  0.96620  0.71470  1.0000 0.1123821301
H   H202      1.0  0.65230  0.98630  0.66230  1.0000 0.1123821301
H   H203      1.0  0.52700  0.00830  0.53670  1.0000 0.1192788443
H   H204      1.0  0.43170  0.98460  0.58810  1.0000 0.1192788443
H   H205      1.0  0.26740  0.79760  0.72190  1.0000 0.1123821301
H   H206      1.0  0.27330  0.91270  0.84450  1.0000 0.1271737003
H   H207      1.0  0.31350  0.53960  0.91800  1.0000 0.1192788443
H   H208      1.0  0.13300  0.60300  0.96590  1.0000 0.1271737003
H   H209      1.0  0.29260  0.74570  0.89550  1.0000 0.1192788443
H   H210      1.0  0.27990  0.82050  0.91640  1.0000 0.1192788443
H   H211      1.0  0.19040  0.76160  0.94860  1.0000 0.1123821301
H   H212      1.0  0.15840  0.80220  0.90090  1.0000 0.1271737003
H   H213      1.0  0.16840  0.69990  0.84940  1.0000 0.1123821301
H   H214      1.0  0.11230  0.69680  0.89480  1.0000 0.1192788443
H   H215      1.0  0.23920  0.11370  0.73720  1.0000 0.1192788443
H   H216      1.0  0.35690  0.01610  0.83560  1.0000 0.1271737003
H   H217      1.0  0.13590  0.33270  0.00560  1.0000 0.1192788443
H   H218      1.0  0.30750  0.38530  0.93330  1.0000 0.1367123874
H   H219      1.0  0.37410  0.10740  0.90660  1.0000 0.1192788443
H   H220      1.0  0.39230  0.17300  0.87350  1.0000 0.1192788443
H   H221      1.0  0.26170  0.15750  0.92170  1.0000 0.1271737003
H   H222      1.0  0.32450  0.19170  0.95180  1.0000 0.101257018
H   H223      1.0  0.25500  0.24650  0.86190  1.0000 0.1192788443
H   H224      1.0  0.32780  0.27610  0.87990  1.0000 0.1192788443
C   C1        1.0  0.40690  0.45930  0.56973  1.0000 0.5373964181
C   C2        1.0  0.66810  0.54860  0.66394  1.0000 0.5501872073
C   C3        1.0  0.47598  0.48120  0.59232  1.0000 -0.0363063792
C   C4        1.0  0.50750  0.44280  0.63210  1.0000 -0.1110283163
C   C5        1.0  0.56960  0.46410  0.65447  1.0000 -0.1110283163
C   C6        1.0  0.60120  0.52420  0.63862  1.0000 -0.0188704611
C   C7        1.0  0.56990  0.56300  0.59936  1.0000 -0.1110283163
C   C8        1.0  0.50810  0.54140  0.57578  1.0000 -0.1178421838
C   C9        1.0  0.91990  0.53960  0.69181  1.0000 0.5501872073
C   C10       1.0  0.16130  0.48800  0.55741  1.0000 0.5501872073
C   C11       1.0  0.98310  0.52680  0.65734  1.0000 -0.0118414397
C   C12       1.0  0.04900  0.52600  0.67853  1.0000 -0.1041448351
C   C13       1.0  0.10790  0.51360  0.64719  1.0000 -0.1178421838
C   C14       1.0  0.09990  0.50110  0.59352  1.0000 -0.0188704611
C   C15       1.0  0.03320  0.50110  0.57258  1.0000 -0.1041448351
C   C16       1.0  0.97600  0.51450  0.60344  1.0000 -0.1041448351
C   C17       1.0  0.76760  0.68760  0.75700  1.0000 0.1575460715
C   C18       1.0  0.77110  0.62530  0.82215  1.0000 0.0914736364
C   C19       1.0  0.77270  0.93480  0.92120  1.0000 0.1658190509
C   C20       1.0  0.67520  0.90150  0.94787  1.0000 0.0692228369
C   C21       1.0  0.76210  0.71460  0.89264  1.0000 -0.1466265525
C   C22       1.0  0.69030  0.73460  0.91020  1.0000 -0.2070403675
C   C23       1.0  0.66220  0.80050  0.88759  1.0000 -0.1445941607
C   C24       1.0  0.76700  0.39660  0.76640  1.0000 0.1575460715
C   C25       1.0  0.83060  0.44990  0.81905  1.0000 0.101257018
C   C26       1.0  0.67530  0.16910  0.98392  1.0000 0.1367123874
C   C27       1.0  0.76860  0.13890  0.94519  1.0000 0.0914736364
C   C28       1.0  0.85420  0.35670  0.88460  1.0000 -0.1466265525
C   C29       1.0  0.80430  0.31600  0.91698  1.0000 -0.2070403675
C   C30       1.0  0.78550  0.24640  0.89225  1.0000 -0.1293639754
C   C31       1.0  0.59310  0.04070  0.06973  1.0000 0.5373964181
C   C32       1.0  0.33190  0.95140  0.16394  1.0000 0.5501872073
C   C33       1.0  0.52402  0.01880  0.09232  1.0000 -0.0363063792
C   C34       1.0  0.49250  0.05720  0.13210  1.0000 -0.1110283163
C   C35       1.0  0.43040  0.03590  0.15447  1.0000 -0.1110283163
C   C36       1.0  0.39880  0.97580  0.13862  1.0000 -0.0188704611
C   C37       1.0  0.43010  0.93700  0.09936  1.0000 -0.1178421838
C   C38       1.0  0.49190  0.95860  0.07578  1.0000 -0.1178421838
C   C39       1.0  0.08010  0.96040  0.19181  1.0000 0.5501872073
C   C40       1.0  0.83870  0.01200  0.05741  1.0000 0.5501872073
C   C41       1.0  0.01690  0.97320  0.15734  1.0000 -0.0118414397
C   C42       1.0  0.95100  0.97400  0.17853  1.0000 -0.1041448351
C   C43       1.0  0.89210  0.98640  0.14719  1.0000 -0.1178421838
C   C44       1.0  0.90010  0.99890  0.09352  1.0000 -0.0188704611
C   C45       1.0  0.96680  0.99890  0.07258  1.0000 -0.1041448351
C   C46       1.0  0.02400  0.98550  0.10344  1.0000 -0.1041448351
C   C47       1.0  0.23240  0.81240  0.25700  1.0000 0.1575460715
C   C48       1.0  0.22890  0.87470  0.32215  1.0000 0.0914736364
C   C49       1.0  0.22730  0.56520  0.42120  1.0000 0.1658190509
C   C50       1.0  0.32480  0.59850  0.44787  1.0000 0.0692228369
C   C51       1.0  0.23790  0.78540  0.39264  1.0000 -0.1466265525
C   C52       1.0  0.30970  0.76540  0.41020  1.0000 -0.2070403675
C   C53       1.0  0.33780  0.69950  0.38759  1.0000 -0.1445941607
C   C54       1.0  0.23300  0.10340  0.26640  1.0000 0.1575460715
C   C55       1.0  0.16940  0.05010  0.31905  1.0000 0.101257018
C   C56       1.0  0.32470  0.33090  0.48392  1.0000 0.1367123874
C   C57       1.0  0.23140  0.36110  0.44519  1.0000 0.0914736364
C   C58       1.0  0.14580  0.14330  0.38460  1.0000 -0.1466265525
C   C59       1.0  0.19570  0.18400  0.41698  1.0000 -0.2070403675
C   C60       1.0  0.21450  0.25360  0.39225  1.0000 -0.1293639754
C   C61       1.0  0.90690  0.54070  0.93027  1.0000 0.5373964181
C   C62       1.0  0.16810  0.45140  0.83606  1.0000 0.5501872073
C   C63       1.0  0.97598  0.51880  0.90768  1.0000 -0.0363063792
C   C64       1.0  0.00750  0.55720  0.86790  1.0000 -0.1110283163
C   C65       1.0  0.06960  0.53590  0.84553  1.0000 -0.1110283163
C   C66       1.0  0.10120  0.47580  0.86138  1.0000 -0.0188704611
C   C67       1.0  0.06990  0.43700  0.90064  1.0000 -0.1110283163
C   C68       1.0  0.00810  0.45860  0.92422  1.0000 -0.1178421838
C   C69       1.0  0.41990  0.46040  0.80819  1.0000 0.5501872073
C   C70       1.0  0.66130  0.51200  0.94259  1.0000 0.5501872073
C   C71       1.0  0.48310  0.47320  0.84266  1.0000 -0.0118414397
C   C72       1.0  0.54900  0.47400  0.82147  1.0000 -0.1041448351
C   C73       1.0  0.60790  0.48640  0.85281  1.0000 -0.1178421838
C   C74       1.0  0.59990  0.49890  0.90648  1.0000 -0.0188704611
C   C75       1.0  0.53320  0.49890  0.92742  1.0000 -0.1041448351
C   C76       1.0  0.47600  0.48550  0.89656  1.0000 -0.1041448351
C   C77       1.0  0.26760  0.31240  0.74300  1.0000 0.1575460715
C   C78       1.0  0.27110  0.37470  0.67785  1.0000 0.0914736364
C   C79       1.0  0.27270  0.06520  0.57880  1.0000 0.1658190509
C   C80       1.0  0.17520  0.09850  0.55213  1.0000 0.0692228369
C   C81       1.0  0.26210  0.28540  0.60736  1.0000 -0.1466265525
C   C82       1.0  0.19030  0.26540  0.58980  1.0000 -0.2070403675
C   C83       1.0  0.16220  0.19950  0.61241  1.0000 -0.1445941607
C   C84       1.0  0.26700  0.60340  0.73360  1.0000 0.1575460715
C   C85       1.0  0.33060  0.55010  0.68095  1.0000 0.101257018
C   C86       1.0  0.17530  0.83090  0.51608  1.0000 0.1367123874
C   C87       1.0  0.26860  0.86110  0.55481  1.0000 0.0914736364
C   C88       1.0  0.35420  0.64330  0.61540  1.0000 -0.1466265525
C   C89       1.0  0.30430  0.68400  0.58302  1.0000 -0.2070403675
C   C90       1.0  0.28550  0.75360  0.60775  1.0000 -0.1293639754
C   C91       1.0  0.09310  0.95930  0.43027  1.0000 0.5373964181
C   C92       1.0  0.83190  0.04860  0.33606  1.0000 0.5501872073
C   C93       1.0  0.02402  0.98120  0.40768  1.0000 -0.0363063792
C   C94       1.0  0.99250  0.94280  0.36790  1.0000 -0.1110283163
C   C95       1.0  0.93040  0.96410  0.34553  1.0000 -0.1110283163
C   C96       1.0  0.89880  0.02420  0.36138  1.0000 -0.0188704611
C   C97       1.0  0.93010  0.06300  0.40064  1.0000 -0.1110283163
C   C98       1.0  0.99190  0.04140  0.42422  1.0000 -0.1178421838
C   C99       1.0  0.58010  0.03960  0.30819  1.0000 0.5501872073
C   C100      1.0  0.33870  0.98800  0.44259  1.0000 0.5501872073
C   C101      1.0  0.51690  0.02680  0.34266  1.0000 -0.0118414397
C   C102      1.0  0.45100  0.02600  0.32147  1.0000 -0.1041448351
C   C103      1.0  0.39210  0.01360  0.35281  1.0000 -0.1178421838
C   C104      1.0  0.40010  0.00110  0.40648  1.0000 -0.0188704611
C   C105      1.0  0.46680  0.00110  0.42742  1.0000 -0.1041448351
C   C106      1.0  0.52400  0.01450  0.39656  1.0000 -0.1041448351
C   C107      1.0  0.73240  0.18760  0.24300  1.0000 0.1575460715
C   C108      1.0  0.72890  0.12530  0.17785  1.0000 0.0914736364
C   C109      1.0  0.72730  0.43480  0.07880  1.0000 0.1658190509
C   C110      1.0  0.82480  0.40150  0.05213  1.0000 0.0692228369
C   C111      1.0  0.73790  0.21460  0.10736  1.0000 -0.1466265525
C   C112      1.0  0.80970  0.23460  0.08980  1.0000 -0.2070403675
C   C113      1.0  0.83780  0.30050  0.11241  1.0000 -0.1445941607
C   C114      1.0  0.73300  0.89660  0.23360  1.0000 0.1575460715
C   C115      1.0  0.66940  0.94990  0.18095  1.0000 0.101257018
C   C116      1.0  0.82470  0.66910  0.01608  1.0000 0.1367123874
C   C117      1.0  0.73140  0.63890  0.05481  1.0000 0.0914736364
C   C118      1.0  0.64580  0.85670  0.11540  1.0000 -0.1466265525
C   C119      1.0  0.69570  0.81600  0.08302  1.0000 -0.2070403675
C   C120      1.0  0.71450  0.74640  0.10775  1.0000 -0.1293639754
C   C121      1.0  0.59310  0.54070  0.43027  1.0000 0.5373964181
C   C122      1.0  0.33190  0.45140  0.33606  1.0000 0.5501872073
C   C123      1.0  0.52402  0.51880  0.40768  1.0000 -0.0363063792
C   C124      1.0  0.49250  0.55720  0.36790  1.0000 -0.1110283163
C   C125      1.0  0.43040  0.53590  0.34553  1.0000 -0.1110283163
C   C126      1.0  0.39880  0.47580  0.36138  1.0000 -0.0188704611
C   C127      1.0  0.43010  0.43700  0.40064  1.0000 -0.1110283163
C   C128      1.0  0.49190  0.45860  0.42422  1.0000 -0.1178421838
C   C129      1.0  0.08010  0.46040  0.30819  1.0000 0.5501872073
C   C130      1.0  0.83870  0.51200  0.44259  1.0000 0.5501872073
C   C131      1.0  0.01690  0.47320  0.34266  1.0000 -0.0118414397
C   C132      1.0  0.95100  0.47400  0.32147  1.0000 -0.1041448351
C   C133      1.0  0.89210  0.48640  0.35281  1.0000 -0.1178421838
C   C134      1.0  0.90010  0.49890  0.40648  1.0000 -0.0188704611
C   C135      1.0  0.96680  0.49890  0.42742  1.0000 -0.1041448351
C   C136      1.0  0.02400  0.48550  0.39656  1.0000 -0.1041448351
C   C137      1.0  0.23240  0.31240  0.24300  1.0000 0.1575460715
C   C138      1.0  0.22890  0.37470  0.17785  1.0000 0.0914736364
C   C139      1.0  0.22730  0.06520  0.07880  1.0000 0.1658190509
C   C140      1.0  0.32480  0.09850  0.05213  1.0000 0.0692228369
C   C141      1.0  0.23790  0.28540  0.10736  1.0000 -0.1466265525
C   C142      1.0  0.30970  0.26540  0.08980  1.0000 -0.2070403675
C   C143      1.0  0.33780  0.19950  0.11241  1.0000 -0.1445941607
C   C144      1.0  0.23300  0.60340  0.23360  1.0000 0.1575460715
C   C145      1.0  0.16940  0.55010  0.18095  1.0000 0.101257018
C   C146      1.0  0.32470  0.83090  0.01608  1.0000 0.1367123874
C   C147      1.0  0.23140  0.86110  0.05481  1.0000 0.0914736364
C   C148      1.0  0.14580  0.64330  0.11540  1.0000 -0.1466265525
C   C149      1.0  0.19570  0.68400  0.08302  1.0000 -0.2070403675
C   C150      1.0  0.21450  0.75360  0.10775  1.0000 -0.1293639754
C   C151      1.0  0.40690  0.95930  0.93027  1.0000 0.5373964181
C   C152      1.0  0.66810  0.04860  0.83606  1.0000 0.5501872073
C   C153      1.0  0.47598  0.98120  0.90768  1.0000 -0.0363063792
C   C154      1.0  0.50750  0.94280  0.86790  1.0000 -0.1110283163
C   C155      1.0  0.56960  0.96410  0.84553  1.0000 -0.1110283163
C   C156      1.0  0.60120  0.02420  0.86138  1.0000 -0.0188704611
C   C157      1.0  0.56990  0.06300  0.90064  1.0000 -0.1110283163
C   C158      1.0  0.50810  0.04140  0.92422  1.0000 -0.1178421838
C   C159      1.0  0.91990  0.03960  0.80819  1.0000 0.5501872073
C   C160      1.0  0.16130  0.98800  0.94259  1.0000 0.5501872073
C   C161      1.0  0.98310  0.02680  0.84266  1.0000 -0.0118414397
C   C162      1.0  0.04900  0.02600  0.82147  1.0000 -0.1041448351
C   C163      1.0  0.10790  0.01360  0.85281  1.0000 -0.1178421838
C   C164      1.0  0.09990  0.00110  0.90648  1.0000 -0.0188704611
C   C165      1.0  0.03320  0.00110  0.92742  1.0000 -0.1041448351
C   C166      1.0  0.97600  0.01450  0.89656  1.0000 -0.1041448351
C   C167      1.0  0.76760  0.18760  0.74300  1.0000 0.1575460715
C   C168      1.0  0.77110  0.12530  0.67785  1.0000 0.0914736364
C   C169      1.0  0.77270  0.43480  0.57880  1.0000 0.1658190509
C   C170      1.0  0.67520  0.40150  0.55213  1.0000 0.0692228369
C   C171      1.0  0.76210  0.21460  0.60736  1.0000 -0.1466265525
C   C172      1.0  0.69030  0.23460  0.58980  1.0000 -0.2070403675
C   C173      1.0  0.66220  0.30050  0.61241  1.0000 -0.1445941607
C   C174      1.0  0.76700  0.89660  0.73360  1.0000 0.1575460715
C   C175      1.0  0.83060  0.94990  0.68095  1.0000 0.101257018
C   C176      1.0  0.67530  0.66910  0.51608  1.0000 0.1367123874
C   C177      1.0  0.76860  0.63890  0.55481  1.0000 0.0914736364
C   C178      1.0  0.85420  0.85670  0.61540  1.0000 -0.1466265525
C   C179      1.0  0.80430  0.81600  0.58302  1.0000 -0.2070403675
C   C180      1.0  0.78550  0.74640  0.60775  1.0000 -0.1293639754
C   C181      1.0  0.09310  0.45930  0.06973  1.0000 0.5373964181
C   C182      1.0  0.83190  0.54860  0.16394  1.0000 0.5501872073
C   C183      1.0  0.02402  0.48120  0.09232  1.0000 -0.0363063792
C   C184      1.0  0.99250  0.44280  0.13210  1.0000 -0.1110283163
C   C185      1.0  0.93040  0.46410  0.15447  1.0000 -0.1110283163
C   C186      1.0  0.89880  0.52420  0.13862  1.0000 -0.0188704611
C   C187      1.0  0.93010  0.56300  0.09936  1.0000 -0.1110283163
C   C188      1.0  0.99190  0.54140  0.07578  1.0000 -0.1178421838
C   C189      1.0  0.58010  0.53960  0.19181  1.0000 0.5501872073
C   C190      1.0  0.33870  0.48800  0.05741  1.0000 0.5501872073
C   C191      1.0  0.51690  0.52680  0.15734  1.0000 -0.0118414397
C   C192      1.0  0.45100  0.52600  0.17853  1.0000 -0.1041448351
C   C193      1.0  0.39210  0.51360  0.14719  1.0000 -0.1178421838
C   C194      1.0  0.40010  0.50110  0.09352  1.0000 -0.0188704611
C   C195      1.0  0.46680  0.50110  0.07258  1.0000 -0.1041448351
C   C196      1.0  0.52400  0.51450  0.10344  1.0000 -0.1041448351
C   C197      1.0  0.73240  0.68760  0.25700  1.0000 0.1575460715
C   C198      1.0  0.72890  0.62530  0.32215  1.0000 0.0914736364
C   C199      1.0  0.72730  0.93480  0.42120  1.0000 0.1658190509
C   C200      1.0  0.82480  0.90150  0.44787  1.0000 0.0692228369
C   C201      1.0  0.73790  0.71460  0.39264  1.0000 -0.1466265525
C   C202      1.0  0.80970  0.73460  0.41020  1.0000 -0.2070403675
C   C203      1.0  0.83780  0.80050  0.38759  1.0000 -0.1445941607
C   C204      1.0  0.73300  0.39660  0.26640  1.0000 0.1575460715
C   C205      1.0  0.66940  0.44990  0.31905  1.0000 0.101257018
C   C206      1.0  0.82470  0.16910  0.48392  1.0000 0.1367123874
C   C207      1.0  0.73140  0.13890  0.44519  1.0000 0.0914736364
C   C208      1.0  0.64580  0.35670  0.38460  1.0000 -0.1466265525
C   C209      1.0  0.69570  0.31600  0.41698  1.0000 -0.2070403675
C   C210      1.0  0.71450  0.24640  0.39225  1.0000 -0.1293639754
C   C211      1.0  0.90690  0.04070  0.56973  1.0000 0.5373964181
C   C212      1.0  0.16810  0.95140  0.66394  1.0000 0.5501872073
C   C213      1.0  0.97598  0.01880  0.59232  1.0000 -0.0363063792
C   C214      1.0  0.00750  0.05720  0.63210  1.0000 -0.1110283163
C   C215      1.0  0.06960  0.03590  0.65447  1.0000 -0.1110283163
C   C216      1.0  0.10120  0.97580  0.63862  1.0000 -0.0188704611
C   C217      1.0  0.06990  0.93700  0.59936  1.0000 -0.1178421838
C   C218      1.0  0.00810  0.95860  0.57578  1.0000 -0.1178421838
C   C219      1.0  0.41990  0.96040  0.69181  1.0000 0.5501872073
C   C220      1.0  0.66130  0.01200  0.55741  1.0000 0.5501872073
C   C221      1.0  0.48310  0.97320  0.65734  1.0000 -0.0118414397
C   C222      1.0  0.54900  0.97400  0.67853  1.0000 -0.1041448351
C   C223      1.0  0.60790  0.98640  0.64719  1.0000 -0.1178421838
C   C224      1.0  0.59990  0.99890  0.59352  1.0000 -0.0188704611
C   C225      1.0  0.53320  0.99890  0.57258  1.0000 -0.1041448351
C   C226      1.0  0.47600  0.98550  0.60344  1.0000 -0.1041448351
C   C227      1.0  0.26760  0.81240  0.75700  1.0000 0.1575460715
C   C228      1.0  0.27110  0.87470  0.82215  1.0000 0.0914736364
C   C229      1.0  0.27270  0.56520  0.92120  1.0000 0.1658190509
C   C230      1.0  0.17520  0.59850  0.94787  1.0000 0.0692228369
C   C231      1.0  0.26210  0.78540  0.89264  1.0000 -0.1466265525
C   C232      1.0  0.19030  0.76540  0.91020  1.0000 -0.2070403675
C   C233      1.0  0.16220  0.69950  0.88759  1.0000 -0.1445941607
C   C234      1.0  0.26700  0.10340  0.76640  1.0000 0.1575460715
C   C235      1.0  0.33060  0.05010  0.81905  1.0000 0.101257018
C   C236      1.0  0.17530  0.33090  0.98392  1.0000 0.1367123874
C   C237      1.0  0.26860  0.36110  0.94519  1.0000 0.0914736364
C   C238      1.0  0.35420  0.14330  0.88460  1.0000 -0.1466265525
C   C239      1.0  0.30430  0.18400  0.91698  1.0000 -0.2070403675
C   C240      1.0  0.28550  0.25360  0.89225  1.0000 -0.1293639754
N   N1        1.0  0.77403  0.62218  0.76988  1.0000 -0.311444658
N   N2        1.0  0.76150  0.72990  0.79670  1.0000 -0.2489124991
N   N3        1.0  0.76480  0.68878  0.83828  1.0000 0.1890642514
N   N4        1.0  0.72250  0.94926  0.95739  1.0000 -0.311444658
N   N5        1.0  0.75920  0.88210  0.89109  1.0000 -0.2442929874
N   N6        1.0  0.69627  0.86104  0.90936  1.0000 0.1575460715
N   N7        1.0  0.79647  0.45820  0.77387  1.0000 -0.311444658
N   N8        1.0  0.78090  0.35220  0.80378  1.0000 -0.2658607679
N   N9        1.0  0.82260  0.38819  0.83727  1.0000 0.1759041419
N   N10       1.0  0.72141  0.11628  0.97921  1.0000 -0.3236092383
N   N11       1.0  0.69140  0.22230  0.95531  1.0000 -0.2489124991
N   N12       1.0  0.75060  0.20289  0.93071  1.0000 0.1759041419
N   N13       1.0  0.22597  0.87782  0.26988  1.0000 -0.311444658
N   N14       1.0  0.23850  0.77010  0.29670  1.0000 -0.2489124991
N   N15       1.0  0.23520  0.81122  0.33828  1.0000 0.1890642514
N   N16       1.0  0.27750  0.55074  0.45739  1.0000 -0.311444658
N   N17       1.0  0.24080  0.61790  0.39109  1.0000 -0.2442929874
N   N18       1.0  0.30373  0.63896  0.40936  1.0000 0.1575460715
N   N19       1.0  0.20353  0.04180  0.27387  1.0000 -0.311444658
N   N20       1.0  0.21910  0.14780  0.30378  1.0000 -0.2658607679
N   N21       1.0  0.17740  0.11181  0.33727  1.0000 0.1759041419
N   N22       1.0  0.27859  0.38372  0.47921  1.0000 -0.3236092383
N   N23       1.0  0.30860  0.27770  0.45531  1.0000 -0.2489124991
N   N24       1.0  0.24940  0.29711  0.43071  1.0000 0.1759041419
N   N25       1.0  0.27403  0.37782  0.73012  1.0000 -0.311444658
N   N26       1.0  0.26150  0.27010  0.70330  1.0000 -0.2489124991
N   N27       1.0  0.26480  0.31122  0.66172  1.0000 0.1890642514
N   N28       1.0  0.22250  0.05074  0.54261  1.0000 -0.311444658
N   N29       1.0  0.25920  0.11790  0.60891  1.0000 -0.2442929874
N   N30       1.0  0.19627  0.13896  0.59064  1.0000 0.1575460715
N   N31       1.0  0.29647  0.54180  0.72613  1.0000 -0.311444658
N   N32       1.0  0.28090  0.64780  0.69622  1.0000 -0.2658607679
N   N33       1.0  0.32260  0.61181  0.66273  1.0000 0.1759041419
N   N34       1.0  0.22141  0.88372  0.52079  1.0000 -0.3236092383
N   N35       1.0  0.19140  0.77770  0.54469  1.0000 -0.2489124991
N   N36       1.0  0.25060  0.79711  0.56929  1.0000 0.1759041419
N   N37       1.0  0.72597  0.12218  0.23012  1.0000 -0.311444658
N   N38       1.0  0.73850  0.22990  0.20330  1.0000 -0.2489124991
N   N39       1.0  0.73520  0.18878  0.16172  1.0000 0.1890642514
N   N40       1.0  0.77750  0.44926  0.04261  1.0000 -0.311444658
N   N41       1.0  0.74080  0.38210  0.10891  1.0000 -0.2442929874
N   N42       1.0  0.80373  0.36104  0.09064  1.0000 0.1575460715
N   N43       1.0  0.70353  0.95820  0.22613  1.0000 -0.311444658
N   N44       1.0  0.71910  0.85220  0.19622  1.0000 -0.2658607679
N   N45       1.0  0.67740  0.88819  0.16273  1.0000 0.1759041419
N   N46       1.0  0.77859  0.61628  0.02079  1.0000 -0.3236092383
N   N47       1.0  0.80860  0.72230  0.04469  1.0000 -0.2489124991
N   N48       1.0  0.74940  0.70289  0.06929  1.0000 0.1759041419
N   N49       1.0  0.22597  0.37782  0.23012  1.0000 -0.311444658
N   N50       1.0  0.23850  0.27010  0.20330  1.0000 -0.2489124991
N   N51       1.0  0.23520  0.31122  0.16172  1.0000 0.1890642514
N   N52       1.0  0.27750  0.05074  0.04261  1.0000 -0.311444658
N   N53       1.0  0.24080  0.11790  0.10891  1.0000 -0.2442929874
N   N54       1.0  0.30373  0.13896  0.09064  1.0000 0.1575460715
N   N55       1.0  0.20353  0.54180  0.22613  1.0000 -0.311444658
N   N56       1.0  0.21910  0.64780  0.19622  1.0000 -0.2658607679
N   N57       1.0  0.17740  0.61181  0.16273  1.0000 0.1759041419
N   N58       1.0  0.27859  0.88372  0.02079  1.0000 -0.3236092383
N   N59       1.0  0.30860  0.77770  0.04469  1.0000 -0.2489124991
N   N60       1.0  0.24940  0.79711  0.06929  1.0000 0.1759041419
N   N61       1.0  0.77403  0.12218  0.73012  1.0000 -0.311444658
N   N62       1.0  0.76150  0.22990  0.70330  1.0000 -0.2489124991
N   N63       1.0  0.76480  0.18878  0.66172  1.0000 0.1890642514
N   N64       1.0  0.72250  0.44926  0.54261  1.0000 -0.311444658
N   N65       1.0  0.75920  0.38210  0.60891  1.0000 -0.2442929874
N   N66       1.0  0.69627  0.36104  0.59064  1.0000 0.1575460715
N   N67       1.0  0.79647  0.95820  0.72613  1.0000 -0.311444658
N   N68       1.0  0.78090  0.85220  0.69622  1.0000 -0.2658607679
N   N69       1.0  0.82260  0.88819  0.66273  1.0000 0.1759041419
N   N70       1.0  0.72141  0.61628  0.52079  1.0000 -0.3236092383
N   N71       1.0  0.69140  0.72230  0.54469  1.0000 -0.2489124991
N   N72       1.0  0.75060  0.70289  0.56929  1.0000 0.1759041419
N   N73       1.0  0.72597  0.62218  0.26988  1.0000 -0.311444658
N   N74       1.0  0.73850  0.72990  0.29670  1.0000 -0.2489124991
N   N75       1.0  0.73520  0.68878  0.33828  1.0000 0.1890642514
N   N76       1.0  0.77750  0.94926  0.45739  1.0000 -0.311444658
N   N77       1.0  0.74080  0.88210  0.39109  1.0000 -0.2442929874
N   N78       1.0  0.80373  0.86104  0.40936  1.0000 0.1575460715
N   N79       1.0  0.70353  0.45820  0.27387  1.0000 -0.311444658
N   N80       1.0  0.71910  0.35220  0.30378  1.0000 -0.2658607679
N   N81       1.0  0.67740  0.38819  0.33727  1.0000 0.1759041419
N   N82       1.0  0.77859  0.11628  0.47921  1.0000 -0.3236092383
N   N83       1.0  0.80860  0.22230  0.45531  1.0000 -0.2489124991
N   N84       1.0  0.74940  0.20289  0.43071  1.0000 0.1759041419
N   N85       1.0  0.27403  0.87782  0.76988  1.0000 -0.311444658
N   N86       1.0  0.26150  0.77010  0.79670  1.0000 -0.2489124991
N   N87       1.0  0.26480  0.81122  0.83828  1.0000 0.1890642514
N   N88       1.0  0.22250  0.55074  0.95739  1.0000 -0.311444658
N   N89       1.0  0.25920  0.61790  0.89109  1.0000 -0.2442929874
N   N90       1.0  0.19627  0.63896  0.90936  1.0000 0.1575460715
N   N91       1.0  0.29647  0.04180  0.77387  1.0000 -0.311444658
N   N92       1.0  0.28090  0.14780  0.80378  1.0000 -0.2658607679
N   N93       1.0  0.32260  0.11181  0.83727  1.0000 0.1759041419
N   N94       1.0  0.22141  0.38372  0.97921  1.0000 -0.3236092383
N   N95       1.0  0.19140  0.27770  0.95531  1.0000 -0.2489124991
N   N96       1.0  0.25060  0.29711  0.93071  1.0000 0.1759041419
O   O1        1.0  0.37791  0.50110  0.53742  1.0000 -0.560642259
O   O2        1.0  0.37999  0.40472  0.58376  1.0000 -0.5684213842
O   O3        1.0  0.69259  0.60527  0.65407  1.0000 -0.5528641994
O   O4        1.0  0.69772  0.50578  0.69574  1.0000 -0.5684213842
O   O5        1.0  0.85982  0.53731  0.66923  1.0000 -0.5684213842
O   O6        1.0  0.92761  0.54940  0.73967  1.0000 -0.560642259
O   O7        1.0  0.15021  0.47667  0.50931  1.0000 -0.560642259
O   O8        1.0  0.22234  0.48972  0.57761  1.0000 -0.560642259
O   O9        1.0  0.62209  0.99890  0.03742  1.0000 -0.560642259
O   O10       1.0  0.62001  0.09528  0.08376  1.0000 -0.5684213842
O   O11       1.0  0.30741  0.89473  0.15407  1.0000 -0.5528641994
O   O12       1.0  0.30228  0.99422  0.19574  1.0000 -0.5684213842
O   O13       1.0  0.14018  0.96269  0.16923  1.0000 -0.5684213842
O   O14       1.0  0.07239  0.95060  0.23967  1.0000 -0.560642259
O   O15       1.0  0.84979  0.02333  0.00931  1.0000 -0.560642259
O   O16       1.0  0.77766  0.01028  0.07761  1.0000 -0.560642259
O   O17       1.0  0.87791  0.49890  0.96258  1.0000 -0.560642259
O   O18       1.0  0.87999  0.59528  0.91624  1.0000 -0.5684213842
O   O19       1.0  0.19259  0.39473  0.84593  1.0000 -0.5528641994
O   O20       1.0  0.19772  0.49422  0.80426  1.0000 -0.5684213842
O   O21       1.0  0.35982  0.46269  0.83077  1.0000 -0.5684213842
O   O22       1.0  0.42761  0.45060  0.76033  1.0000 -0.560642259
O   O23       1.0  0.65021  0.52333  0.99069  1.0000 -0.560642259
O   O24       1.0  0.72234  0.51028  0.92239  1.0000 -0.560642259
O   O25       1.0  0.12209  0.00110  0.46258  1.0000 -0.560642259
O   O26       1.0  0.12001  0.90472  0.41624  1.0000 -0.5684213842
O   O27       1.0  0.80741  0.10527  0.34593  1.0000 -0.5528641994
O   O28       1.0  0.80228  0.00578  0.30426  1.0000 -0.5684213842
O   O29       1.0  0.64018  0.03731  0.33077  1.0000 -0.5684213842
O   O30       1.0  0.57239  0.04940  0.26033  1.0000 -0.560642259
O   O31       1.0  0.34979  0.97667  0.49069  1.0000 -0.560642259
O   O32       1.0  0.27766  0.98972  0.42239  1.0000 -0.560642259
O   O33       1.0  0.62209  0.49890  0.46258  1.0000 -0.560642259
O   O34       1.0  0.62001  0.59528  0.41624  1.0000 -0.5684213842
O   O35       1.0  0.30741  0.39473  0.34593  1.0000 -0.5528641994
O   O36       1.0  0.30228  0.49422  0.30426  1.0000 -0.5684213842
O   O37       1.0  0.14018  0.46269  0.33077  1.0000 -0.5684213842
O   O38       1.0  0.07239  0.45060  0.26033  1.0000 -0.560642259
O   O39       1.0  0.84979  0.52333  0.49069  1.0000 -0.560642259
O   O40       1.0  0.77766  0.51028  0.42239  1.0000 -0.560642259
O   O41       1.0  0.37791  0.00110  0.96258  1.0000 -0.560642259
O   O42       1.0  0.37999  0.90472  0.91624  1.0000 -0.5684213842
O   O43       1.0  0.69259  0.10527  0.84593  1.0000 -0.5528641994
O   O44       1.0  0.69772  0.00578  0.80426  1.0000 -0.5684213842
O   O45       1.0  0.85982  0.03731  0.83077  1.0000 -0.5684213842
O   O46       1.0  0.92761  0.04940  0.76033  1.0000 -0.560642259
O   O47       1.0  0.15021  0.97667  0.99069  1.0000 -0.560642259
O   O48       1.0  0.22234  0.98972  0.92239  1.0000 -0.560642259
O   O49       1.0  0.12209  0.50110  0.03742  1.0000 -0.560642259
O   O50       1.0  0.12001  0.40472  0.08376  1.0000 -0.5684213842
O   O51       1.0  0.80741  0.60527  0.15407  1.0000 -0.5528641994
O   O52       1.0  0.80228  0.50578  0.19574  1.0000 -0.5684213842
O   O53       1.0  0.64018  0.53731  0.16923  1.0000 -0.5684213842
O   O54       1.0  0.57239  0.54940  0.23967  1.0000 -0.560642259
O   O55       1.0  0.34979  0.47667  0.00931  1.0000 -0.560642259
O   O56       1.0  0.27766  0.48972  0.07761  1.0000 -0.560642259
O   O57       1.0  0.87791  0.99890  0.53742  1.0000 -0.560642259
O   O58       1.0  0.87999  0.09528  0.58376  1.0000 -0.5684213842
O   O59       1.0  0.19259  0.89473  0.65407  1.0000 -0.5528641994
O   O60       1.0  0.19772  0.99422  0.69574  1.0000 -0.5684213842
O   O61       1.0  0.35982  0.96269  0.66923  1.0000 -0.5684213842
O   O62       1.0  0.42761  0.95060  0.73967  1.0000 -0.560642259
O   O63       1.0  0.65021  0.02333  0.50931  1.0000 -0.560642259
O   O64       1.0  0.72234  0.01028  0.57761  1.0000 -0.560642259
