# DDEC6 charges by PACMAN v1.1 (https://github.com/mtap-research/PACMAN-charge/)
data_2017[Co][bnn]3[ASR]2
_chemical_formula_sum              "Co4 H76 C92 N12 O12"
_cell_length_a       10.2335
_cell_length_b       25.3069
_cell_length_c       11.4338
_cell_angle_alpha    90
_cell_angle_beta     91.262
_cell_angle_gamma    90

_symmetry_space_group_name_H-M    "P 1"
_symmetry_Int_Tables_number       1

loop_
  _symmetry_equiv_pos_as_xyz
  'x, y, z'

loop_
  _atom_site_type_symbol
  _atom_site_label
  _atom_site_symmetry_multiplicity
  _atom_site_fract_x
  _atom_site_fract_y
  _atom_site_fract_z
  _atom_site_occupancy
  _atom_site_charge
Co  Co1       1.0  0.54263  0.24235  0.96735  1.0000 0.7388355259
Co  Co2       1.0  0.04096  0.32745  0.96192  1.0000 0.7131418113
Co  Co3       1.0  0.45737  0.74235  0.03265  1.0000 0.7388355259
Co  Co4       1.0  0.95904  0.82745  0.03808  1.0000 0.7176004771
H   H1        1.0  0.96600  0.24290  0.86980  1.0000 0.3311490837
H   H2        1.0  0.72950  0.25920  0.55760  1.0000 0.1214284746
H   H3        1.0  0.35450  0.25620  0.17360  1.0000 0.0993567159
H   H4        1.0  0.72380  0.26140  0.76050  1.0000 0.0993567159
H   H5        1.0  0.72880  0.22110  0.17900  1.0000 0.0993567159
H   H6        1.0  0.35740  0.21480  0.75490  1.0000 0.0912744166
H   H7        1.0  0.34900  0.25220  0.37460  1.0000 0.1214284746
H   H8        1.0  0.35480  0.21150  0.55280  1.0000 0.1214284746
H   H9        1.0  0.73470  0.21720  0.38080  1.0000 0.1214284746
H   H10       1.0  0.13250  0.19220  0.86240  1.0000 0.077679773
H   H11       1.0  0.03160  0.21930  0.15780  1.0000 0.1094744975
H   H12       1.0  0.18670  0.10780  0.94550  1.0000 0.1094744975
H   H13       1.0  0.07590  0.07120  0.27220  1.0000 0.1094744975
H   H14       1.0  0.15370  0.04440  0.09180  1.0000 0.0993567159
H   H15       1.0  0.01500  0.15550  0.30530  1.0000 0.0993567159
H   H16       1.0  0.45500  0.33100  0.03300  1.0000 0.3386901144
H   H17       1.0  0.62360  0.38280  0.03380  1.0000 0.0912744166
H   H18       1.0  0.49270  0.34610  0.75690  1.0000 0.1094744975
H   H19       1.0  0.70130  0.50980  0.76180  1.0000 0.0993567159
H   H20       1.0  0.57750  0.48370  0.59760  1.0000 0.1094744975
H   H21       1.0  0.71400  0.45520  0.92550  1.0000 0.1094744975
H   H22       1.0  0.48000  0.40030  0.59050  1.0000 0.0993567159
H   H23       1.0  0.22550  0.31100  0.75250  1.0000 0.0993567159
H   H24       1.0  0.21950  0.34460  0.17030  1.0000 0.0912744166
H   H25       1.0  0.22870  0.31220  0.55140  1.0000 0.1214284746
H   H26       1.0  0.84610  0.30960  0.17160  1.0000 0.0993567159
H   H27       1.0  0.84320  0.31520  0.37380  1.0000 0.1214284746
H   H28       1.0  0.22790  0.35090  0.37100  1.0000 0.1214284746
H   H29       1.0  0.85400  0.36290  0.54920  1.0000 0.1273077253
H   H30       1.0  0.86540  0.36440  0.74920  1.0000 0.0993567159
H   H31       1.0  0.62200  0.97250  0.08940  1.0000 0.1214284746
H   H32       1.0  0.71780  0.89090  0.11000  1.0000 0.0993567159
H   H33       1.0  0.52050  0.04080  0.98920  1.0000 0.1214284746
H   H34       1.0  0.80110  0.18310  0.96260  1.0000 0.0993567159
H   H35       1.0  0.02170  0.93540  0.93120  1.0000 0.0993567159
H   H36       1.0  0.93600  0.01960  0.90990  1.0000 0.1273077253
H   H37       1.0  0.88640  0.09900  0.97680  1.0000 0.1094744975
H   H38       1.0  0.44300  0.12720  0.98110  1.0000 0.0993567159
H   H39       1.0  0.03400  0.74290  0.13020  1.0000 0.3311490837
H   H40       1.0  0.27050  0.75920  0.44240  1.0000 0.1214284746
H   H41       1.0  0.64550  0.75620  0.82640  1.0000 0.0993567159
H   H42       1.0  0.27620  0.76140  0.23950  1.0000 0.0993567159
H   H43       1.0  0.27120  0.72110  0.82100  1.0000 0.0993567159
H   H44       1.0  0.64260  0.71480  0.24510  1.0000 0.0912744166
H   H45       1.0  0.65100  0.75220  0.62540  1.0000 0.1214284746
H   H46       1.0  0.64520  0.71150  0.44720  1.0000 0.1214284746
H   H47       1.0  0.26530  0.71720  0.61920  1.0000 0.1214284746
H   H48       1.0  0.86750  0.69220  0.13760  1.0000 0.077679773
H   H49       1.0  0.96840  0.71930  0.84220  1.0000 0.1094744975
H   H50       1.0  0.81330  0.60780  0.05450  1.0000 0.1094744975
H   H51       1.0  0.92410  0.57120  0.72780  1.0000 0.1094744975
H   H52       1.0  0.84630  0.54440  0.90820  1.0000 0.0993567159
H   H53       1.0  0.98500  0.65550  0.69470  1.0000 0.0993567159
H   H54       1.0  0.54500  0.83100  0.96700  1.0000 0.3386901144
H   H55       1.0  0.37640  0.88280  0.96620  1.0000 0.0912744166
H   H56       1.0  0.50730  0.84610  0.24310  1.0000 0.1094744975
H   H57       1.0  0.29870  0.00980  0.23820  1.0000 0.0993567159
H   H58       1.0  0.42250  0.98370  0.40240  1.0000 0.1094744975
H   H59       1.0  0.28600  0.95520  0.07450  1.0000 0.1094744975
H   H60       1.0  0.52000  0.90030  0.40950  1.0000 0.0993567159
H   H61       1.0  0.77450  0.81100  0.24750  1.0000 0.0993567159
H   H62       1.0  0.78050  0.84460  0.82970  1.0000 0.0912744166
H   H63       1.0  0.77130  0.81220  0.44860  1.0000 0.1214284746
H   H64       1.0  0.15390  0.80960  0.82840  1.0000 0.0993567159
H   H65       1.0  0.15680  0.81520  0.62620  1.0000 0.1214284746
H   H66       1.0  0.77210  0.85090  0.62900  1.0000 0.1214284746
H   H67       1.0  0.14600  0.86290  0.45080  1.0000 0.1273077253
H   H68       1.0  0.13460  0.86440  0.25080  1.0000 0.0993567159
H   H69       1.0  0.37800  0.47250  0.91060  1.0000 0.1214284746
H   H70       1.0  0.28220  0.39090  0.89000  1.0000 0.0993567159
H   H71       1.0  0.47950  0.54080  0.01080  1.0000 0.1214284746
H   H72       1.0  0.19890  0.68310  0.03740  1.0000 0.0993567159
H   H73       1.0  0.97830  0.43540  0.06880  1.0000 0.0993567159
H   H74       1.0  0.06400  0.51960  0.09010  1.0000 0.1273077253
H   H75       1.0  0.11360  0.59900  0.02320  1.0000 0.1094744975
H   H76       1.0  0.55700  0.62720  0.01890  1.0000 0.0993567159
C   C1        1.0  0.54000  0.23600  0.53100  1.0000 0.0993567159
C   C2        1.0  0.65110  0.25030  0.59610  1.0000 -0.2105110683
C   C3        1.0  0.43270  0.24820  0.21610  1.0000 0.0696535538
C   C4        1.0  0.54160  0.23580  0.40160  1.0000 0.0993567159
C   C5        1.0  0.64700  0.25170  0.71770  1.0000 0.077679773
C   C6        1.0  0.65060  0.22790  0.21970  1.0000 0.0696535538
C   C7        1.0  0.43400  0.22450  0.71470  1.0000 0.0696535538
C   C8        1.0  0.24360  0.24560  0.96160  1.0000 0.5217109744
C   C9        1.0  0.42920  0.24630  0.33630  1.0000 -0.2105110683
C   C10       1.0  0.43220  0.22250  0.59330  1.0000 -0.2105110683
C   C11       1.0  0.65540  0.22560  0.34020  1.0000 -0.2105110683
C   C12       1.0  0.12310  0.21090  0.93880  1.0000 -0.025236544
C   C13       1.0  0.10810  0.17000  0.03560  1.0000 0.0630271269
C   C14       1.0  0.05830  0.18400  0.14370  1.0000 -0.1583661091
C   C15       1.0  0.14850  0.11760  0.01730  1.0000 -0.1694163445
C   C16       1.0  0.08360  0.09650  0.21130  1.0000 -0.117168432
C   C17       1.0  0.13210  0.08040  0.10470  1.0000 -0.117168432
C   C18       1.0  0.04780  0.14590  0.23120  1.0000 -0.1092528708
C   C19       1.0  0.74180  0.32530  0.96290  1.0000 0.5277796809
C   C20       1.0  0.61940  0.35960  0.96310  1.0000 -0.013666502
C   C21       1.0  0.53610  0.37920  0.75740  1.0000 -0.1516400453
C   C22       1.0  0.60740  0.39450  0.85530  1.0000 0.0539301552
C   C23       1.0  0.65820  0.47650  0.76110  1.0000 -0.1092528708
C   C24       1.0  0.58600  0.46060  0.66280  1.0000 -0.117168432
C   C25       1.0  0.66700  0.44390  0.85740  1.0000 -0.1694163445
C   C26       1.0  0.52650  0.41160  0.65880  1.0000 -0.117168432
C   C27       1.0  0.03670  0.33360  0.39640  1.0000 0.0993567159
C   C28       1.0  0.04020  0.33580  0.52580  1.0000 0.0993567159
C   C29       1.0  0.14880  0.32170  0.71050  1.0000 0.0630271269
C   C30       1.0  0.14190  0.33830  0.21220  1.0000 0.0630271269
C   C31       1.0  0.15110  0.32180  0.59030  1.0000 -0.2105110683
C   C32       1.0  0.92500  0.31800  0.21300  1.0000 0.0630271269
C   C33       1.0  0.92230  0.32130  0.33390  1.0000 -0.2105110683
C   C34       1.0  0.14770  0.34220  0.33220  1.0000 -0.2105110683
C   C35       1.0  0.93190  0.35200  0.58890  1.0000 -0.2105110683
C   C36       1.0  0.93920  0.35200  0.70830  1.0000 0.0696535538
C   C37       1.0  0.70550  0.96620  0.05740  1.0000 -0.2105110683
C   C38       1.0  0.71490  0.06030  0.98780  1.0000 0.0993567159
C   C39       1.0  0.76280  0.91740  0.06810  1.0000 0.077679773
C   C40       1.0  0.77060  0.00660  0.99900  1.0000 0.1094744975
C   C41       1.0  0.58020  0.06940  0.98590  1.0000 -0.2105110683
C   C42       1.0  0.74270  0.15420  0.96920  1.0000 0.0696535538
C   C43       1.0  0.93990  0.94320  0.96480  1.0000 0.077679773
C   C44       1.0  0.88880  0.99370  0.95180  1.0000 -0.2105110683
C   C45       1.0  0.79430  0.10370  0.97780  1.0000 -0.1961719196
C   C46       1.0  0.53460  0.12150  0.97910  1.0000 0.077679773
C   C47       1.0  0.46000  0.73600  0.46900  1.0000 0.0993567159
C   C48       1.0  0.34890  0.75030  0.40390  1.0000 -0.2105110683
C   C49       1.0  0.56730  0.74820  0.78390  1.0000 0.0696535538
C   C50       1.0  0.45840  0.73580  0.59840  1.0000 0.0993567159
C   C51       1.0  0.35300  0.75170  0.28230  1.0000 0.077679773
C   C52       1.0  0.34940  0.72790  0.78030  1.0000 0.0696535538
C   C53       1.0  0.56600  0.72450  0.28530  1.0000 0.0696535538
C   C54       1.0  0.75640  0.74560  0.03840  1.0000 0.5217109744
C   C55       1.0  0.57080  0.74630  0.66370  1.0000 -0.2105110683
C   C56       1.0  0.56780  0.72250  0.40670  1.0000 -0.2105110683
C   C57       1.0  0.34460  0.72560  0.65980  1.0000 -0.2155749526
C   C58       1.0  0.87690  0.71090  0.06120  1.0000 -0.025236544
C   C59       1.0  0.89190  0.67000  0.96440  1.0000 0.0630271269
C   C60       1.0  0.94170  0.68400  0.85630  1.0000 -0.1583661091
C   C61       1.0  0.85150  0.61760  0.98270  1.0000 -0.1694163445
C   C62       1.0  0.91640  0.59650  0.78870  1.0000 -0.117168432
C   C63       1.0  0.86790  0.58040  0.89530  1.0000 -0.117168432
C   C64       1.0  0.95220  0.64590  0.76880  1.0000 -0.1092528708
C   C65       1.0  0.25820  0.82530  0.03710  1.0000 0.5277796809
C   C66       1.0  0.38060  0.85960  0.03690  1.0000 -0.013666502
C   C67       1.0  0.46390  0.87920  0.24260  1.0000 -0.1516400453
C   C68       1.0  0.39260  0.89450  0.14470  1.0000 0.0539301552
C   C69       1.0  0.34180  0.97650  0.23890  1.0000 -0.1092528708
C   C70       1.0  0.41400  0.96060  0.33720  1.0000 -0.117168432
C   C71       1.0  0.33300  0.94390  0.14260  1.0000 -0.1694163445
C   C72       1.0  0.47350  0.91160  0.34120  1.0000 -0.117168432
C   C73       1.0  0.96330  0.83360  0.60360  1.0000 0.0993567159
C   C74       1.0  0.95980  0.83580  0.47420  1.0000 0.0993567159
C   C75       1.0  0.85120  0.82170  0.28950  1.0000 0.0630271269
C   C76       1.0  0.85810  0.83830  0.78780  1.0000 0.0630271269
C   C77       1.0  0.84890  0.82180  0.40970  1.0000 -0.2105110683
C   C78       1.0  0.07500  0.81800  0.78700  1.0000 0.0630271269
C   C79       1.0  0.07770  0.82130  0.66610  1.0000 -0.2105110683
C   C80       1.0  0.85230  0.84220  0.66780  1.0000 -0.2105110683
C   C81       1.0  0.06810  0.85200  0.41110  1.0000 -0.2105110683
C   C82       1.0  0.06080  0.85200  0.29170  1.0000 0.0696535538
C   C83       1.0  0.29450  0.46620  0.94260  1.0000 -0.2105110683
C   C84       1.0  0.28510  0.56030  0.01220  1.0000 0.0993567159
C   C85       1.0  0.23720  0.41740  0.93190  1.0000 0.077679773
C   C86       1.0  0.22940  0.50660  0.00100  1.0000 0.1094744975
C   C87       1.0  0.41980  0.56940  0.01410  1.0000 -0.2105110683
C   C88       1.0  0.25730  0.65420  0.03080  1.0000 0.0696535538
C   C89       1.0  0.06010  0.44320  0.03520  1.0000 0.0696535538
C   C90       1.0  0.11120  0.49370  0.04820  1.0000 -0.2105110683
C   C91       1.0  0.20570  0.60370  0.02220  1.0000 -0.1961719196
C   C92       1.0  0.46540  0.62150  0.02090  1.0000 0.077679773
N   N1        1.0  0.54200  0.23910  0.15630  1.0000 -0.2502096396
N   N2        1.0  0.53930  0.23980  0.77700  1.0000 -0.2440681335
N   N3        1.0  0.03320  0.32600  0.15140  1.0000 -0.2440681335
N   N4        1.0  0.04390  0.33580  0.77190  1.0000 -0.2659476277
N   N5        1.0  0.87810  0.90515  0.02300  1.0000 -0.2502096396
N   N6        1.0  0.61340  0.16410  0.96970  1.0000 -0.2585960504
N   N7        1.0  0.45800  0.73910  0.84370  1.0000 -0.2502096396
N   N8        1.0  0.46070  0.73980  0.22300  1.0000 -0.2440681335
N   N9        1.0  0.96680  0.82600  0.84860  1.0000 -0.2440681335
N   N10       1.0  0.95610  0.83580  0.22810  1.0000 -0.2659476277
N   N11       1.0  0.12190  0.40515  0.97700  1.0000 -0.2502096396
N   N12       1.0  0.38660  0.66410  0.03030  1.0000 -0.2585960504
O   O1        1.0  0.34990  0.22075  0.96540  1.0000 -0.5579984065
O   O2        1.0  0.22850  0.29426  0.97350  1.0000 -0.5531682249
O   O3        1.0  0.00770  0.24388  0.93320  1.0000 -0.4732640561
O   O4        1.0  0.84830  0.34959  0.95800  1.0000 -0.5579984065
O   O5        1.0  0.72950  0.27566  0.96920  1.0000 -0.5579984065
O   O6        1.0  0.50690  0.32616  0.97120  1.0000 -0.4934079375
O   O7        1.0  0.65010  0.72075  0.03460  1.0000 -0.5579984065
O   O8        1.0  0.77150  0.79426  0.02650  1.0000 -0.5531682249
O   O9        1.0  0.99230  0.74388  0.06680  1.0000 -0.4750953194
O   O10       1.0  0.15170  0.84959  0.04200  1.0000 -0.5579984065
O   O11       1.0  0.27050  0.77566  0.03080  1.0000 -0.5579984065
O   O12       1.0  0.49310  0.82616  0.02880  1.0000 -0.4934079375
