# DDEC6 charges by PACMAN v1.1 (https://github.com/mtap-research/PACMAN-charge/)
data_2017[Cu][pcu]3[ASR]1
_chemical_formula_sum              "Cu8 H128 C160 N40 O24"
_cell_length_a       13.6907
_cell_length_b       22.2234
_cell_length_c       22.1776
_cell_angle_alpha    90
_cell_angle_beta     90
_cell_angle_gamma    90

_symmetry_space_group_name_H-M    "P 1"
_symmetry_Int_Tables_number       1

loop_
  _symmetry_equiv_pos_as_xyz
  'x, y, z'

loop_
  _atom_site_type_symbol
  _atom_site_label
  _atom_site_symmetry_multiplicity
  _atom_site_fract_x
  _atom_site_fract_y
  _atom_site_fract_z
  _atom_site_occupancy
  _atom_site_charge
Cu  Cu1       1.0  0.25000  0.49450  0.25000  1.0000 0.6537852967
Cu  Cu2       1.0  0.75000  0.50550  0.75000  1.0000 0.6537852967
Cu  Cu3       1.0  0.75000  0.00550  0.75000  1.0000 0.6537852967
Cu  Cu4       1.0  0.25000  0.99450  0.25000  1.0000 0.6537852967
Cu  Cu5       1.0  0.75000  0.99450  0.25000  1.0000 0.6537852967
Cu  Cu6       1.0  0.25000  0.00550  0.75000  1.0000 0.6537852967
Cu  Cu7       1.0  0.25000  0.50550  0.75000  1.0000 0.6537852967
Cu  Cu8       1.0  0.75000  0.49450  0.25000  1.0000 0.6537852967
H   H1        1.0  0.37406  0.28622  0.18788  1.0000 0.1010053726
H   H2        1.0  0.62594  0.71378  0.81212  1.0000 0.1010053726
H   H3        1.0  0.62594  0.21378  0.68788  1.0000 0.1010053726
H   H4        1.0  0.37406  0.78622  0.31212  1.0000 0.1010053726
H   H5        1.0  0.62594  0.78622  0.31212  1.0000 0.1010053726
H   H6        1.0  0.37406  0.21378  0.68788  1.0000 0.1010053726
H   H7        1.0  0.37406  0.71378  0.81212  1.0000 0.1010053726
H   H8        1.0  0.62594  0.28622  0.18788  1.0000 0.1010053726
H   H9        1.0  0.87406  0.78622  0.18788  1.0000 0.1010053726
H   H10       1.0  0.12594  0.21378  0.81212  1.0000 0.1010053726
H   H11       1.0  0.12594  0.71378  0.68788  1.0000 0.1010053726
H   H12       1.0  0.87406  0.28622  0.31212  1.0000 0.1010053726
H   H13       1.0  0.12594  0.28622  0.31212  1.0000 0.1010053726
H   H14       1.0  0.87406  0.71378  0.68788  1.0000 0.1010053726
H   H15       1.0  0.87406  0.21378  0.81212  1.0000 0.1010053726
H   H16       1.0  0.12594  0.78622  0.18788  1.0000 0.1010053726
H   H17       1.0  0.36861  0.39762  0.19175  1.0000 0.0818684528
H   H18       1.0  0.63139  0.60238  0.80825  1.0000 0.0818684528
H   H19       1.0  0.63139  0.10238  0.69175  1.0000 0.0818684528
H   H20       1.0  0.36861  0.89762  0.30825  1.0000 0.0818684528
H   H21       1.0  0.63139  0.89762  0.30825  1.0000 0.0818684528
H   H22       1.0  0.36861  0.10238  0.69175  1.0000 0.0818684528
H   H23       1.0  0.36861  0.60238  0.80825  1.0000 0.0818684528
H   H24       1.0  0.63139  0.39762  0.19175  1.0000 0.0818684528
H   H25       1.0  0.86861  0.89762  0.19175  1.0000 0.0818684528
H   H26       1.0  0.13139  0.10238  0.80825  1.0000 0.0818684528
H   H27       1.0  0.13139  0.60238  0.69175  1.0000 0.0818684528
H   H28       1.0  0.86861  0.39762  0.30825  1.0000 0.0818684528
H   H29       1.0  0.13139  0.39762  0.30825  1.0000 0.0818684528
H   H30       1.0  0.86861  0.60238  0.69175  1.0000 0.0818684528
H   H31       1.0  0.86861  0.10238  0.80825  1.0000 0.0818684528
H   H32       1.0  0.13139  0.89762  0.19175  1.0000 0.0818684528
H   H33       1.0  0.10284  0.54928  0.45589  1.0000 0.112663907
H   H34       1.0  0.89716  0.45072  0.54411  1.0000 0.112663907
H   H35       1.0  0.89716  0.95072  0.95589  1.0000 0.112663907
H   H36       1.0  0.10284  0.04928  0.04411  1.0000 0.112663907
H   H37       1.0  0.89716  0.04928  0.04411  1.0000 0.112663907
H   H38       1.0  0.10284  0.95072  0.95589  1.0000 0.112663907
H   H39       1.0  0.10284  0.45072  0.54411  1.0000 0.112663907
H   H40       1.0  0.89716  0.54928  0.45589  1.0000 0.112663907
H   H41       1.0  0.60284  0.04928  0.45589  1.0000 0.112663907
H   H42       1.0  0.39716  0.95072  0.54411  1.0000 0.112663907
H   H43       1.0  0.39716  0.45072  0.95589  1.0000 0.112663907
H   H44       1.0  0.60284  0.54928  0.04411  1.0000 0.112663907
H   H45       1.0  0.39716  0.54928  0.04411  1.0000 0.112663907
H   H46       1.0  0.60284  0.45072  0.95589  1.0000 0.112663907
H   H47       1.0  0.60284  0.95072  0.54411  1.0000 0.112663907
H   H48       1.0  0.39716  0.04928  0.45589  1.0000 0.112663907
H   H49       1.0  0.37351  0.44661  0.46244  1.0000 0.112663907
H   H50       1.0  0.62649  0.55339  0.53756  1.0000 0.112663907
H   H51       1.0  0.62649  0.05339  0.96244  1.0000 0.112663907
H   H52       1.0  0.37351  0.94661  0.03756  1.0000 0.112663907
H   H53       1.0  0.62649  0.94661  0.03756  1.0000 0.112663907
H   H54       1.0  0.37351  0.05339  0.96244  1.0000 0.112663907
H   H55       1.0  0.37351  0.55339  0.53756  1.0000 0.112663907
H   H56       1.0  0.62649  0.44661  0.46244  1.0000 0.112663907
H   H57       1.0  0.87351  0.94661  0.46244  1.0000 0.112663907
H   H58       1.0  0.12649  0.05339  0.53756  1.0000 0.112663907
H   H59       1.0  0.12649  0.55339  0.96244  1.0000 0.112663907
H   H60       1.0  0.87351  0.44661  0.03756  1.0000 0.112663907
H   H61       1.0  0.12649  0.44661  0.03756  1.0000 0.112663907
H   H62       1.0  0.87351  0.55339  0.96244  1.0000 0.112663907
H   H63       1.0  0.87351  0.05339  0.53756  1.0000 0.112663907
H   H64       1.0  0.12649  0.94661  0.46244  1.0000 0.112663907
H   H65       1.0  0.37254  0.19931  0.18669  1.0000 0.1010053726
H   H66       1.0  0.62746  0.80069  0.81331  1.0000 0.1010053726
H   H67       1.0  0.62746  0.30069  0.68669  1.0000 0.1010053726
H   H68       1.0  0.37254  0.69931  0.31331  1.0000 0.1010053726
H   H69       1.0  0.62746  0.69931  0.31331  1.0000 0.1010053726
H   H70       1.0  0.37254  0.30069  0.68669  1.0000 0.1010053726
H   H71       1.0  0.37254  0.80069  0.81331  1.0000 0.1010053726
H   H72       1.0  0.62746  0.19931  0.18669  1.0000 0.1010053726
H   H73       1.0  0.87254  0.69931  0.18669  1.0000 0.1010053726
H   H74       1.0  0.12746  0.30069  0.81331  1.0000 0.1010053726
H   H75       1.0  0.12746  0.80069  0.68669  1.0000 0.1010053726
H   H76       1.0  0.87254  0.19931  0.31331  1.0000 0.1010053726
H   H77       1.0  0.12746  0.19931  0.31331  1.0000 0.1010053726
H   H78       1.0  0.87254  0.80069  0.68669  1.0000 0.1010053726
H   H79       1.0  0.87254  0.30069  0.81331  1.0000 0.1010053726
H   H80       1.0  0.12746  0.69931  0.18669  1.0000 0.1010053726
H   H81       1.0  0.36711  0.44093  0.34820  1.0000 0.0890785808
H   H82       1.0  0.63289  0.55907  0.65180  1.0000 0.0890785808
H   H83       1.0  0.63289  0.05907  0.84820  1.0000 0.0890785808
H   H84       1.0  0.36711  0.94093  0.15180  1.0000 0.0890785808
H   H85       1.0  0.63289  0.94093  0.15180  1.0000 0.0890785808
H   H86       1.0  0.36711  0.05907  0.84820  1.0000 0.0890785808
H   H87       1.0  0.36711  0.55907  0.65180  1.0000 0.0890785808
H   H88       1.0  0.63289  0.44093  0.34820  1.0000 0.0890785808
H   H89       1.0  0.86711  0.94093  0.34820  1.0000 0.0890785808
H   H90       1.0  0.13289  0.05907  0.65180  1.0000 0.0890785808
H   H91       1.0  0.13289  0.55907  0.84820  1.0000 0.0890785808
H   H92       1.0  0.86711  0.44093  0.15180  1.0000 0.0890785808
H   H93       1.0  0.13289  0.44093  0.15180  1.0000 0.0890785808
H   H94       1.0  0.86711  0.55907  0.84820  1.0000 0.0890785808
H   H95       1.0  0.86711  0.05907  0.65180  1.0000 0.0890785808
H   H96       1.0  0.13289  0.94093  0.34820  1.0000 0.0890785808
H   H97       1.0  0.11368  0.54355  0.34156  1.0000 0.0890785808
H   H98       1.0  0.88632  0.45645  0.65844  1.0000 0.0890785808
H   H99       1.0  0.88632  0.95645  0.84156  1.0000 0.0890785808
H   H100      1.0  0.11368  0.04355  0.15844  1.0000 0.0890785808
H   H101      1.0  0.88632  0.04355  0.15844  1.0000 0.0890785808
H   H102      1.0  0.11368  0.95645  0.84156  1.0000 0.0890785808
H   H103      1.0  0.11368  0.45645  0.65844  1.0000 0.0890785808
H   H104      1.0  0.88632  0.54355  0.34156  1.0000 0.0890785808
H   H105      1.0  0.61368  0.04355  0.34156  1.0000 0.0890785808
H   H106      1.0  0.38632  0.95645  0.65844  1.0000 0.0890785808
H   H107      1.0  0.38632  0.45645  0.84156  1.0000 0.0890785808
H   H108      1.0  0.61368  0.54355  0.15844  1.0000 0.0890785808
H   H109      1.0  0.38632  0.54355  0.15844  1.0000 0.0890785808
H   H110      1.0  0.61368  0.45645  0.84156  1.0000 0.0890785808
H   H111      1.0  0.61368  0.95645  0.65844  1.0000 0.0890785808
H   H112      1.0  0.38632  0.04355  0.34156  1.0000 0.0890785808
H   H113      1.0  0.36582  0.08778  0.18937  1.0000 0.0890785808
H   H114      1.0  0.63418  0.91222  0.81063  1.0000 0.0890785808
H   H115      1.0  0.63418  0.41222  0.68937  1.0000 0.0890785808
H   H116      1.0  0.36582  0.58778  0.31063  1.0000 0.0890785808
H   H117      1.0  0.63418  0.58778  0.31063  1.0000 0.0890785808
H   H118      1.0  0.36582  0.41222  0.68937  1.0000 0.0890785808
H   H119      1.0  0.36582  0.91222  0.81063  1.0000 0.0890785808
H   H120      1.0  0.63418  0.08778  0.18937  1.0000 0.0890785808
H   H121      1.0  0.86582  0.58778  0.18937  1.0000 0.0890785808
H   H122      1.0  0.13418  0.41222  0.81063  1.0000 0.0890785808
H   H123      1.0  0.13418  0.91222  0.68937  1.0000 0.0890785808
H   H124      1.0  0.86582  0.08778  0.31063  1.0000 0.0890785808
H   H125      1.0  0.13418  0.08778  0.31063  1.0000 0.0890785808
H   H126      1.0  0.86582  0.91222  0.68937  1.0000 0.0890785808
H   H127      1.0  0.86582  0.41222  0.81063  1.0000 0.0890785808
H   H128      1.0  0.13418  0.58778  0.18937  1.0000 0.0890785808
C   C1        1.0  0.25000  0.27534  0.25000  1.0000 0.0890785808
C   C2        1.0  0.75000  0.72466  0.75000  1.0000 0.0890785808
C   C3        1.0  0.75000  0.22466  0.75000  1.0000 0.0890785808
C   C4        1.0  0.25000  0.77534  0.25000  1.0000 0.0890785808
C   C5        1.0  0.75000  0.77534  0.25000  1.0000 0.0890785808
C   C6        1.0  0.25000  0.22466  0.75000  1.0000 0.0890785808
C   C7        1.0  0.25000  0.72466  0.75000  1.0000 0.0890785808
C   C8        1.0  0.75000  0.27534  0.25000  1.0000 0.0890785808
C   C9        1.0  0.31852  0.30835  0.21564  1.0000 -0.1770999379
C   C10       1.0  0.68148  0.69165  0.78436  1.0000 -0.1770999379
C   C11       1.0  0.68148  0.19165  0.71564  1.0000 -0.1770999379
C   C12       1.0  0.31852  0.80835  0.28436  1.0000 -0.1770999379
C   C13       1.0  0.68148  0.80835  0.28436  1.0000 -0.1770999379
C   C14       1.0  0.31852  0.19165  0.71564  1.0000 -0.1770999379
C   C15       1.0  0.31852  0.69165  0.78436  1.0000 -0.1770999379
C   C16       1.0  0.68148  0.30835  0.21564  1.0000 -0.1770999379
C   C17       1.0  0.81852  0.80835  0.21564  1.0000 -0.1770999379
C   C18       1.0  0.18148  0.19165  0.78436  1.0000 -0.1770999379
C   C19       1.0  0.18148  0.69165  0.71564  1.0000 -0.1770999379
C   C20       1.0  0.81852  0.30835  0.28436  1.0000 -0.1770999379
C   C21       1.0  0.18148  0.30835  0.28436  1.0000 -0.1770999379
C   C22       1.0  0.81852  0.69165  0.71564  1.0000 -0.1770999379
C   C23       1.0  0.81852  0.19165  0.78436  1.0000 -0.1770999379
C   C24       1.0  0.18148  0.80835  0.21564  1.0000 -0.1770999379
C   C25       1.0  0.31625  0.37045  0.21722  1.0000 0.0890785808
C   C26       1.0  0.68375  0.62955  0.78278  1.0000 0.0890785808
C   C27       1.0  0.68375  0.12955  0.71722  1.0000 0.0890785808
C   C28       1.0  0.31625  0.87045  0.28278  1.0000 0.0890785808
C   C29       1.0  0.68375  0.87045  0.28278  1.0000 0.0890785808
C   C30       1.0  0.31625  0.12955  0.71722  1.0000 0.0890785808
C   C31       1.0  0.31625  0.62955  0.78278  1.0000 0.0890785808
C   C32       1.0  0.68375  0.37045  0.21722  1.0000 0.0890785808
C   C33       1.0  0.81625  0.87045  0.21722  1.0000 0.0890785808
C   C34       1.0  0.18375  0.12955  0.78278  1.0000 0.0890785808
C   C35       1.0  0.18375  0.62955  0.71722  1.0000 0.0890785808
C   C36       1.0  0.81625  0.37045  0.28278  1.0000 0.0890785808
C   C37       1.0  0.18375  0.37045  0.28278  1.0000 0.0890785808
C   C38       1.0  0.81625  0.62955  0.71722  1.0000 0.0890785808
C   C39       1.0  0.81625  0.12955  0.78278  1.0000 0.0890785808
C   C40       1.0  0.18375  0.87045  0.21722  1.0000 0.0890785808
C   C41       1.0  0.25000  0.21025  0.25000  1.0000 0.0890785808
C   C42       1.0  0.75000  0.78975  0.75000  1.0000 0.0890785808
C   C43       1.0  0.75000  0.28975  0.75000  1.0000 0.0890785808
C   C44       1.0  0.25000  0.71025  0.25000  1.0000 0.0890785808
C   C45       1.0  0.75000  0.71025  0.25000  1.0000 0.0890785808
C   C46       1.0  0.25000  0.28975  0.75000  1.0000 0.0890785808
C   C47       1.0  0.25000  0.78975  0.75000  1.0000 0.0890785808
C   C48       1.0  0.75000  0.21025  0.25000  1.0000 0.0890785808
C   C49       1.0  0.23846  0.49850  0.46709  1.0000 0.0890785808
C   C50       1.0  0.76154  0.50150  0.53291  1.0000 0.0890785808
C   C51       1.0  0.76154  0.00150  0.96709  1.0000 0.0890785808
C   C52       1.0  0.23846  0.99850  0.03291  1.0000 0.0890785808
C   C53       1.0  0.76154  0.99850  0.03291  1.0000 0.0890785808
C   C54       1.0  0.23846  0.00150  0.96709  1.0000 0.0890785808
C   C55       1.0  0.23846  0.50150  0.53291  1.0000 0.0890785808
C   C56       1.0  0.76154  0.49850  0.46709  1.0000 0.0890785808
C   C57       1.0  0.73846  0.99850  0.46709  1.0000 0.0890785808
C   C58       1.0  0.26154  0.00150  0.53291  1.0000 0.0890785808
C   C59       1.0  0.26154  0.50150  0.96709  1.0000 0.0890785808
C   C60       1.0  0.73846  0.49850  0.03291  1.0000 0.0890785808
C   C61       1.0  0.26154  0.49850  0.03291  1.0000 0.0890785808
C   C62       1.0  0.73846  0.50150  0.96709  1.0000 0.0890785808
C   C63       1.0  0.73846  0.00150  0.53291  1.0000 0.0890785808
C   C64       1.0  0.26154  0.99850  0.46709  1.0000 0.0890785808
C   C65       1.0  0.16327  0.52553  0.43364  1.0000 -0.1910779002
C   C66       1.0  0.83673  0.47447  0.56636  1.0000 -0.1910779002
C   C67       1.0  0.83673  0.97447  0.93364  1.0000 -0.1910779002
C   C68       1.0  0.16327  0.02553  0.06636  1.0000 -0.1910779002
C   C69       1.0  0.83673  0.02553  0.06636  1.0000 -0.1910779002
C   C70       1.0  0.16327  0.97447  0.93364  1.0000 -0.1910779002
C   C71       1.0  0.16327  0.47447  0.56636  1.0000 -0.1910779002
C   C72       1.0  0.83673  0.52553  0.43364  1.0000 -0.1910779002
C   C73       1.0  0.66327  0.02553  0.43364  1.0000 -0.1910779002
C   C74       1.0  0.33673  0.97447  0.56636  1.0000 -0.1910779002
C   C75       1.0  0.33673  0.47447  0.93364  1.0000 -0.1910779002
C   C76       1.0  0.66327  0.52553  0.06636  1.0000 -0.1910779002
C   C77       1.0  0.33673  0.52553  0.06636  1.0000 -0.1910779002
C   C78       1.0  0.66327  0.47447  0.93364  1.0000 -0.1910779002
C   C79       1.0  0.66327  0.97447  0.56636  1.0000 -0.1910779002
C   C80       1.0  0.33673  0.02553  0.43364  1.0000 -0.1910779002
C   C81       1.0  0.31498  0.46904  0.43708  1.0000 -0.1770999379
C   C82       1.0  0.68502  0.53096  0.56292  1.0000 -0.1770999379
C   C83       1.0  0.68502  0.03096  0.93708  1.0000 -0.1770999379
C   C84       1.0  0.31498  0.96904  0.06292  1.0000 -0.1770999379
C   C85       1.0  0.68502  0.96904  0.06292  1.0000 -0.1770999379
C   C86       1.0  0.31498  0.03096  0.93708  1.0000 -0.1770999379
C   C87       1.0  0.31498  0.53096  0.56292  1.0000 -0.1770999379
C   C88       1.0  0.68502  0.46904  0.43708  1.0000 -0.1770999379
C   C89       1.0  0.81498  0.96904  0.43708  1.0000 -0.1770999379
C   C90       1.0  0.18502  0.03096  0.56292  1.0000 -0.1770999379
C   C91       1.0  0.18502  0.53096  0.93708  1.0000 -0.1770999379
C   C92       1.0  0.81498  0.46904  0.06292  1.0000 -0.1770999379
C   C93       1.0  0.18502  0.46904  0.06292  1.0000 -0.1770999379
C   C94       1.0  0.81498  0.53096  0.93708  1.0000 -0.1770999379
C   C95       1.0  0.81498  0.03096  0.56292  1.0000 -0.1770999379
C   C96       1.0  0.18502  0.96904  0.43708  1.0000 -0.1770999379
C   C97       1.0  0.31758  0.17710  0.21494  1.0000 -0.1770999379
C   C98       1.0  0.68242  0.82290  0.78506  1.0000 -0.1770999379
C   C99       1.0  0.68242  0.32290  0.71494  1.0000 -0.1770999379
C   C100      1.0  0.31758  0.67710  0.28506  1.0000 -0.1770999379
C   C101      1.0  0.68242  0.67710  0.28506  1.0000 -0.1770999379
C   C102      1.0  0.31758  0.32290  0.71494  1.0000 -0.1770999379
C   C103      1.0  0.31758  0.82290  0.78506  1.0000 -0.1770999379
C   C104      1.0  0.68242  0.17710  0.21494  1.0000 -0.1770999379
C   C105      1.0  0.81758  0.67710  0.21494  1.0000 -0.1770999379
C   C106      1.0  0.18242  0.32290  0.78506  1.0000 -0.1770999379
C   C107      1.0  0.18242  0.82290  0.71494  1.0000 -0.1770999379
C   C108      1.0  0.81758  0.17710  0.28506  1.0000 -0.1770999379
C   C109      1.0  0.18242  0.17710  0.28506  1.0000 -0.1770999379
C   C110      1.0  0.81758  0.82290  0.71494  1.0000 -0.1770999379
C   C111      1.0  0.81758  0.32290  0.78506  1.0000 -0.1770999379
C   C112      1.0  0.18242  0.67710  0.21494  1.0000 -0.1770999379
C   C113      1.0  0.31189  0.46535  0.37455  1.0000 0.0818684528
C   C114      1.0  0.68811  0.53465  0.62545  1.0000 0.0818684528
C   C115      1.0  0.68811  0.03465  0.87455  1.0000 0.0818684528
C   C116      1.0  0.31189  0.96535  0.12545  1.0000 0.0818684528
C   C117      1.0  0.68811  0.96535  0.12545  1.0000 0.0818684528
C   C118      1.0  0.31189  0.03465  0.87455  1.0000 0.0818684528
C   C119      1.0  0.31189  0.53465  0.62545  1.0000 0.0818684528
C   C120      1.0  0.68811  0.46535  0.37455  1.0000 0.0818684528
C   C121      1.0  0.81189  0.96535  0.37455  1.0000 0.0818684528
C   C122      1.0  0.18811  0.03465  0.62545  1.0000 0.0818684528
C   C123      1.0  0.18811  0.53465  0.87455  1.0000 0.0818684528
C   C124      1.0  0.81189  0.46535  0.12545  1.0000 0.0818684528
C   C125      1.0  0.18811  0.46535  0.12545  1.0000 0.0818684528
C   C126      1.0  0.81189  0.53465  0.87455  1.0000 0.0818684528
C   C127      1.0  0.81189  0.03465  0.62545  1.0000 0.0818684528
C   C128      1.0  0.18811  0.96535  0.37455  1.0000 0.0818684528
C   C129      1.0  0.16782  0.52226  0.37117  1.0000 0.0890785808
C   C130      1.0  0.83218  0.47774  0.62883  1.0000 0.0890785808
C   C131      1.0  0.83218  0.97774  0.87117  1.0000 0.0890785808
C   C132      1.0  0.16782  0.02226  0.12883  1.0000 0.0890785808
C   C133      1.0  0.83218  0.02226  0.12883  1.0000 0.0890785808
C   C134      1.0  0.16782  0.97774  0.87117  1.0000 0.0890785808
C   C135      1.0  0.16782  0.47774  0.62883  1.0000 0.0890785808
C   C136      1.0  0.83218  0.52226  0.37117  1.0000 0.0890785808
C   C137      1.0  0.66782  0.02226  0.37117  1.0000 0.0890785808
C   C138      1.0  0.33218  0.97774  0.62883  1.0000 0.0890785808
C   C139      1.0  0.33218  0.47774  0.87117  1.0000 0.0890785808
C   C140      1.0  0.66782  0.52226  0.12883  1.0000 0.0890785808
C   C141      1.0  0.33218  0.52226  0.12883  1.0000 0.0890785808
C   C142      1.0  0.66782  0.47774  0.87117  1.0000 0.0890785808
C   C143      1.0  0.66782  0.97774  0.62883  1.0000 0.0890785808
C   C144      1.0  0.33218  0.02226  0.37117  1.0000 0.0890785808
C   C145      1.0  0.31485  0.11504  0.21588  1.0000 0.0818684528
C   C146      1.0  0.68515  0.88496  0.78412  1.0000 0.0818684528
C   C147      1.0  0.68515  0.38496  0.71588  1.0000 0.0818684528
C   C148      1.0  0.31485  0.61504  0.28412  1.0000 0.0818684528
C   C149      1.0  0.68515  0.61504  0.28412  1.0000 0.0818684528
C   C150      1.0  0.31485  0.38496  0.71588  1.0000 0.0818684528
C   C151      1.0  0.31485  0.88496  0.78412  1.0000 0.0818684528
C   C152      1.0  0.68515  0.11504  0.21588  1.0000 0.0818684528
C   C153      1.0  0.81485  0.61504  0.21588  1.0000 0.0818684528
C   C154      1.0  0.18515  0.38496  0.78412  1.0000 0.0818684528
C   C155      1.0  0.18515  0.88496  0.71588  1.0000 0.0818684528
C   C156      1.0  0.81485  0.11504  0.28412  1.0000 0.0818684528
C   C157      1.0  0.18515  0.11504  0.28412  1.0000 0.0818684528
C   C158      1.0  0.81485  0.88496  0.71588  1.0000 0.0818684528
C   C159      1.0  0.81485  0.38496  0.78412  1.0000 0.0818684528
C   C160      1.0  0.18515  0.61504  0.21588  1.0000 0.0818684528
N   N1        1.0  0.25000  0.40169  0.25000  1.0000 -0.2399077993
N   N2        1.0  0.75000  0.59831  0.75000  1.0000 -0.2399077993
N   N3        1.0  0.75000  0.09831  0.75000  1.0000 -0.2399077993
N   N4        1.0  0.25000  0.90169  0.25000  1.0000 -0.2399077993
N   N5        1.0  0.75000  0.90169  0.25000  1.0000 -0.2399077993
N   N6        1.0  0.25000  0.09831  0.75000  1.0000 -0.2399077993
N   N7        1.0  0.25000  0.59831  0.75000  1.0000 -0.2399077993
N   N8        1.0  0.75000  0.40169  0.25000  1.0000 -0.2399077993
N   N9        1.0  0.23896  0.49121  0.34229  1.0000 -0.2399077993
N   N10       1.0  0.76104  0.50879  0.65771  1.0000 -0.2399077993
N   N11       1.0  0.76104  0.00879  0.84229  1.0000 -0.2399077993
N   N12       1.0  0.23896  0.99121  0.15771  1.0000 -0.2399077993
N   N13       1.0  0.76104  0.99121  0.15771  1.0000 -0.2399077993
N   N14       1.0  0.23896  0.00879  0.84229  1.0000 -0.2399077993
N   N15       1.0  0.23896  0.50879  0.65771  1.0000 -0.2399077993
N   N16       1.0  0.76104  0.49121  0.34229  1.0000 -0.2399077993
N   N17       1.0  0.73896  0.99121  0.34229  1.0000 -0.2399077993
N   N18       1.0  0.26104  0.00879  0.65771  1.0000 -0.2399077993
N   N19       1.0  0.26104  0.50879  0.84229  1.0000 -0.2399077993
N   N20       1.0  0.73896  0.49121  0.15771  1.0000 -0.2399077993
N   N21       1.0  0.26104  0.49121  0.15771  1.0000 -0.2399077993
N   N22       1.0  0.73896  0.50879  0.84229  1.0000 -0.2399077993
N   N23       1.0  0.73896  0.00879  0.65771  1.0000 -0.2399077993
N   N24       1.0  0.26104  0.99121  0.34229  1.0000 -0.2399077993
N   N25       1.0  0.25000  0.08360  0.25000  1.0000 -0.2399077993
N   N26       1.0  0.75000  0.91640  0.75000  1.0000 -0.2399077993
N   N27       1.0  0.75000  0.41640  0.75000  1.0000 -0.2399077993
N   N28       1.0  0.25000  0.58360  0.25000  1.0000 -0.2399077993
N   N29       1.0  0.75000  0.58360  0.25000  1.0000 -0.2399077993
N   N30       1.0  0.25000  0.41640  0.75000  1.0000 -0.2399077993
N   N31       1.0  0.25000  0.91640  0.75000  1.0000 -0.2399077993
N   N32       1.0  0.75000  0.08360  0.25000  1.0000 -0.2399077993
N   N33       1.0  0.50000  0.47267  0.26575  1.0000 0.710676738
N   N34       1.0  0.50000  0.52733  0.73425  1.0000 0.710676738
N   N35       1.0  0.50000  0.02733  0.76575  1.0000 0.710676738
N   N36       1.0  0.50000  0.97267  0.23425  1.0000 0.710676738
N   N37       1.0  0.00000  0.97267  0.26575  1.0000 0.710676738
N   N38       1.0  0.00000  0.02733  0.73425  1.0000 0.710676738
N   N39       1.0  0.00000  0.52733  0.76575  1.0000 0.710676738
N   N40       1.0  0.00000  0.47267  0.23425  1.0000 0.710676738
O   O1        1.0  0.41978  0.49924  0.25174  1.0000 -0.5315919435
O   O2        1.0  0.58022  0.50076  0.74826  1.0000 -0.5315919435
O   O3        1.0  0.58022  0.00076  0.75174  1.0000 -0.5315919435
O   O4        1.0  0.41978  0.99924  0.24826  1.0000 -0.5315919435
O   O5        1.0  0.58022  0.99924  0.24826  1.0000 -0.5315919435
O   O6        1.0  0.41978  0.00076  0.75174  1.0000 -0.5315919435
O   O7        1.0  0.41978  0.50076  0.74826  1.0000 -0.5315919435
O   O8        1.0  0.58022  0.49924  0.25174  1.0000 -0.5315919435
O   O9        1.0  0.91978  0.99924  0.25174  1.0000 -0.5315919435
O   O10       1.0  0.08022  0.00076  0.74826  1.0000 -0.5315919435
O   O11       1.0  0.08022  0.50076  0.75174  1.0000 -0.5315919435
O   O12       1.0  0.91978  0.49924  0.24826  1.0000 -0.5315919435
O   O13       1.0  0.08022  0.49924  0.24826  1.0000 -0.5315919435
O   O14       1.0  0.91978  0.50076  0.75174  1.0000 -0.5315919435
O   O15       1.0  0.91978  0.00076  0.74826  1.0000 -0.5315919435
O   O16       1.0  0.08022  0.99924  0.25174  1.0000 -0.5315919435
O   O17       1.0  0.50000  0.42189  0.29275  1.0000 -0.4898794881
O   O18       1.0  0.50000  0.57811  0.70725  1.0000 -0.4898794881
O   O19       1.0  0.50000  0.07811  0.79275  1.0000 -0.4898794881
O   O20       1.0  0.50000  0.92189  0.20725  1.0000 -0.4898794881
O   O21       1.0  0.00000  0.92189  0.29275  1.0000 -0.4898794881
O   O22       1.0  0.00000  0.07811  0.70725  1.0000 -0.4898794881
O   O23       1.0  0.00000  0.57811  0.79275  1.0000 -0.4898794881
O   O24       1.0  0.00000  0.42189  0.20725  1.0000 -0.4898794881
