# DDEC6 charges by PACMAN v1.1 (https://github.com/mtap-research/PACMAN-charge/)
data_2017[Zr][bcu]3[ASR]1
_chemical_formula_sum              "Zr24 H192 C256 O96"
_cell_length_a       35.126
_cell_length_b       35.126
_cell_length_c       11.239
_cell_angle_alpha    90
_cell_angle_beta     90
_cell_angle_gamma    90

_symmetry_space_group_name_H-M    "P 1"
_symmetry_Int_Tables_number       1

loop_
  _symmetry_equiv_pos_as_xyz
  'x, y, z'

loop_
  _atom_site_type_symbol
  _atom_site_label
  _atom_site_symmetry_multiplicity
  _atom_site_fract_x
  _atom_site_fract_y
  _atom_site_fract_z
  _atom_site_occupancy
  _atom_site_charge
Zr  Zr1       1.0  0.29942  0.70058  0.25000  1.0000 2.3616722109
Zr  Zr2       1.0  0.20058  0.20058  0.75000  1.0000 2.3616722109
Zr  Zr3       1.0  0.70058  0.29942  0.25000  1.0000 2.3616722109
Zr  Zr4       1.0  0.79943  0.79943  0.75000  1.0000 2.3616722109
Zr  Zr5       1.0  0.20058  0.79943  0.25000  1.0000 2.3616722109
Zr  Zr6       1.0  0.29942  0.29942  0.75000  1.0000 2.3616722109
Zr  Zr7       1.0  0.79943  0.20058  0.25000  1.0000 2.3616722109
Zr  Zr8       1.0  0.70058  0.70058  0.75000  1.0000 2.3616722109
Zr  Zr9       1.0  0.29368  0.79369  0.36240  1.0000 2.4934058966
Zr  Zr10      1.0  0.29368  0.20631  0.86240  1.0000 2.4934058966
Zr  Zr11      1.0  0.70632  0.20631  0.36240  1.0000 2.4934058966
Zr  Zr12      1.0  0.70632  0.79369  0.86240  1.0000 2.4934058966
Zr  Zr13      1.0  0.20631  0.29368  0.63760  1.0000 2.4934058966
Zr  Zr14      1.0  0.79369  0.70632  0.63760  1.0000 2.4934058966
Zr  Zr15      1.0  0.79369  0.29368  0.13760  1.0000 2.4934058966
Zr  Zr16      1.0  0.20631  0.70632  0.13760  1.0000 2.4934058966
Zr  Zr17      1.0  0.27536  0.77536  0.05905  1.0000 2.4695837381
Zr  Zr18      1.0  0.27536  0.22465  0.55905  1.0000 2.4695837381
Zr  Zr19      1.0  0.72465  0.22465  0.05905  1.0000 2.4695837381
Zr  Zr20      1.0  0.72465  0.77536  0.55905  1.0000 2.4695837381
Zr  Zr21      1.0  0.22465  0.27536  0.94095  1.0000 2.4695837381
Zr  Zr22      1.0  0.77536  0.72465  0.94095  1.0000 2.4695837381
Zr  Zr23      1.0  0.77536  0.27536  0.44095  1.0000 2.4695837381
Zr  Zr24      1.0  0.22465  0.72465  0.44095  1.0000 2.4695837381
H   H1        1.0  0.20080  0.02679  0.61050  1.0000 0.1089574716
H   H2        1.0  0.52680  0.29920  0.11050  1.0000 0.1089574716
H   H3        1.0  0.79921  0.97321  0.61050  1.0000 0.1089574716
H   H4        1.0  0.47321  0.70079  0.11050  1.0000 0.1089574716
H   H5        1.0  0.29920  0.52680  0.38950  1.0000 0.1089574716
H   H6        1.0  0.70079  0.47321  0.38950  1.0000 0.1089574716
H   H7        1.0  0.02679  0.20080  0.88950  1.0000 0.1089574716
H   H8        1.0  0.97321  0.79921  0.88950  1.0000 0.1089574716
H   H9        1.0  0.29920  0.47321  0.88950  1.0000 0.1089574716
H   H10       1.0  0.97321  0.20080  0.38950  1.0000 0.1089574716
H   H11       1.0  0.70079  0.52680  0.88950  1.0000 0.1089574716
H   H12       1.0  0.02679  0.79921  0.38950  1.0000 0.1089574716
H   H13       1.0  0.20080  0.97321  0.11050  1.0000 0.1089574716
H   H14       1.0  0.79921  0.02679  0.11050  1.0000 0.1089574716
H   H15       1.0  0.47321  0.29920  0.61050  1.0000 0.1089574716
H   H16       1.0  0.52680  0.70079  0.61050  1.0000 0.1089574716
H   H17       1.0  0.19370  0.09219  0.64320  1.0000 0.1089574716
H   H18       1.0  0.59220  0.30631  0.14320  1.0000 0.1089574716
H   H19       1.0  0.80631  0.90781  0.64320  1.0000 0.1089574716
H   H20       1.0  0.40780  0.69370  0.14320  1.0000 0.1089574716
H   H21       1.0  0.30631  0.59220  0.35680  1.0000 0.1089574716
H   H22       1.0  0.69370  0.40780  0.35680  1.0000 0.1089574716
H   H23       1.0  0.09219  0.19370  0.85680  1.0000 0.1089574716
H   H24       1.0  0.90781  0.80631  0.85680  1.0000 0.1089574716
H   H25       1.0  0.30631  0.40780  0.85680  1.0000 0.1089574716
H   H26       1.0  0.90781  0.19370  0.35680  1.0000 0.1089574716
H   H27       1.0  0.69370  0.59220  0.85680  1.0000 0.1089574716
H   H28       1.0  0.09219  0.80631  0.35680  1.0000 0.1089574716
H   H29       1.0  0.19370  0.90781  0.14320  1.0000 0.1089574716
H   H30       1.0  0.80631  0.09219  0.14320  1.0000 0.1089574716
H   H31       1.0  0.40780  0.30631  0.64320  1.0000 0.1089574716
H   H32       1.0  0.59220  0.69370  0.64320  1.0000 0.1089574716
H   H33       1.0  0.17769  0.98220  0.39890  1.0000 0.1191397509
H   H34       1.0  0.48220  0.32231  0.89890  1.0000 0.1191397509
H   H35       1.0  0.82230  0.01781  0.39890  1.0000 0.1191397509
H   H36       1.0  0.51780  0.67770  0.89890  1.0000 0.1191397509
H   H37       1.0  0.32231  0.48220  0.60110  1.0000 0.1191397509
H   H38       1.0  0.67770  0.51780  0.60110  1.0000 0.1191397509
H   H39       1.0  0.98220  0.17769  0.10110  1.0000 0.1191397509
H   H40       1.0  0.01781  0.82230  0.10110  1.0000 0.1191397509
H   H41       1.0  0.32231  0.51780  0.10110  1.0000 0.1191397509
H   H42       1.0  0.01781  0.17769  0.60110  1.0000 0.1191397509
H   H43       1.0  0.67770  0.48220  0.10110  1.0000 0.1191397509
H   H44       1.0  0.98220  0.82230  0.60110  1.0000 0.1191397509
H   H45       1.0  0.17769  0.01781  0.89890  1.0000 0.1191397509
H   H46       1.0  0.82230  0.98220  0.89890  1.0000 0.1191397509
H   H47       1.0  0.51780  0.32231  0.39890  1.0000 0.1191397509
H   H48       1.0  0.48220  0.67770  0.39890  1.0000 0.1191397509
H   H49       1.0  0.18080  0.91666  0.36500  1.0000 0.1191397509
H   H50       1.0  0.41666  0.31921  0.86500  1.0000 0.1191397509
H   H51       1.0  0.81920  0.08334  0.36500  1.0000 0.1191397509
H   H52       1.0  0.58334  0.68080  0.86500  1.0000 0.1191397509
H   H53       1.0  0.31921  0.41666  0.63500  1.0000 0.1191397509
H   H54       1.0  0.68080  0.58334  0.63500  1.0000 0.1191397509
H   H55       1.0  0.91666  0.18080  0.13500  1.0000 0.1191397509
H   H56       1.0  0.08334  0.81920  0.13500  1.0000 0.1191397509
H   H57       1.0  0.31921  0.58334  0.13500  1.0000 0.1191397509
H   H58       1.0  0.08334  0.18080  0.63500  1.0000 0.1191397509
H   H59       1.0  0.68080  0.41666  0.13500  1.0000 0.1191397509
H   H60       1.0  0.91666  0.81920  0.63500  1.0000 0.1191397509
H   H61       1.0  0.18080  0.08334  0.86500  1.0000 0.1191397509
H   H62       1.0  0.81920  0.91666  0.86500  1.0000 0.1191397509
H   H63       1.0  0.58334  0.31921  0.36500  1.0000 0.1191397509
H   H64       1.0  0.41666  0.68080  0.36500  1.0000 0.1191397509
H   H65       1.0  0.29440  0.91880  0.42710  1.0000 0.1191397509
H   H66       1.0  0.41879  0.20561  0.92710  1.0000 0.1191397509
H   H67       1.0  0.70561  0.08120  0.42710  1.0000 0.1191397509
H   H68       1.0  0.58120  0.79439  0.92710  1.0000 0.1191397509
H   H69       1.0  0.20561  0.41879  0.57290  1.0000 0.1191397509
H   H70       1.0  0.79439  0.58120  0.57290  1.0000 0.1191397509
H   H71       1.0  0.91880  0.29440  0.07290  1.0000 0.1191397509
H   H72       1.0  0.08120  0.70561  0.07290  1.0000 0.1191397509
H   H73       1.0  0.20561  0.58120  0.07290  1.0000 0.1191397509
H   H74       1.0  0.08120  0.29440  0.57290  1.0000 0.1191397509
H   H75       1.0  0.79439  0.41879  0.07290  1.0000 0.1191397509
H   H76       1.0  0.91880  0.70561  0.57290  1.0000 0.1191397509
H   H77       1.0  0.29440  0.08120  0.92710  1.0000 0.1191397509
H   H78       1.0  0.70561  0.91880  0.92710  1.0000 0.1191397509
H   H79       1.0  0.58120  0.20561  0.42710  1.0000 0.1191397509
H   H80       1.0  0.41879  0.79439  0.42710  1.0000 0.1191397509
H   H81       1.0  0.28599  0.03380  0.26140  1.0000 0.1286110246
H   H82       1.0  0.53380  0.21401  0.76140  1.0000 0.1286110246
H   H83       1.0  0.71401  0.96620  0.26140  1.0000 0.1286110246
H   H84       1.0  0.46620  0.78599  0.76140  1.0000 0.1286110246
H   H85       1.0  0.21401  0.53380  0.73860  1.0000 0.1286110246
H   H86       1.0  0.78599  0.46620  0.73860  1.0000 0.1286110246
H   H87       1.0  0.03380  0.28599  0.23860  1.0000 0.1286110246
H   H88       1.0  0.96620  0.71401  0.23860  1.0000 0.1286110246
H   H89       1.0  0.21401  0.46620  0.23860  1.0000 0.1286110246
H   H90       1.0  0.96620  0.28599  0.73860  1.0000 0.1286110246
H   H91       1.0  0.78599  0.53380  0.23860  1.0000 0.1286110246
H   H92       1.0  0.03380  0.71401  0.73860  1.0000 0.1286110246
H   H93       1.0  0.28599  0.96620  0.76140  1.0000 0.1286110246
H   H94       1.0  0.71401  0.03380  0.76140  1.0000 0.1286110246
H   H95       1.0  0.46620  0.21401  0.26140  1.0000 0.1286110246
H   H96       1.0  0.53380  0.78599  0.26140  1.0000 0.1286110246
H   H97       1.0  0.24449  0.03240  0.20280  1.0000 0.1191397509
H   H98       1.0  0.53239  0.25551  0.70280  1.0000 0.1191397509
H   H99       1.0  0.75550  0.96761  0.20280  1.0000 0.1191397509
H   H100      1.0  0.46760  0.74450  0.70280  1.0000 0.1191397509
H   H101      1.0  0.25551  0.53239  0.79720  1.0000 0.1191397509
H   H102      1.0  0.74450  0.46760  0.79720  1.0000 0.1191397509
H   H103      1.0  0.03240  0.24449  0.29720  1.0000 0.1191397509
H   H104      1.0  0.96761  0.75550  0.29720  1.0000 0.1191397509
H   H105      1.0  0.25551  0.46760  0.29720  1.0000 0.1191397509
H   H106      1.0  0.96761  0.24449  0.79720  1.0000 0.1191397509
H   H107      1.0  0.74450  0.53239  0.29720  1.0000 0.1191397509
H   H108      1.0  0.03240  0.75550  0.79720  1.0000 0.1191397509
H   H109      1.0  0.24449  0.96761  0.70280  1.0000 0.1191397509
H   H110      1.0  0.75550  0.03240  0.70280  1.0000 0.1191397509
H   H111      1.0  0.46760  0.25551  0.20280  1.0000 0.1191397509
H   H112      1.0  0.53239  0.74450  0.20280  1.0000 0.1191397509
H   H113      1.0  0.26770  0.07160  0.20630  1.0000 0.1286110246
H   H114      1.0  0.57159  0.23231  0.70630  1.0000 0.1286110246
H   H115      1.0  0.73231  0.92841  0.20630  1.0000 0.1286110246
H   H116      1.0  0.42841  0.76770  0.70630  1.0000 0.1286110246
H   H117      1.0  0.23231  0.57159  0.79370  1.0000 0.1286110246
H   H118      1.0  0.76770  0.42841  0.79370  1.0000 0.1286110246
H   H119      1.0  0.07160  0.26770  0.29370  1.0000 0.1286110246
H   H120      1.0  0.92841  0.73231  0.29370  1.0000 0.1286110246
H   H121      1.0  0.23231  0.42841  0.29370  1.0000 0.1286110246
H   H122      1.0  0.92841  0.26770  0.79370  1.0000 0.1286110246
H   H123      1.0  0.76770  0.57159  0.29370  1.0000 0.1286110246
H   H124      1.0  0.07160  0.73231  0.79370  1.0000 0.1286110246
H   H125      1.0  0.26770  0.92841  0.70630  1.0000 0.1286110246
H   H126      1.0  0.73231  0.07160  0.70630  1.0000 0.1286110246
H   H127      1.0  0.42841  0.23231  0.20630  1.0000 0.1286110246
H   H128      1.0  0.57159  0.76770  0.20630  1.0000 0.1286110246
H   H129      1.0  0.24990  0.11410  0.33580  1.0000 0.1191397509
H   H130      1.0  0.61409  0.25011  0.83580  1.0000 0.1191397509
H   H131      1.0  0.75011  0.88591  0.33580  1.0000 0.1191397509
H   H132      1.0  0.38590  0.74989  0.83580  1.0000 0.1191397509
H   H133      1.0  0.25011  0.61409  0.66420  1.0000 0.1191397509
H   H134      1.0  0.74989  0.38590  0.66420  1.0000 0.1191397509
H   H135      1.0  0.11410  0.24990  0.16420  1.0000 0.1191397509
H   H136      1.0  0.88591  0.75011  0.16420  1.0000 0.1191397509
H   H137      1.0  0.25011  0.38590  0.16420  1.0000 0.1191397509
H   H138      1.0  0.88591  0.24990  0.66420  1.0000 0.1191397509
H   H139      1.0  0.74989  0.61409  0.16420  1.0000 0.1191397509
H   H140      1.0  0.11410  0.75011  0.66420  1.0000 0.1191397509
H   H141      1.0  0.24990  0.88591  0.83580  1.0000 0.1191397509
H   H142      1.0  0.75011  0.11410  0.83580  1.0000 0.1191397509
H   H143      1.0  0.38590  0.25011  0.33580  1.0000 0.1191397509
H   H144      1.0  0.61409  0.74989  0.33580  1.0000 0.1191397509
H   H145      1.0  0.32749  0.97340  0.48350  1.0000 0.1286110246
H   H146      1.0  0.47340  0.17250  0.98350  1.0000 0.1286110246
H   H147      1.0  0.67251  0.02661  0.48350  1.0000 0.1286110246
H   H148      1.0  0.52660  0.82750  0.98350  1.0000 0.1286110246
H   H149      1.0  0.17250  0.47340  0.51650  1.0000 0.1286110246
H   H150      1.0  0.82750  0.52660  0.51650  1.0000 0.1286110246
H   H151      1.0  0.97340  0.32749  0.01650  1.0000 0.1286110246
H   H152      1.0  0.02661  0.67251  0.01650  1.0000 0.1286110246
H   H153      1.0  0.17250  0.52660  0.01650  1.0000 0.1286110246
H   H154      1.0  0.02661  0.32749  0.51650  1.0000 0.1286110246
H   H155      1.0  0.82750  0.47340  0.01650  1.0000 0.1286110246
H   H156      1.0  0.97340  0.67251  0.51650  1.0000 0.1286110246
H   H157      1.0  0.32749  0.02661  0.98350  1.0000 0.1286110246
H   H158      1.0  0.67251  0.97340  0.98350  1.0000 0.1286110246
H   H159      1.0  0.52660  0.17250  0.48350  1.0000 0.1286110246
H   H160      1.0  0.47340  0.82750  0.48350  1.0000 0.1286110246
H   H161      1.0  0.31360  0.00959  0.40900  1.0000 0.1191397509
H   H162      1.0  0.50960  0.18640  0.90900  1.0000 0.1191397509
H   H163      1.0  0.68641  0.99040  0.40900  1.0000 0.1191397509
H   H164      1.0  0.49041  0.81359  0.90900  1.0000 0.1191397509
H   H165      1.0  0.18640  0.50960  0.59100  1.0000 0.1191397509
H   H166      1.0  0.81359  0.49041  0.59100  1.0000 0.1191397509
H   H167      1.0  0.00959  0.31360  0.09100  1.0000 0.1191397509
H   H168      1.0  0.99040  0.68641  0.09100  1.0000 0.1191397509
H   H169      1.0  0.18640  0.49041  0.09100  1.0000 0.1191397509
H   H170      1.0  0.99040  0.31360  0.59100  1.0000 0.1191397509
H   H171      1.0  0.81359  0.50960  0.09100  1.0000 0.1191397509
H   H172      1.0  0.00959  0.68641  0.59100  1.0000 0.1191397509
H   H173      1.0  0.31360  0.99040  0.90900  1.0000 0.1191397509
H   H174      1.0  0.68641  0.00959  0.90900  1.0000 0.1191397509
H   H175      1.0  0.49041  0.18640  0.40900  1.0000 0.1191397509
H   H176      1.0  0.50960  0.81359  0.40900  1.0000 0.1191397509
H   H177      1.0  0.30350  0.00630  0.54750  1.0000 0.1286110246
H   H178      1.0  0.50630  0.19651  0.04750  1.0000 0.1286110246
H   H179      1.0  0.69651  0.99370  0.54750  1.0000 0.1286110246
H   H180      1.0  0.49371  0.80349  0.04750  1.0000 0.1286110246
H   H181      1.0  0.19651  0.50630  0.45250  1.0000 0.1286110246
H   H182      1.0  0.80349  0.49371  0.45250  1.0000 0.1286110246
H   H183      1.0  0.00630  0.30350  0.95250  1.0000 0.1286110246
H   H184      1.0  0.99370  0.69651  0.95250  1.0000 0.1286110246
H   H185      1.0  0.19651  0.49371  0.95250  1.0000 0.1286110246
H   H186      1.0  0.99370  0.30350  0.45250  1.0000 0.1286110246
H   H187      1.0  0.80349  0.50630  0.95250  1.0000 0.1286110246
H   H188      1.0  0.00630  0.69651  0.45250  1.0000 0.1286110246
H   H189      1.0  0.30350  0.99370  0.04750  1.0000 0.1286110246
H   H190      1.0  0.69651  0.00630  0.04750  1.0000 0.1286110246
H   H191      1.0  0.49371  0.19651  0.54750  1.0000 0.1286110246
H   H192      1.0  0.50630  0.80349  0.54750  1.0000 0.1286110246
C   C1        1.0  0.21079  0.04455  0.55480  1.0000 -0.170612207
C   C2        1.0  0.54456  0.28921  0.05480  1.0000 -0.170612207
C   C3        1.0  0.78921  0.95544  0.55480  1.0000 -0.170612207
C   C4        1.0  0.45544  0.71079  0.05480  1.0000 -0.170612207
C   C5        1.0  0.28921  0.54456  0.44520  1.0000 -0.170612207
C   C6        1.0  0.71079  0.45544  0.44520  1.0000 -0.170612207
C   C7        1.0  0.04455  0.21079  0.94520  1.0000 -0.170612207
C   C8        1.0  0.95544  0.78921  0.94520  1.0000 -0.170612207
C   C9        1.0  0.28921  0.45544  0.94520  1.0000 -0.170612207
C   C10       1.0  0.95544  0.21079  0.44520  1.0000 -0.170612207
C   C11       1.0  0.71079  0.54456  0.94520  1.0000 -0.170612207
C   C12       1.0  0.04455  0.78921  0.44520  1.0000 -0.170612207
C   C13       1.0  0.21079  0.95544  0.05480  1.0000 -0.170612207
C   C14       1.0  0.78921  0.04455  0.05480  1.0000 -0.170612207
C   C15       1.0  0.45544  0.28921  0.55480  1.0000 -0.170612207
C   C16       1.0  0.54456  0.71079  0.55480  1.0000 -0.170612207
C   C17       1.0  0.24421  0.05751  0.37210  1.0000 0.1191397509
C   C18       1.0  0.55751  0.25579  0.87210  1.0000 0.1191397509
C   C19       1.0  0.75579  0.94249  0.37210  1.0000 0.1191397509
C   C20       1.0  0.44249  0.74421  0.87210  1.0000 0.1191397509
C   C21       1.0  0.25579  0.55751  0.62790  1.0000 0.1191397509
C   C22       1.0  0.74421  0.44249  0.62790  1.0000 0.1191397509
C   C23       1.0  0.05751  0.24421  0.12790  1.0000 0.1191397509
C   C24       1.0  0.94249  0.75579  0.12790  1.0000 0.1191397509
C   C25       1.0  0.25579  0.44249  0.12790  1.0000 0.1191397509
C   C26       1.0  0.94249  0.24421  0.62790  1.0000 0.1191397509
C   C27       1.0  0.74421  0.55751  0.12790  1.0000 0.1191397509
C   C28       1.0  0.05751  0.75579  0.62790  1.0000 0.1191397509
C   C29       1.0  0.24421  0.94249  0.87210  1.0000 0.1191397509
C   C30       1.0  0.75579  0.05751  0.87210  1.0000 0.1191397509
C   C31       1.0  0.44249  0.25579  0.37210  1.0000 0.1191397509
C   C32       1.0  0.55751  0.74421  0.37210  1.0000 0.1191397509
C   C33       1.0  0.20652  0.08338  0.57420  1.0000 -0.1014925545
C   C34       1.0  0.58337  0.29347  0.07420  1.0000 -0.1014925545
C   C35       1.0  0.79348  0.91663  0.57420  1.0000 -0.1014925545
C   C36       1.0  0.41663  0.70652  0.07420  1.0000 -0.1014925545
C   C37       1.0  0.29347  0.58337  0.42580  1.0000 -0.1014925545
C   C38       1.0  0.70652  0.41663  0.42580  1.0000 -0.1014925545
C   C39       1.0  0.08338  0.20652  0.92580  1.0000 -0.1014925545
C   C40       1.0  0.91663  0.79348  0.92580  1.0000 -0.1014925545
C   C41       1.0  0.29347  0.41663  0.92580  1.0000 -0.1014925545
C   C42       1.0  0.91663  0.20652  0.42580  1.0000 -0.1014925545
C   C43       1.0  0.70652  0.58337  0.92580  1.0000 -0.1014925545
C   C44       1.0  0.08338  0.79348  0.42580  1.0000 -0.1014925545
C   C45       1.0  0.20652  0.91663  0.07420  1.0000 -0.1014925545
C   C46       1.0  0.79348  0.08338  0.07420  1.0000 -0.1014925545
C   C47       1.0  0.41663  0.29347  0.57420  1.0000 -0.1014925545
C   C48       1.0  0.58337  0.70652  0.57420  1.0000 -0.1014925545
C   C49       1.0  0.22112  0.10931  0.49250  1.0000 -0.0507232077
C   C50       1.0  0.60932  0.27888  0.99250  1.0000 -0.0507232077
C   C51       1.0  0.77889  0.89068  0.49250  1.0000 -0.0507232077
C   C52       1.0  0.39069  0.72111  0.99250  1.0000 -0.0507232077
C   C53       1.0  0.27888  0.60932  0.50750  1.0000 -0.0507232077
C   C54       1.0  0.72111  0.39069  0.50750  1.0000 -0.0507232077
C   C55       1.0  0.10931  0.22112  0.00750  1.0000 -0.0507232077
C   C56       1.0  0.89068  0.77889  0.00750  1.0000 -0.0507232077
C   C57       1.0  0.27888  0.39069  0.00750  1.0000 -0.0507232077
C   C58       1.0  0.89068  0.22112  0.50750  1.0000 -0.0507232077
C   C59       1.0  0.72111  0.60932  0.00750  1.0000 -0.0507232077
C   C60       1.0  0.10931  0.77889  0.50750  1.0000 -0.0507232077
C   C61       1.0  0.22112  0.89068  0.99250  1.0000 -0.0507232077
C   C62       1.0  0.77889  0.10931  0.99250  1.0000 -0.0507232077
C   C63       1.0  0.39069  0.27888  0.49250  1.0000 -0.0507232077
C   C64       1.0  0.60932  0.72111  0.49250  1.0000 -0.0507232077
C   C65       1.0  0.20137  0.96932  0.40460  1.0000 -0.170612207
C   C66       1.0  0.46931  0.29862  0.90460  1.0000 -0.170612207
C   C67       1.0  0.79863  0.03069  0.40460  1.0000 -0.170612207
C   C68       1.0  0.53069  0.70138  0.90460  1.0000 -0.170612207
C   C69       1.0  0.29862  0.46931  0.59540  1.0000 -0.170612207
C   C70       1.0  0.70138  0.53069  0.59540  1.0000 -0.170612207
C   C71       1.0  0.96932  0.20137  0.09540  1.0000 -0.170612207
C   C72       1.0  0.03069  0.79863  0.09540  1.0000 -0.170612207
C   C73       1.0  0.29862  0.53069  0.09540  1.0000 -0.170612207
C   C74       1.0  0.03069  0.20137  0.59540  1.0000 -0.170612207
C   C75       1.0  0.70138  0.46931  0.09540  1.0000 -0.170612207
C   C76       1.0  0.96932  0.79863  0.59540  1.0000 -0.170612207
C   C77       1.0  0.20137  0.03069  0.90460  1.0000 -0.170612207
C   C78       1.0  0.79863  0.96932  0.90460  1.0000 -0.170612207
C   C79       1.0  0.53069  0.29862  0.40460  1.0000 -0.170612207
C   C80       1.0  0.46931  0.70138  0.40460  1.0000 -0.170612207
C   C81       1.0  0.20323  0.93032  0.38450  1.0000 -0.1122872318
C   C82       1.0  0.43032  0.29677  0.88450  1.0000 -0.1122872318
C   C83       1.0  0.79676  0.06968  0.38450  1.0000 -0.1122872318
C   C84       1.0  0.56968  0.70324  0.88450  1.0000 -0.1122872318
C   C85       1.0  0.29677  0.43032  0.61550  1.0000 -0.1122872318
C   C86       1.0  0.70324  0.56968  0.61550  1.0000 -0.1122872318
C   C87       1.0  0.93032  0.20323  0.11550  1.0000 -0.1122872318
C   C88       1.0  0.06968  0.79676  0.11550  1.0000 -0.1122872318
C   C89       1.0  0.29677  0.56968  0.11550  1.0000 -0.1122872318
C   C90       1.0  0.06968  0.20323  0.61550  1.0000 -0.1122872318
C   C91       1.0  0.70324  0.43032  0.11550  1.0000 -0.1122872318
C   C92       1.0  0.93032  0.79676  0.61550  1.0000 -0.1122872318
C   C93       1.0  0.20323  0.06968  0.88450  1.0000 -0.1122872318
C   C94       1.0  0.79676  0.93032  0.88450  1.0000 -0.1122872318
C   C95       1.0  0.56968  0.29677  0.38450  1.0000 -0.1122872318
C   C96       1.0  0.43032  0.70324  0.38450  1.0000 -0.1122872318
C   C97       1.0  0.23792  0.91149  0.39290  1.0000 -0.0574147401
C   C98       1.0  0.41148  0.26208  0.89290  1.0000 -0.0574147401
C   C99       1.0  0.76207  0.08851  0.39290  1.0000 -0.0574147401
C   C100      1.0  0.58852  0.73793  0.89290  1.0000 -0.0574147401
C   C101      1.0  0.26208  0.41148  0.60710  1.0000 -0.0574147401
C   C102      1.0  0.73793  0.58852  0.60710  1.0000 -0.0574147401
C   C103      1.0  0.91149  0.23792  0.10710  1.0000 -0.0574147401
C   C104      1.0  0.08851  0.76207  0.10710  1.0000 -0.0574147401
C   C105      1.0  0.26208  0.58852  0.10710  1.0000 -0.0574147401
C   C106      1.0  0.08851  0.23792  0.60710  1.0000 -0.0574147401
C   C107      1.0  0.73793  0.41148  0.10710  1.0000 -0.0574147401
C   C108      1.0  0.91149  0.76207  0.60710  1.0000 -0.0574147401
C   C109      1.0  0.23792  0.08851  0.89290  1.0000 -0.0574147401
C   C110      1.0  0.76207  0.91149  0.89290  1.0000 -0.0574147401
C   C111      1.0  0.58852  0.26208  0.39290  1.0000 -0.0574147401
C   C112      1.0  0.41148  0.73793  0.39290  1.0000 -0.0574147401
C   C113      1.0  0.26887  0.97065  0.44150  1.0000 0.1089574716
C   C114      1.0  0.47064  0.23112  0.94150  1.0000 0.1089574716
C   C115      1.0  0.73113  0.02935  0.44150  1.0000 0.1089574716
C   C116      1.0  0.52936  0.76887  0.94150  1.0000 0.1089574716
C   C117      1.0  0.23112  0.47064  0.55850  1.0000 0.1089574716
C   C118      1.0  0.76887  0.52936  0.55850  1.0000 0.1089574716
C   C119      1.0  0.97065  0.26887  0.05850  1.0000 0.1089574716
C   C120      1.0  0.02935  0.73113  0.05850  1.0000 0.1089574716
C   C121      1.0  0.23112  0.52936  0.05850  1.0000 0.1089574716
C   C122      1.0  0.02935  0.26887  0.55850  1.0000 0.1089574716
C   C123      1.0  0.76887  0.47064  0.05850  1.0000 0.1089574716
C   C124      1.0  0.97065  0.73113  0.55850  1.0000 0.1089574716
C   C125      1.0  0.26887  0.02935  0.94150  1.0000 0.1089574716
C   C126      1.0  0.73113  0.97065  0.94150  1.0000 0.1089574716
C   C127      1.0  0.52936  0.23112  0.44150  1.0000 0.1089574716
C   C128      1.0  0.47064  0.76887  0.44150  1.0000 0.1089574716
C   C129      1.0  0.27074  0.93163  0.42140  1.0000 -0.170612207
C   C130      1.0  0.43163  0.22926  0.92140  1.0000 -0.170612207
C   C131      1.0  0.72927  0.06836  0.42140  1.0000 -0.170612207
C   C132      1.0  0.56837  0.77073  0.92140  1.0000 -0.170612207
C   C133      1.0  0.22926  0.43163  0.57860  1.0000 -0.170612207
C   C134      1.0  0.77073  0.56837  0.57860  1.0000 -0.170612207
C   C135      1.0  0.93163  0.27074  0.07860  1.0000 -0.170612207
C   C136      1.0  0.06836  0.72927  0.07860  1.0000 -0.170612207
C   C137      1.0  0.22926  0.56837  0.07860  1.0000 -0.170612207
C   C138      1.0  0.06836  0.27074  0.57860  1.0000 -0.170612207
C   C139      1.0  0.77073  0.43163  0.07860  1.0000 -0.170612207
C   C140      1.0  0.93163  0.72927  0.57860  1.0000 -0.170612207
C   C141      1.0  0.27074  0.06836  0.92140  1.0000 -0.170612207
C   C142      1.0  0.72927  0.93163  0.92140  1.0000 -0.170612207
C   C143      1.0  0.56837  0.22926  0.42140  1.0000 -0.170612207
C   C144      1.0  0.43163  0.77073  0.42140  1.0000 -0.170612207
C   C145      1.0  0.26230  0.04790  0.24930  1.0000 -0.4586230075
C   C146      1.0  0.54790  0.23770  0.74930  1.0000 -0.4586230075
C   C147      1.0  0.73771  0.95211  0.24930  1.0000 -0.4586230075
C   C148      1.0  0.45210  0.76229  0.74930  1.0000 -0.4586230075
C   C149      1.0  0.23770  0.54790  0.75070  1.0000 -0.4586230075
C   C150      1.0  0.76229  0.45210  0.75070  1.0000 -0.4586230075
C   C151      1.0  0.04790  0.26230  0.25070  1.0000 -0.4586230075
C   C152      1.0  0.95211  0.73771  0.25070  1.0000 -0.4586230075
C   C153      1.0  0.23770  0.45210  0.25070  1.0000 -0.4586230075
C   C154      1.0  0.95211  0.26230  0.75070  1.0000 -0.4586230075
C   C155      1.0  0.76229  0.54790  0.25070  1.0000 -0.4586230075
C   C156      1.0  0.04790  0.73771  0.75070  1.0000 -0.4586230075
C   C157      1.0  0.26230  0.95211  0.74930  1.0000 -0.4586230075
C   C158      1.0  0.73771  0.04790  0.74930  1.0000 -0.4586230075
C   C159      1.0  0.45210  0.23770  0.24930  1.0000 -0.4586230075
C   C160      1.0  0.54790  0.76229  0.24930  1.0000 -0.4586230075
C   C161      1.0  0.23994  0.09641  0.39160  1.0000 -0.170612207
C   C162      1.0  0.59640  0.26006  0.89160  1.0000 -0.170612207
C   C163      1.0  0.76006  0.90360  0.39160  1.0000 -0.170612207
C   C164      1.0  0.40359  0.73994  0.89160  1.0000 -0.170612207
C   C165      1.0  0.26006  0.59640  0.60840  1.0000 -0.170612207
C   C166      1.0  0.73994  0.40359  0.60840  1.0000 -0.170612207
C   C167      1.0  0.09641  0.23994  0.10840  1.0000 -0.170612207
C   C168      1.0  0.90360  0.76006  0.10840  1.0000 -0.170612207
C   C169      1.0  0.26006  0.40359  0.10840  1.0000 -0.170612207
C   C170      1.0  0.90360  0.23994  0.60840  1.0000 -0.170612207
C   C171      1.0  0.73994  0.59640  0.10840  1.0000 -0.170612207
C   C172      1.0  0.09641  0.76006  0.60840  1.0000 -0.170612207
C   C173      1.0  0.23994  0.90360  0.89160  1.0000 -0.170612207
C   C174      1.0  0.76006  0.09641  0.89160  1.0000 -0.170612207
C   C175      1.0  0.40359  0.26006  0.39160  1.0000 -0.170612207
C   C176      1.0  0.59640  0.73994  0.39160  1.0000 -0.170612207
C   C177      1.0  0.22964  0.03166  0.45360  1.0000 0.0129882763
C   C178      1.0  0.53165  0.27036  0.95360  1.0000 0.0129882763
C   C179      1.0  0.77036  0.96835  0.45360  1.0000 0.0129882763
C   C180      1.0  0.46835  0.72964  0.95360  1.0000 0.0129882763
C   C181      1.0  0.27036  0.53165  0.54640  1.0000 0.0129882763
C   C182      1.0  0.72964  0.46835  0.54640  1.0000 0.0129882763
C   C183      1.0  0.03166  0.22964  0.04640  1.0000 0.0129882763
C   C184      1.0  0.96835  0.77036  0.04640  1.0000 0.0129882763
C   C185      1.0  0.27036  0.46835  0.04640  1.0000 0.0129882763
C   C186      1.0  0.96835  0.22964  0.54640  1.0000 0.0129882763
C   C187      1.0  0.72964  0.53165  0.04640  1.0000 0.0129882763
C   C188      1.0  0.03166  0.77036  0.54640  1.0000 0.0129882763
C   C189      1.0  0.22964  0.96835  0.95360  1.0000 0.0129882763
C   C190      1.0  0.77036  0.03166  0.95360  1.0000 0.0129882763
C   C191      1.0  0.46835  0.27036  0.45360  1.0000 0.0129882763
C   C192      1.0  0.53165  0.72964  0.45360  1.0000 0.0129882763
C   C193      1.0  0.22090  0.15060  0.52110  1.0000 0.6337326201
C   C194      1.0  0.65060  0.27910  0.02110  1.0000 0.6337326201
C   C195      1.0  0.77911  0.84940  0.52110  1.0000 0.6337326201
C   C196      1.0  0.34941  0.72089  0.02110  1.0000 0.6337326201
C   C197      1.0  0.27910  0.65060  0.47890  1.0000 0.6337326201
C   C198      1.0  0.72089  0.34941  0.47890  1.0000 0.6337326201
C   C199      1.0  0.15060  0.22090  0.97890  1.0000 0.6337326201
C   C200      1.0  0.84940  0.77911  0.97890  1.0000 0.6337326201
C   C201      1.0  0.27910  0.34941  0.97890  1.0000 0.6337326201
C   C202      1.0  0.84940  0.22090  0.47890  1.0000 0.6337326201
C   C203      1.0  0.72089  0.65060  0.97890  1.0000 0.6337326201
C   C204      1.0  0.15060  0.77911  0.47890  1.0000 0.6337326201
C   C205      1.0  0.22090  0.84940  0.02110  1.0000 0.6337326201
C   C206      1.0  0.77911  0.15060  0.02110  1.0000 0.6337326201
C   C207      1.0  0.34941  0.27910  0.52110  1.0000 0.6337326201
C   C208      1.0  0.65060  0.72089  0.52110  1.0000 0.6337326201
C   C209      1.0  0.23419  0.98950  0.43300  1.0000 0.0129882763
C   C210      1.0  0.48950  0.26582  0.93300  1.0000 0.0129882763
C   C211      1.0  0.76582  0.01051  0.43300  1.0000 0.0129882763
C   C212      1.0  0.51050  0.73418  0.93300  1.0000 0.0129882763
C   C213      1.0  0.26582  0.48950  0.56700  1.0000 0.0129882763
C   C214      1.0  0.73418  0.51050  0.56700  1.0000 0.0129882763
C   C215      1.0  0.98950  0.23419  0.06700  1.0000 0.0129882763
C   C216      1.0  0.01051  0.76582  0.06700  1.0000 0.0129882763
C   C217      1.0  0.26582  0.51050  0.06700  1.0000 0.0129882763
C   C218      1.0  0.01051  0.23419  0.56700  1.0000 0.0129882763
C   C219      1.0  0.73418  0.48950  0.06700  1.0000 0.0129882763
C   C220      1.0  0.98950  0.76582  0.56700  1.0000 0.0129882763
C   C221      1.0  0.23419  0.01051  0.93300  1.0000 0.0129882763
C   C222      1.0  0.76582  0.98950  0.93300  1.0000 0.0129882763
C   C223      1.0  0.51050  0.26582  0.43300  1.0000 0.0129882763
C   C224      1.0  0.48950  0.73418  0.43300  1.0000 0.0129882763
C   C225      1.0  0.23992  0.87009  0.37150  1.0000 0.6194222155
C   C226      1.0  0.37010  0.26008  0.87150  1.0000 0.6194222155
C   C227      1.0  0.76007  0.12990  0.37150  1.0000 0.6194222155
C   C228      1.0  0.62991  0.73993  0.87150  1.0000 0.6194222155
C   C229      1.0  0.26008  0.37010  0.62850  1.0000 0.6194222155
C   C230      1.0  0.73993  0.62991  0.62850  1.0000 0.6194222155
C   C231      1.0  0.87009  0.23992  0.12850  1.0000 0.6194222155
C   C232      1.0  0.12990  0.76007  0.12850  1.0000 0.6194222155
C   C233      1.0  0.26008  0.62991  0.12850  1.0000 0.6194222155
C   C234      1.0  0.12990  0.23992  0.62850  1.0000 0.6194222155
C   C235      1.0  0.73993  0.37010  0.12850  1.0000 0.6194222155
C   C236      1.0  0.87009  0.76007  0.62850  1.0000 0.6194222155
C   C237      1.0  0.23992  0.12990  0.87150  1.0000 0.6194222155
C   C238      1.0  0.76007  0.87009  0.87150  1.0000 0.6194222155
C   C239      1.0  0.62991  0.26008  0.37150  1.0000 0.6194222155
C   C240      1.0  0.37010  0.73993  0.37150  1.0000 0.6194222155
C   C241      1.0  0.30700  0.99199  0.47340  1.0000 -0.4427768891
C   C242      1.0  0.49199  0.19301  0.97340  1.0000 -0.4427768891
C   C243      1.0  0.69300  0.00800  0.47340  1.0000 -0.4427768891
C   C244      1.0  0.50801  0.80700  0.97340  1.0000 -0.4427768891
C   C245      1.0  0.19301  0.49199  0.52660  1.0000 -0.4427768891
C   C246      1.0  0.80700  0.50801  0.52660  1.0000 -0.4427768891
C   C247      1.0  0.99199  0.30700  0.02660  1.0000 -0.4427768891
C   C248      1.0  0.00800  0.69300  0.02660  1.0000 -0.4427768891
C   C249      1.0  0.19301  0.50801  0.02660  1.0000 -0.4427768891
C   C250      1.0  0.00800  0.30700  0.52660  1.0000 -0.4427768891
C   C251      1.0  0.80700  0.49199  0.02660  1.0000 -0.4427768891
C   C252      1.0  0.99199  0.69300  0.52660  1.0000 -0.4427768891
C   C253      1.0  0.30700  0.00800  0.97340  1.0000 -0.4427768891
C   C254      1.0  0.69300  0.99199  0.97340  1.0000 -0.4427768891
C   C255      1.0  0.50801  0.19301  0.47340  1.0000 -0.4427768891
C   C256      1.0  0.49199  0.80700  0.47340  1.0000 -0.4427768891
O   O1        1.0  0.20993  0.85433  0.33440  1.0000 -0.570858494
O   O2        1.0  0.35433  0.29008  0.83440  1.0000 -0.570858494
O   O3        1.0  0.79008  0.14567  0.33440  1.0000 -0.570858494
O   O4        1.0  0.64567  0.70993  0.83440  1.0000 -0.570858494
O   O5        1.0  0.29008  0.35433  0.66560  1.0000 -0.570858494
O   O6        1.0  0.70993  0.64567  0.66560  1.0000 -0.570858494
O   O7        1.0  0.85433  0.20993  0.16560  1.0000 -0.570858494
O   O8        1.0  0.14567  0.79008  0.16560  1.0000 -0.570858494
O   O9        1.0  0.29008  0.64567  0.16560  1.0000 -0.570858494
O   O10       1.0  0.14567  0.20993  0.66560  1.0000 -0.570858494
O   O11       1.0  0.70993  0.35433  0.16560  1.0000 -0.570858494
O   O12       1.0  0.85433  0.79008  0.66560  1.0000 -0.570858494
O   O13       1.0  0.20993  0.14567  0.83440  1.0000 -0.570858494
O   O14       1.0  0.79008  0.85433  0.83440  1.0000 -0.570858494
O   O15       1.0  0.64567  0.29008  0.33440  1.0000 -0.570858494
O   O16       1.0  0.35433  0.70993  0.33440  1.0000 -0.570858494
O   O17       1.0  0.26497  0.71695  0.09750  1.0000 -1.1760587014
O   O18       1.0  0.21694  0.23504  0.59750  1.0000 -1.1715194342
O   O19       1.0  0.73503  0.28306  0.09750  1.0000 -1.1760587014
O   O20       1.0  0.78305  0.76497  0.59750  1.0000 -1.1715194342
O   O21       1.0  0.23504  0.21694  0.90250  1.0000 -1.1715194342
O   O22       1.0  0.76497  0.78305  0.90250  1.0000 -1.1715194342
O   O23       1.0  0.71695  0.26497  0.40250  1.0000 -1.1760587014
O   O24       1.0  0.28306  0.73503  0.40250  1.0000 -1.1760587014
O   O25       1.0  0.23504  0.78305  0.40250  1.0000 -1.1760587014
O   O26       1.0  0.28306  0.26497  0.90250  1.0000 -1.1715194342
O   O27       1.0  0.76497  0.21694  0.40250  1.0000 -1.1760587014
O   O28       1.0  0.71695  0.73503  0.90250  1.0000 -1.1715194342
O   O29       1.0  0.26497  0.28306  0.59750  1.0000 -1.1715194342
O   O30       1.0  0.73503  0.71695  0.59750  1.0000 -1.1715194342
O   O31       1.0  0.78305  0.23504  0.09750  1.0000 -1.1760587014
O   O32       1.0  0.21694  0.76497  0.09750  1.0000 -1.1760587014
O   O33       1.0  0.26959  0.85215  0.40530  1.0000 -0.6014991817
O   O34       1.0  0.35215  0.23040  0.90530  1.0000 -0.6014991817
O   O35       1.0  0.73040  0.14785  0.40530  1.0000 -0.6014991817
O   O36       1.0  0.64785  0.76960  0.90530  1.0000 -0.6014991817
O   O37       1.0  0.23040  0.35215  0.59470  1.0000 -0.6014991817
O   O38       1.0  0.76960  0.64785  0.59470  1.0000 -0.6014991817
O   O39       1.0  0.85215  0.26959  0.09470  1.0000 -0.6014991817
O   O40       1.0  0.14785  0.73040  0.09470  1.0000 -0.6014991817
O   O41       1.0  0.23040  0.64785  0.09470  1.0000 -0.6014991817
O   O42       1.0  0.14785  0.26959  0.59470  1.0000 -0.6014991817
O   O43       1.0  0.76960  0.35215  0.09470  1.0000 -0.6014991817
O   O44       1.0  0.85215  0.73040  0.59470  1.0000 -0.6014991817
O   O45       1.0  0.26959  0.14785  0.90530  1.0000 -0.6014991817
O   O46       1.0  0.73040  0.85215  0.90530  1.0000 -0.6014991817
O   O47       1.0  0.64785  0.23040  0.40530  1.0000 -0.6014991817
O   O48       1.0  0.35215  0.76960  0.40530  1.0000 -0.6014991817
O   O49       1.0  0.19784  0.15931  0.60350  1.0000 -0.578153011
O   O50       1.0  0.65931  0.30217  0.10350  1.0000 -0.578153011
O   O51       1.0  0.80217  0.84070  0.60350  1.0000 -0.578153011
O   O52       1.0  0.34070  0.69783  0.10350  1.0000 -0.578153011
O   O53       1.0  0.30217  0.65931  0.39650  1.0000 -0.578153011
O   O54       1.0  0.69783  0.34070  0.39650  1.0000 -0.578153011
O   O55       1.0  0.15931  0.19784  0.89650  1.0000 -0.578153011
O   O56       1.0  0.84070  0.80217  0.89650  1.0000 -0.578153011
O   O57       1.0  0.30217  0.34070  0.89650  1.0000 -0.578153011
O   O58       1.0  0.84070  0.19784  0.39650  1.0000 -0.578153011
O   O59       1.0  0.69783  0.65931  0.89650  1.0000 -0.578153011
O   O60       1.0  0.15931  0.80217  0.39650  1.0000 -0.578153011
O   O61       1.0  0.19784  0.84070  0.10350  1.0000 -0.578153011
O   O62       1.0  0.80217  0.15931  0.10350  1.0000 -0.578153011
O   O63       1.0  0.34070  0.30217  0.60350  1.0000 -0.578153011
O   O64       1.0  0.65931  0.69783  0.60350  1.0000 -0.578153011
O   O65       1.0  0.30779  0.76102  0.21180  1.0000 -1.1715194342
O   O66       1.0  0.26103  0.19221  0.71180  1.0000 -1.1715194342
O   O67       1.0  0.69220  0.23897  0.21180  1.0000 -1.1715194342
O   O68       1.0  0.73898  0.80780  0.71180  1.0000 -1.1715194342
O   O69       1.0  0.19221  0.26103  0.78820  1.0000 -1.1760587014
O   O70       1.0  0.80780  0.73898  0.78820  1.0000 -1.1760587014
O   O71       1.0  0.76102  0.30779  0.28820  1.0000 -1.1715194342
O   O72       1.0  0.23897  0.69220  0.28820  1.0000 -1.1715194342
O   O73       1.0  0.19221  0.73898  0.28820  1.0000 -1.1715194342
O   O74       1.0  0.23897  0.30779  0.78820  1.0000 -1.1760587014
O   O75       1.0  0.80780  0.26103  0.28820  1.0000 -1.1715194342
O   O76       1.0  0.76102  0.69220  0.78820  1.0000 -1.1760587014
O   O77       1.0  0.30779  0.23897  0.71180  1.0000 -1.1715194342
O   O78       1.0  0.69220  0.76102  0.71180  1.0000 -1.1715194342
O   O79       1.0  0.73898  0.19221  0.21180  1.0000 -1.1715194342
O   O80       1.0  0.26103  0.80780  0.21180  1.0000 -1.1715194342
O   O81       1.0  0.24621  0.17278  0.48080  1.0000 -0.6154470263
O   O82       1.0  0.67278  0.25378  0.98080  1.0000 -0.6135664799
O   O83       1.0  0.75379  0.82722  0.48080  1.0000 -0.6154470263
O   O84       1.0  0.32721  0.74621  0.98080  1.0000 -0.6135664799
O   O85       1.0  0.25378  0.67278  0.51920  1.0000 -0.6135664799
O   O86       1.0  0.74621  0.32721  0.51920  1.0000 -0.6135664799
O   O87       1.0  0.17278  0.24621  0.01920  1.0000 -0.6135664799
O   O88       1.0  0.82722  0.75379  0.01920  1.0000 -0.6135664799
O   O89       1.0  0.25378  0.32721  0.01920  1.0000 -0.6135664799
O   O90       1.0  0.82722  0.24621  0.51920  1.0000 -0.6135664799
O   O91       1.0  0.74621  0.67278  0.01920  1.0000 -0.6135664799
O   O92       1.0  0.17278  0.75379  0.51920  1.0000 -0.6135664799
O   O93       1.0  0.24621  0.82722  0.98080  1.0000 -0.6135664799
O   O94       1.0  0.75379  0.17278  0.98080  1.0000 -0.6135664799
O   O95       1.0  0.32721  0.25378  0.48080  1.0000 -0.6154470263
O   O96       1.0  0.67278  0.74621  0.48080  1.0000 -0.6154470263
