# DDEC6 charges by PACMAN v1.1 (https://github.com/mtap-research/PACMAN-charge/)
data_2017[Zr][nan]3[ASR]3
_chemical_formula_sum              "Zr12 P8 H272 C288 O64"
_cell_length_a       19.8906
_cell_length_b       19.8906
_cell_length_c       29.5728
_cell_angle_alpha    90
_cell_angle_beta     90
_cell_angle_gamma    94.4023

_symmetry_space_group_name_H-M    "P 1"
_symmetry_Int_Tables_number       1

loop_
  _symmetry_equiv_pos_as_xyz
  'x, y, z'

loop_
  _atom_site_type_symbol
  _atom_site_label
  _atom_site_symmetry_multiplicity
  _atom_site_fract_x
  _atom_site_fract_y
  _atom_site_fract_z
  _atom_site_occupancy
  _atom_site_charge
Zr  Zr1       1.0  0.99471  0.39389  0.74825  1.0000 2.0996271351
Zr  Zr2       1.0  0.05109  0.47365  0.86687  1.0000 2.1539147475
Zr  Zr3       1.0  0.99606  0.55072  0.98800  1.0000 2.0996271351
Zr  Zr4       1.0  0.00529  0.60611  0.24825  1.0000 2.0996271351
Zr  Zr5       1.0  0.94891  0.52635  0.36687  1.0000 2.1539147475
Zr  Zr6       1.0  0.00394  0.44928  0.48800  1.0000 2.0996271351
Zr  Zr7       1.0  0.60611  0.00529  0.75175  1.0000 2.0996271351
Zr  Zr8       1.0  0.52635  0.94891  0.63313  1.0000 2.1539147475
Zr  Zr9       1.0  0.44928  0.00394  0.51200  1.0000 2.0996271351
Zr  Zr10      1.0  0.39389  0.99471  0.25175  1.0000 2.0996271351
Zr  Zr11      1.0  0.47365  0.05109  0.13313  1.0000 2.1539147475
Zr  Zr12      1.0  0.55072  0.99606  0.01200  1.0000 2.0996271351
P   P1        1.0  0.11420  0.33968  0.80812  1.0000 1.3925470689
P   P2        1.0  0.12843  0.60449  0.93176  1.0000 1.4166750291
P   P3        1.0  0.88580  0.66032  0.30812  1.0000 1.3952624181
P   P4        1.0  0.87157  0.39551  0.43176  1.0000 1.4166750291
P   P5        1.0  0.66032  0.88580  0.69188  1.0000 1.3952624181
P   P6        1.0  0.39551  0.87157  0.56824  1.0000 1.4166750291
P   P7        1.0  0.33968  0.11420  0.19188  1.0000 1.3925470689
P   P8        1.0  0.60449  0.12843  0.06824  1.0000 1.4166750291
H   H1        1.0  0.45410  0.09650  0.67330  1.0000 0.1103499643
H   H2        1.0  0.40060  0.16040  0.72590  1.0000 0.1103499643
H   H3        1.0  0.27010  0.21150  0.63040  1.0000 0.119221128
H   H4        1.0  0.32370  0.14750  0.57780  1.0000 0.119221128
H   H5        1.0  0.30770  0.31710  0.67590  1.0000 0.1004673656
H   H6        1.0  0.29610  0.48210  0.66620  1.0000 0.119221128
H   H7        1.0  0.29020  0.40640  0.65070  1.0000 0.1004673656
H   H8        1.0  0.34610  0.43190  0.68540  1.0000 0.1004673656
H   H9        1.0  0.17820  0.47540  0.68880  1.0000 0.1103499643
H   H10       1.0  0.14800  0.42000  0.72240  1.0000 0.1004673656
H   H11       1.0  0.16890  0.39990  0.67340  1.0000 0.119221128
H   H12       1.0  0.26060  0.51220  0.74050  1.0000 0.1004673656
H   H13       1.0  0.31000  0.46420  0.76300  1.0000 0.119221128
H   H14       1.0  0.23330  0.45830  0.77600  1.0000 0.119221128
H   H15       1.0  0.24840  0.12300  0.79630  1.0000 0.119221128
H   H16       1.0  0.31300  0.11740  0.76660  1.0000 0.119221128
H   H17       1.0  0.24120  0.10740  0.74450  1.0000 0.1303515873
H   H18       1.0  0.15520  0.14740  0.93960  1.0000 0.1004673656
H   H19       1.0  0.96680  0.13960  0.86230  1.0000 0.1103499643
H   H20       1.0  0.03320  0.10320  0.85520  1.0000 0.1004673656
H   H21       1.0  0.02210  0.16970  0.82870  1.0000 0.1103499643
H   H22       1.0  0.98360  0.14540  0.94410  1.0000 0.119221128
H   H23       1.0  0.05280  0.17480  0.96410  1.0000 0.1103499643
H   H24       1.0  0.04820  0.10580  0.93820  1.0000 0.1103499643
H   H25       1.0  0.96430  0.24270  0.90230  1.0000 0.119221128
H   H26       1.0  0.01580  0.27480  0.86680  1.0000 0.119221128
H   H27       1.0  0.03100  0.28240  0.91860  1.0000 0.1103499643
H   H28       1.0  0.34740  0.23480  0.82560  1.0000 0.119221128
H   H29       1.0  0.35800  0.17000  0.85400  1.0000 0.119221128
H   H30       1.0  0.35950  0.24030  0.87790  1.0000 0.1303515873
H   H31       1.0  0.26340  0.18500  0.99010  1.0000 0.1103499643
H   H32       1.0  0.33440  0.13020  0.03740  1.0000 0.1303515873
H   H33       1.0  0.39050  0.01850  0.93270  1.0000 0.119221128
H   H34       1.0  0.31950  0.07330  0.88540  1.0000 0.1103499643
H   H35       1.0  0.42050  0.97250  0.82450  1.0000 0.119221128
H   H36       1.0  0.33620  0.91560  0.86690  1.0000 0.1103499643
H   H37       1.0  0.31290  0.77330  0.77050  1.0000 0.1103499643
H   H38       1.0  0.39730  0.83030  0.72810  1.0000 0.119221128
H   H39       1.0  0.18680  0.80940  0.80650  1.0000 0.1004673656
H   H40       1.0  0.98350  0.77990  0.86620  1.0000 0.1103499643
H   H41       1.0  0.04580  0.82880  0.87990  1.0000 0.119221128
H   H42       1.0  0.03200  0.75940  0.90470  1.0000 0.119221128
H   H43       1.0  0.99810  0.67690  0.82110  1.0000 0.119221128
H   H44       1.0  0.04520  0.64960  0.85820  1.0000 0.1103499643
H   H45       1.0  0.07050  0.65730  0.80810  1.0000 0.1103499643
H   H46       1.0  0.01960  0.78480  0.78730  1.0000 0.119221128
H   H47       1.0  0.09320  0.76980  0.77390  1.0000 0.1103499643
H   H48       1.0  0.08060  0.83500  0.80150  1.0000 0.1103499643
H   H49       1.0  0.37850  0.80510  0.88790  1.0000 0.1103499643
H   H50       1.0  0.36740  0.73240  0.90850  1.0000 0.1378650085
H   H51       1.0  0.35560  0.79560  0.93840  1.0000 0.119221128
H   H52       1.0  0.28920  0.65600  0.07920  1.0000 0.1004673656
H   H53       1.0  0.27400  0.54820  0.09670  1.0000 0.1103499643
H   H54       1.0  0.34310  0.55690  0.07100  1.0000 0.1004673656
H   H55       1.0  0.30310  0.48590  0.07340  1.0000 0.1103499643
H   H56       1.0  0.17610  0.51110  0.99580  1.0000 0.1103499643
H   H57       1.0  0.17100  0.50840  0.04870  1.0000 0.119221128
H   H58       1.0  0.21230  0.45650  0.02280  1.0000 0.1103499643
H   H59       1.0  0.29560  0.52600  0.96330  1.0000 0.119221128
H   H60       1.0  0.31400  0.47340  0.99990  1.0000 0.1103499643
H   H61       1.0  0.35470  0.54390  0.99730  1.0000 0.1004673656
H   H62       1.0  0.24340  0.84320  0.95870  1.0000 0.119221128
H   H63       1.0  0.30030  0.86010  0.99460  1.0000 0.1103499643
H   H64       1.0  0.22440  0.85440  0.00950  1.0000 0.1378650085
H   H65       1.0  0.23880  0.74860  0.12620  1.0000 0.119221128
H   H66       1.0  0.28100  0.81840  0.18410  1.0000 0.119221128
H   H67       1.0  0.41750  0.90710  0.09870  1.0000 0.1004673656
H   H68       1.0  0.37550  0.83730  0.04080  1.0000 0.1103499643
H   H69       1.0  0.54590  0.90350  0.17330  1.0000 0.1103499643
H   H70       1.0  0.59940  0.83960  0.22590  1.0000 0.1103499643
H   H71       1.0  0.72990  0.78850  0.13040  1.0000 0.119221128
H   H72       1.0  0.67630  0.85250  0.07780  1.0000 0.119221128
H   H73       1.0  0.69230  0.68290  0.17590  1.0000 0.1004673656
H   H74       1.0  0.70390  0.51790  0.16620  1.0000 0.119221128
H   H75       1.0  0.70980  0.59360  0.15070  1.0000 0.1004673656
H   H76       1.0  0.65390  0.56810  0.18540  1.0000 0.1004673656
H   H77       1.0  0.82180  0.52460  0.18880  1.0000 0.1103499643
H   H78       1.0  0.85200  0.58000  0.22240  1.0000 0.1004673656
H   H79       1.0  0.83110  0.60010  0.17340  1.0000 0.119221128
H   H80       1.0  0.73940  0.48780  0.24050  1.0000 0.1004673656
H   H81       1.0  0.69000  0.53580  0.26300  1.0000 0.119221128
H   H82       1.0  0.76670  0.54170  0.27600  1.0000 0.119221128
H   H83       1.0  0.75160  0.87700  0.29630  1.0000 0.119221128
H   H84       1.0  0.68700  0.88260  0.26660  1.0000 0.119221128
H   H85       1.0  0.75880  0.89260  0.24450  1.0000 0.1303515873
H   H86       1.0  0.84480  0.85260  0.43960  1.0000 0.1004673656
H   H87       1.0  0.03320  0.86040  0.36230  1.0000 0.1103499643
H   H88       1.0  0.96680  0.89680  0.35520  1.0000 0.1004673656
H   H89       1.0  0.97790  0.83030  0.32870  1.0000 0.1103499643
H   H90       1.0  0.01640  0.85460  0.44410  1.0000 0.119221128
H   H91       1.0  0.94720  0.82520  0.46410  1.0000 0.1103499643
H   H92       1.0  0.95180  0.89420  0.43820  1.0000 0.1103499643
H   H93       1.0  0.03570  0.75730  0.40230  1.0000 0.119221128
H   H94       1.0  0.98420  0.72520  0.36680  1.0000 0.119221128
H   H95       1.0  0.96900  0.71760  0.41860  1.0000 0.1103499643
H   H96       1.0  0.65260  0.76520  0.32560  1.0000 0.119221128
H   H97       1.0  0.64200  0.83000  0.35400  1.0000 0.119221128
H   H98       1.0  0.64050  0.75970  0.37790  1.0000 0.1303515873
H   H99       1.0  0.73660  0.81500  0.49010  1.0000 0.1103499643
H   H100      1.0  0.66560  0.86980  0.53740  1.0000 0.1303515873
H   H101      1.0  0.60950  0.98150  0.43270  1.0000 0.119221128
H   H102      1.0  0.68050  0.92670  0.38540  1.0000 0.1103499643
H   H103      1.0  0.57950  0.02750  0.32450  1.0000 0.119221128
H   H104      1.0  0.66380  0.08440  0.36690  1.0000 0.1103499643
H   H105      1.0  0.68710  0.22670  0.27050  1.0000 0.1103499643
H   H106      1.0  0.60270  0.16970  0.22810  1.0000 0.119221128
H   H107      1.0  0.81320  0.19060  0.30650  1.0000 0.1004673656
H   H108      1.0  0.01650  0.22010  0.36620  1.0000 0.1103499643
H   H109      1.0  0.95420  0.17120  0.37990  1.0000 0.119221128
H   H110      1.0  0.96800  0.24060  0.40470  1.0000 0.119221128
H   H111      1.0  0.00190  0.32310  0.32110  1.0000 0.119221128
H   H112      1.0  0.95480  0.35040  0.35820  1.0000 0.1103499643
H   H113      1.0  0.92950  0.34270  0.30810  1.0000 0.1103499643
H   H114      1.0  0.98040  0.21520  0.28730  1.0000 0.119221128
H   H115      1.0  0.90680  0.23020  0.27390  1.0000 0.1103499643
H   H116      1.0  0.91940  0.16500  0.30150  1.0000 0.1103499643
H   H117      1.0  0.62150  0.19490  0.38790  1.0000 0.1103499643
H   H118      1.0  0.63260  0.26760  0.40850  1.0000 0.1378650085
H   H119      1.0  0.64440  0.20440  0.43840  1.0000 0.119221128
H   H120      1.0  0.71080  0.34400  0.57920  1.0000 0.1004673656
H   H121      1.0  0.72600  0.45180  0.59670  1.0000 0.1103499643
H   H122      1.0  0.65690  0.44310  0.57100  1.0000 0.1004673656
H   H123      1.0  0.69690  0.51410  0.57340  1.0000 0.1103499643
H   H124      1.0  0.82390  0.48890  0.49580  1.0000 0.1103499643
H   H125      1.0  0.82900  0.49160  0.54870  1.0000 0.119221128
H   H126      1.0  0.78770  0.54350  0.52280  1.0000 0.1103499643
H   H127      1.0  0.70440  0.47400  0.46330  1.0000 0.119221128
H   H128      1.0  0.68600  0.52660  0.49990  1.0000 0.1103499643
H   H129      1.0  0.64530  0.45610  0.49730  1.0000 0.1004673656
H   H130      1.0  0.75660  0.15680  0.45870  1.0000 0.119221128
H   H131      1.0  0.69970  0.13990  0.49460  1.0000 0.1103499643
H   H132      1.0  0.77560  0.14560  0.50950  1.0000 0.1378650085
H   H133      1.0  0.76120  0.25140  0.62620  1.0000 0.119221128
H   H134      1.0  0.71900  0.18160  0.68410  1.0000 0.119221128
H   H135      1.0  0.58250  0.09290  0.59870  1.0000 0.1004673656
H   H136      1.0  0.62450  0.16270  0.54080  1.0000 0.1103499643
H   H137      1.0  0.90350  0.54590  0.82670  1.0000 0.1103499643
H   H138      1.0  0.83960  0.59940  0.77410  1.0000 0.1103499643
H   H139      1.0  0.78850  0.72990  0.86960  1.0000 0.119221128
H   H140      1.0  0.85250  0.67630  0.92220  1.0000 0.119221128
H   H141      1.0  0.68290  0.69230  0.82410  1.0000 0.1004673656
H   H142      1.0  0.51790  0.70390  0.83380  1.0000 0.119221128
H   H143      1.0  0.59360  0.70980  0.84930  1.0000 0.1004673656
H   H144      1.0  0.56810  0.65390  0.81460  1.0000 0.1004673656
H   H145      1.0  0.52460  0.82180  0.81120  1.0000 0.1103499643
H   H146      1.0  0.58000  0.85200  0.77760  1.0000 0.1004673656
H   H147      1.0  0.60010  0.83110  0.82660  1.0000 0.119221128
H   H148      1.0  0.48780  0.73940  0.75950  1.0000 0.1004673656
H   H149      1.0  0.53580  0.69000  0.73700  1.0000 0.119221128
H   H150      1.0  0.54170  0.76670  0.72400  1.0000 0.119221128
H   H151      1.0  0.87700  0.75160  0.70370  1.0000 0.119221128
H   H152      1.0  0.88260  0.68700  0.73340  1.0000 0.119221128
H   H153      1.0  0.89260  0.75880  0.75550  1.0000 0.1303515873
H   H154      1.0  0.85260  0.84480  0.56040  1.0000 0.1004673656
H   H155      1.0  0.86040  0.03320  0.63770  1.0000 0.1103499643
H   H156      1.0  0.89680  0.96680  0.64480  1.0000 0.1004673656
H   H157      1.0  0.83030  0.97790  0.67130  1.0000 0.1103499643
H   H158      1.0  0.85460  0.01640  0.55590  1.0000 0.119221128
H   H159      1.0  0.82520  0.94720  0.53590  1.0000 0.1103499643
H   H160      1.0  0.89420  0.95180  0.56180  1.0000 0.1103499643
H   H161      1.0  0.75730  0.03570  0.59770  1.0000 0.1103499643
H   H162      1.0  0.72520  0.98420  0.63320  1.0000 0.119221128
H   H163      1.0  0.71760  0.96900  0.58140  1.0000 0.1103499643
H   H164      1.0  0.76520  0.65260  0.67440  1.0000 0.119221128
H   H165      1.0  0.83000  0.64200  0.64600  1.0000 0.119221128
H   H166      1.0  0.75970  0.64050  0.62210  1.0000 0.1303515873
H   H167      1.0  0.81500  0.73660  0.50990  1.0000 0.1103499643
H   H168      1.0  0.86980  0.66560  0.46260  1.0000 0.1303515873
H   H169      1.0  0.98150  0.60950  0.56730  1.0000 0.119221128
H   H170      1.0  0.92670  0.68050  0.61460  1.0000 0.1103499643
H   H171      1.0  0.02750  0.57950  0.67550  1.0000 0.119221128
H   H172      1.0  0.08440  0.66380  0.63310  1.0000 0.1103499643
H   H173      1.0  0.22670  0.68710  0.72950  1.0000 0.1103499643
H   H174      1.0  0.16970  0.60270  0.77190  1.0000 0.119221128
H   H175      1.0  0.19060  0.81320  0.69350  1.0000 0.1004673656
H   H176      1.0  0.22010  0.01650  0.63380  1.0000 0.1103499643
H   H177      1.0  0.17120  0.95420  0.62010  1.0000 0.119221128
H   H178      1.0  0.24060  0.96800  0.59530  1.0000 0.119221128
H   H179      1.0  0.32310  0.00190  0.67890  1.0000 0.119221128
H   H180      1.0  0.35040  0.95480  0.64180  1.0000 0.1103499643
H   H181      1.0  0.34270  0.92950  0.69190  1.0000 0.1103499643
H   H182      1.0  0.21520  0.98040  0.71270  1.0000 0.119221128
H   H183      1.0  0.23020  0.90680  0.72610  1.0000 0.1103499643
H   H184      1.0  0.16500  0.91940  0.69850  1.0000 0.1103499643
H   H185      1.0  0.19490  0.62150  0.61210  1.0000 0.1103499643
H   H186      1.0  0.26760  0.63260  0.59150  1.0000 0.1378650085
H   H187      1.0  0.20440  0.64440  0.56160  1.0000 0.119221128
H   H188      1.0  0.34400  0.71080  0.42080  1.0000 0.1004673656
H   H189      1.0  0.45180  0.72600  0.40330  1.0000 0.1103499643
H   H190      1.0  0.44310  0.65690  0.42900  1.0000 0.1004673656
H   H191      1.0  0.51410  0.69690  0.42660  1.0000 0.1103499643
H   H192      1.0  0.48890  0.82390  0.50420  1.0000 0.1103499643
H   H193      1.0  0.49160  0.82900  0.45130  1.0000 0.119221128
H   H194      1.0  0.54350  0.78770  0.47720  1.0000 0.1103499643
H   H195      1.0  0.47400  0.70440  0.53670  1.0000 0.119221128
H   H196      1.0  0.52660  0.68600  0.50010  1.0000 0.1103499643
H   H197      1.0  0.45610  0.64530  0.50270  1.0000 0.1004673656
H   H198      1.0  0.15680  0.75660  0.54130  1.0000 0.119221128
H   H199      1.0  0.13990  0.69970  0.50540  1.0000 0.1103499643
H   H200      1.0  0.14560  0.77560  0.49050  1.0000 0.1378650085
H   H201      1.0  0.25140  0.76120  0.37380  1.0000 0.119221128
H   H202      1.0  0.18160  0.71900  0.31590  1.0000 0.119221128
H   H203      1.0  0.09290  0.58250  0.40130  1.0000 0.1004673656
H   H204      1.0  0.16270  0.62450  0.45920  1.0000 0.1103499643
H   H205      1.0  0.09650  0.45410  0.32670  1.0000 0.1103499643
H   H206      1.0  0.16040  0.40060  0.27410  1.0000 0.1103499643
H   H207      1.0  0.21150  0.27010  0.36960  1.0000 0.119221128
H   H208      1.0  0.14750  0.32370  0.42220  1.0000 0.119221128
H   H209      1.0  0.31710  0.30770  0.32410  1.0000 0.1004673656
H   H210      1.0  0.48210  0.29610  0.33380  1.0000 0.119221128
H   H211      1.0  0.40640  0.29020  0.34930  1.0000 0.1004673656
H   H212      1.0  0.43190  0.34610  0.31460  1.0000 0.1004673656
H   H213      1.0  0.47540  0.17820  0.31120  1.0000 0.1103499643
H   H214      1.0  0.42000  0.14800  0.27760  1.0000 0.1004673656
H   H215      1.0  0.39990  0.16890  0.32660  1.0000 0.119221128
H   H216      1.0  0.51220  0.26060  0.25950  1.0000 0.1004673656
H   H217      1.0  0.46420  0.31000  0.23700  1.0000 0.119221128
H   H218      1.0  0.45830  0.23330  0.22400  1.0000 0.119221128
H   H219      1.0  0.12300  0.24840  0.20370  1.0000 0.119221128
H   H220      1.0  0.11740  0.31300  0.23340  1.0000 0.119221128
H   H221      1.0  0.10740  0.24120  0.25550  1.0000 0.1303515873
H   H222      1.0  0.14740  0.15520  0.06040  1.0000 0.1004673656
H   H223      1.0  0.13960  0.96680  0.13770  1.0000 0.1103499643
H   H224      1.0  0.10320  0.03320  0.14480  1.0000 0.1004673656
H   H225      1.0  0.16970  0.02210  0.17130  1.0000 0.1103499643
H   H226      1.0  0.14540  0.98360  0.05590  1.0000 0.119221128
H   H227      1.0  0.17480  0.05280  0.03590  1.0000 0.1103499643
H   H228      1.0  0.10580  0.04820  0.06180  1.0000 0.1103499643
H   H229      1.0  0.24270  0.96430  0.09770  1.0000 0.119221128
H   H230      1.0  0.27480  0.01580  0.13320  1.0000 0.119221128
H   H231      1.0  0.28240  0.03100  0.08140  1.0000 0.1103499643
H   H232      1.0  0.23480  0.34740  0.17440  1.0000 0.119221128
H   H233      1.0  0.17000  0.35800  0.14600  1.0000 0.119221128
H   H234      1.0  0.24030  0.35950  0.12210  1.0000 0.1303515873
H   H235      1.0  0.18500  0.26340  0.00990  1.0000 0.1103499643
H   H236      1.0  0.13020  0.33440  0.96260  1.0000 0.1303515873
H   H237      1.0  0.01850  0.39050  0.06730  1.0000 0.119221128
H   H238      1.0  0.07330  0.31950  0.11460  1.0000 0.1103499643
H   H239      1.0  0.97250  0.42050  0.17550  1.0000 0.119221128
H   H240      1.0  0.91560  0.33620  0.13310  1.0000 0.1103499643
H   H241      1.0  0.77330  0.31290  0.22950  1.0000 0.1103499643
H   H242      1.0  0.83030  0.39730  0.27190  1.0000 0.119221128
H   H243      1.0  0.80940  0.18680  0.19350  1.0000 0.1004673656
H   H244      1.0  0.77990  0.98350  0.13380  1.0000 0.1103499643
H   H245      1.0  0.82880  0.04580  0.12010  1.0000 0.119221128
H   H246      1.0  0.75940  0.03200  0.09530  1.0000 0.119221128
H   H247      1.0  0.67690  0.99810  0.17890  1.0000 0.119221128
H   H248      1.0  0.64960  0.04520  0.14180  1.0000 0.1103499643
H   H249      1.0  0.65730  0.07050  0.19190  1.0000 0.1103499643
H   H250      1.0  0.78480  0.01960  0.21270  1.0000 0.119221128
H   H251      1.0  0.76980  0.09320  0.22610  1.0000 0.1103499643
H   H252      1.0  0.83500  0.08060  0.19850  1.0000 0.1103499643
H   H253      1.0  0.80510  0.37850  0.11210  1.0000 0.1103499643
H   H254      1.0  0.73240  0.36740  0.09150  1.0000 0.1378650085
H   H255      1.0  0.79560  0.35560  0.06160  1.0000 0.119221128
H   H256      1.0  0.65600  0.28920  0.92080  1.0000 0.1004673656
H   H257      1.0  0.54820  0.27400  0.90330  1.0000 0.1103499643
H   H258      1.0  0.55690  0.34310  0.92900  1.0000 0.1004673656
H   H259      1.0  0.48590  0.30310  0.92660  1.0000 0.1103499643
H   H260      1.0  0.51110  0.17610  0.00420  1.0000 0.1103499643
H   H261      1.0  0.50840  0.17100  0.95130  1.0000 0.119221128
H   H262      1.0  0.45650  0.21230  0.97720  1.0000 0.1103499643
H   H263      1.0  0.52600  0.29560  0.03670  1.0000 0.119221128
H   H264      1.0  0.47340  0.31400  0.00010  1.0000 0.1103499643
H   H265      1.0  0.54390  0.35470  0.00270  1.0000 0.1103499643
H   H266      1.0  0.84320  0.24340  0.04130  1.0000 0.119221128
H   H267      1.0  0.86010  0.30030  0.00540  1.0000 0.1103499643
H   H268      1.0  0.85440  0.22440  0.99050  1.0000 0.1378650085
H   H269      1.0  0.74860  0.23880  0.87380  1.0000 0.119221128
H   H270      1.0  0.81840  0.28100  0.81590  1.0000 0.119221128
H   H271      1.0  0.90710  0.41750  0.90130  1.0000 0.1004673656
H   H272      1.0  0.83730  0.37550  0.95920  1.0000 0.1103499643
C   C1        1.0  0.42630  0.07090  0.58780  1.0000 0.5813581997
C   C2        1.0  0.39418  0.11562  0.62032  1.0000 -0.051886759
C   C3        1.0  0.41727  0.11953  0.66468  1.0000 -0.102946977
C   C4        1.0  0.38516  0.15784  0.69620  1.0000 -0.1528340301
C   C5        1.0  0.32997  0.19223  0.68335  1.0000 0.0787766238
C   C6        1.0  0.30698  0.18842  0.63898  1.0000 -0.1610605725
C   C7        1.0  0.33909  0.15011  0.60747  1.0000 -0.1109786157
C   C8        1.0  0.25120  0.41840  0.71540  1.0000 0.2701664732
C   C9        1.0  0.29664  0.23436  0.71575  1.0000 -0.0402820109
C   C10       1.0  0.27016  0.21014  0.75664  1.0000 0.0888774629
C   C11       1.0  0.23708  0.25246  0.78503  1.0000 -0.088966848
C   C12       1.0  0.23043  0.31897  0.77254  1.0000 0.1861362437
C   C13       1.0  0.25696  0.34324  0.73165  1.0000 -0.0558748881
C   C14       1.0  0.28996  0.30084  0.70326  1.0000 -0.1914608351
C   C15       1.0  0.30060  0.43640  0.67560  1.0000 -0.4508446079
C   C16       1.0  0.17990  0.42950  0.69840  1.0000 -0.4807550742
C   C17       1.0  0.26490  0.46750  0.75190  1.0000 -0.4508446079
C   C18       1.0  0.26800  0.13180  0.76710  1.0000 -0.4508446079
C   C19       1.0  0.21673  0.23113  0.83370  1.0000 -0.088966848
C   C20       1.0  0.26180  0.20236  0.86245  1.0000 0.0888774629
C   C21       1.0  0.23875  0.17101  0.90212  1.0000 -0.0305206793
C   C22       1.0  0.17063  0.16841  0.91306  1.0000 -0.2015046134
C   C23       1.0  0.12557  0.19717  0.88431  1.0000 -0.0402820109
C   C24       1.0  0.14862  0.22854  0.84464  1.0000 0.1788069709
C   C25       1.0  0.04750  0.18730  0.89480  1.0000 0.2783392498
C   C26       1.0  0.01440  0.14620  0.85680  1.0000 -0.4508446079
C   C27       1.0  0.03160  0.14980  0.93950  1.0000 -0.4720904103
C   C28       1.0  0.01120  0.25300  0.89570  1.0000 -0.5035614317
C   C29       1.0  0.33910  0.21290  0.85420  1.0000 -0.4508446079
C   C30       1.0  0.28439  0.13461  0.93302  1.0000 0.0787766238
C   C31       1.0  0.28891  0.15169  0.97857  1.0000 -0.1610605725
C   C32       1.0  0.33142  0.11878  0.00693  1.0000 -0.088966848
C   C33       1.0  0.36950  0.06890  0.98975  1.0000 -0.0402820109
C   C34       1.0  0.36508  0.05192  0.94420  1.0000 -0.1230809355
C   C35       1.0  0.32247  0.08473  0.91584  1.0000 -0.1610605725
C   C36       1.0  0.42150  0.03790  0.02030  1.0000 0.5813581997
C   C37       1.0  0.47800  0.94020  0.74700  1.0000 0.5888658741
C   C38       1.0  0.41728  0.90706  0.77205  1.0000 -0.0402820109
C   C39       1.0  0.39897  0.93261  0.81364  1.0000 -0.1230809355
C   C40       1.0  0.34842  0.89848  0.83907  1.0000 -0.1610605725
C   C41       1.0  0.31618  0.83880  0.82290  1.0000 0.0746794918
C   C42       1.0  0.33448  0.81326  0.78130  1.0000 -0.1610605725
C   C43       1.0  0.38503  0.84739  0.75588  1.0000 -0.102946977
C   C44       1.0  0.07270  0.74910  0.84140  1.0000 0.2891708294
C   C45       1.0  0.26186  0.80072  0.85176  1.0000 -0.0305206793
C   C46       1.0  0.27705  0.77299  0.89333  1.0000 0.0888774629
C   C47       1.0  0.22734  0.73540  0.91745  1.0000 -0.088966848
C   C48       1.0  0.16244  0.72554  0.90000  1.0000 0.1788069709
C   C49       1.0  0.14725  0.75325  0.85843  1.0000 -0.051886759
C   C50       1.0  0.19696  0.79084  0.83431  1.0000 -0.2015046134
C   C51       1.0  0.02940  0.78240  0.87630  1.0000 -0.4720904103
C   C52       1.0  0.04390  0.67630  0.83130  1.0000 -0.5228235295
C   C53       1.0  0.06580  0.78840  0.79680  1.0000 -0.4807550742
C   C54       1.0  0.35180  0.77680  0.90850  1.0000 -0.4508446079
C   C55       1.0  0.23857  0.71437  0.96597  1.0000 -0.0799565162
C   C56       1.0  0.26084  0.76104  0.99870  1.0000 0.0787766238
C   C57       1.0  0.27980  0.73920  0.04114  1.0000 -0.0305206793
C   C58       1.0  0.27650  0.67070  0.05085  1.0000 -0.1914608351
C   C59       1.0  0.25430  0.62390  0.01811  1.0000 -0.051886759
C   C60       1.0  0.23526  0.64586  0.97568  1.0000 0.1788069709
C   C61       1.0  0.26140  0.54920  0.02680  1.0000 0.2701664732
C   C62       1.0  0.29900  0.53360  0.07120  1.0000 -0.4508446079
C   C63       1.0  0.19970  0.50210  0.02320  1.0000 -0.4892148247
C   C64       1.0  0.31100  0.52040  0.99380  1.0000 -0.4293356857
C   C65       1.0  0.25690  0.83690  0.98950  1.0000 -0.4563695511
C   C66       1.0  0.30297  0.78597  0.07778  1.0000 0.0787766238
C   C67       1.0  0.27469  0.78029  0.12071  1.0000 -0.1610605725
C   C68       1.0  0.29993  0.82213  0.15539  1.0000 -0.102946977
C   C69       1.0  0.35345  0.86965  0.14713  1.0000 -0.0402820109
C   C70       1.0  0.38173  0.87533  0.10420  1.0000 -0.1109786157
C   C71       1.0  0.35649  0.83349  0.06952  1.0000 -0.1442225559
C   C72       1.0  0.38080  0.91760  0.18190  1.0000 0.5292778441
C   C73       1.0  0.57370  0.92910  0.08780  1.0000 0.5813581997
C   C74       1.0  0.60582  0.88438  0.12032  1.0000 -0.051886759
C   C75       1.0  0.58273  0.88047  0.16468  1.0000 -0.102946977
C   C76       1.0  0.61484  0.84216  0.19620  1.0000 -0.1528340301
C   C77       1.0  0.67003  0.80777  0.18335  1.0000 0.0787766238
C   C78       1.0  0.69302  0.81158  0.13898  1.0000 -0.1610605725
C   C79       1.0  0.66091  0.84989  0.10747  1.0000 -0.1109786157
C   C80       1.0  0.74880  0.58160  0.21540  1.0000 0.2701664732
C   C81       1.0  0.70336  0.76564  0.21575  1.0000 -0.0402820109
C   C82       1.0  0.72984  0.78986  0.25664  1.0000 0.0888774629
C   C83       1.0  0.76292  0.74754  0.28503  1.0000 -0.088966848
C   C84       1.0  0.76957  0.68103  0.27254  1.0000 0.1861362437
C   C85       1.0  0.74304  0.65676  0.23165  1.0000 -0.0558748881
C   C86       1.0  0.71004  0.69916  0.20326  1.0000 -0.1914608351
C   C87       1.0  0.69940  0.56360  0.17560  1.0000 -0.4508446079
C   C88       1.0  0.82010  0.57050  0.19840  1.0000 -0.4807550742
C   C89       1.0  0.73510  0.53250  0.25190  1.0000 -0.4508446079
C   C90       1.0  0.73200  0.86820  0.26710  1.0000 -0.4508446079
C   C91       1.0  0.78327  0.76887  0.33370  1.0000 -0.0799565162
C   C92       1.0  0.73820  0.79764  0.36245  1.0000 0.0888774629
C   C93       1.0  0.76125  0.82899  0.40212  1.0000 -0.0305206793
C   C94       1.0  0.82937  0.83159  0.41306  1.0000 -0.2015046134
C   C95       1.0  0.87443  0.80283  0.38431  1.0000 -0.0402820109
C   C96       1.0  0.85138  0.77146  0.34464  1.0000 0.1788069709
C   C97       1.0  0.95250  0.81270  0.39480  1.0000 0.2783392498
C   C98       1.0  0.98560  0.85380  0.35680  1.0000 -0.4508446079
C   C99       1.0  0.96840  0.85020  0.43950  1.0000 -0.4720904103
C   C100      1.0  0.98880  0.74700  0.39570  1.0000 -0.5035614317
C   C101      1.0  0.66090  0.78710  0.35420  1.0000 -0.4508446079
C   C102      1.0  0.71561  0.86539  0.43302  1.0000 0.0787766238
C   C103      1.0  0.71109  0.84831  0.47857  1.0000 -0.1610605725
C   C104      1.0  0.66858  0.88122  0.50693  1.0000 -0.088966848
C   C105      1.0  0.63050  0.93110  0.48975  1.0000 -0.0402820109
C   C106      1.0  0.63492  0.94808  0.44420  1.0000 -0.1230809355
C   C107      1.0  0.67753  0.91527  0.41584  1.0000 -0.1610605725
C   C108      1.0  0.57850  0.96210  0.52030  1.0000 0.5813581997
C   C109      1.0  0.52200  0.05980  0.24700  1.0000 0.5888658741
C   C110      1.0  0.58272  0.09294  0.27205  1.0000 -0.0402820109
C   C111      1.0  0.60103  0.06739  0.31364  1.0000 -0.1230809355
C   C112      1.0  0.65158  0.10152  0.33907  1.0000 -0.1610605725
C   C113      1.0  0.68382  0.16120  0.32290  1.0000 0.0746794918
C   C114      1.0  0.66552  0.18674  0.28130  1.0000 -0.1610605725
C   C115      1.0  0.61497  0.15261  0.25588  1.0000 -0.102946977
C   C116      1.0  0.92730  0.25090  0.34140  1.0000 0.2891708294
C   C117      1.0  0.73814  0.19928  0.35176  1.0000 -0.0305206793
C   C118      1.0  0.72295  0.22701  0.39333  1.0000 0.0888774629
C   C119      1.0  0.77266  0.26460  0.41745  1.0000 -0.088966848
C   C120      1.0  0.83756  0.27446  0.40000  1.0000 0.1788069709
C   C121      1.0  0.85275  0.24675  0.35843  1.0000 -0.051886759
C   C122      1.0  0.80304  0.20916  0.33431  1.0000 -0.2015046134
C   C123      1.0  0.97060  0.21760  0.37630  1.0000 -0.4720904103
C   C124      1.0  0.95610  0.32370  0.33130  1.0000 -0.5228235295
C   C125      1.0  0.93420  0.21160  0.29680  1.0000 -0.4807550742
C   C126      1.0  0.64820  0.22320  0.40850  1.0000 -0.4508446079
C   C127      1.0  0.76143  0.28563  0.46597  1.0000 -0.0799565162
C   C128      1.0  0.73916  0.23896  0.49870  1.0000 0.0787766238
C   C129      1.0  0.72020  0.26080  0.54114  1.0000 -0.0305206793
C   C130      1.0  0.72350  0.32930  0.55085  1.0000 -0.2015046134
C   C131      1.0  0.74570  0.37610  0.51811  1.0000 -0.051886759
C   C132      1.0  0.76474  0.35414  0.47568  1.0000 0.1788069709
C   C133      1.0  0.73860  0.45080  0.52680  1.0000 0.2701664732
C   C134      1.0  0.70100  0.46640  0.57120  1.0000 -0.4508446079
C   C135      1.0  0.80030  0.49790  0.52320  1.0000 -0.4892148247
C   C136      1.0  0.68900  0.47960  0.49380  1.0000 -0.4293356857
C   C137      1.0  0.74310  0.16310  0.48950  1.0000 -0.4563695511
C   C138      1.0  0.69703  0.21403  0.57778  1.0000 0.0787766238
C   C139      1.0  0.72531  0.21971  0.62071  1.0000 -0.1610605725
C   C140      1.0  0.70007  0.17787  0.65539  1.0000 -0.102946977
C   C141      1.0  0.64655  0.13035  0.64713  1.0000 -0.0402820109
C   C142      1.0  0.61827  0.12467  0.60420  1.0000 -0.1109786157
C   C143      1.0  0.64351  0.16651  0.56952  1.0000 -0.1442225559
C   C144      1.0  0.61920  0.08240  0.68190  1.0000 0.5292778441
C   C145      1.0  0.92910  0.57370  0.91220  1.0000 0.5813581997
C   C146      1.0  0.88438  0.60582  0.87968  1.0000 -0.051886759
C   C147      1.0  0.88047  0.58273  0.83532  1.0000 -0.102946977
C   C148      1.0  0.84216  0.61484  0.80380  1.0000 -0.1528340301
C   C149      1.0  0.80777  0.67003  0.81665  1.0000 0.0787766238
C   C150      1.0  0.81158  0.69302  0.86102  1.0000 -0.1610605725
C   C151      1.0  0.84989  0.66091  0.89253  1.0000 -0.1109786157
C   C152      1.0  0.58160  0.74880  0.78460  1.0000 0.2701664732
C   C153      1.0  0.76564  0.70336  0.78425  1.0000 -0.0402820109
C   C154      1.0  0.78986  0.72984  0.74336  1.0000 0.0888774629
C   C155      1.0  0.74754  0.76292  0.71497  1.0000 -0.088966848
C   C156      1.0  0.68103  0.76957  0.72746  1.0000 0.1861362437
C   C157      1.0  0.65676  0.74304  0.76835  1.0000 -0.0558748881
C   C158      1.0  0.69916  0.71004  0.79674  1.0000 -0.1914608351
C   C159      1.0  0.56360  0.69940  0.82440  1.0000 -0.4508446079
C   C160      1.0  0.57050  0.82010  0.80160  1.0000 -0.4807550742
C   C161      1.0  0.53250  0.73510  0.74810  1.0000 -0.4508446079
C   C162      1.0  0.86820  0.73200  0.73290  1.0000 -0.4508446079
C   C163      1.0  0.76887  0.78327  0.66630  1.0000 -0.088966848
C   C164      1.0  0.79764  0.73820  0.63755  1.0000 0.0888774629
C   C165      1.0  0.82899  0.76125  0.59788  1.0000 -0.0305206793
C   C166      1.0  0.83159  0.82937  0.58694  1.0000 -0.2015046134
C   C167      1.0  0.80283  0.87443  0.61569  1.0000 -0.0402820109
C   C168      1.0  0.77146  0.85138  0.65536  1.0000 0.1788069709
C   C169      1.0  0.81270  0.95250  0.60520  1.0000 0.2783392498
C   C170      1.0  0.85380  0.98560  0.64320  1.0000 -0.4508446079
C   C171      1.0  0.85020  0.96840  0.56050  1.0000 -0.4720904103
C   C172      1.0  0.74700  0.98880  0.60430  1.0000 -0.5035614317
C   C173      1.0  0.78710  0.66090  0.64580  1.0000 -0.4508446079
C   C174      1.0  0.86539  0.71561  0.56698  1.0000 0.0787766238
C   C175      1.0  0.84831  0.71109  0.52143  1.0000 -0.1610605725
C   C176      1.0  0.88122  0.66858  0.49307  1.0000 -0.088966848
C   C177      1.0  0.93110  0.63050  0.51025  1.0000 -0.0402820109
C   C178      1.0  0.94808  0.63492  0.55580  1.0000 -0.1230809355
C   C179      1.0  0.91527  0.67753  0.58416  1.0000 -0.1610605725
C   C180      1.0  0.96210  0.57850  0.47970  1.0000 0.5813581997
C   C181      1.0  0.05980  0.52200  0.75300  1.0000 0.5888658741
C   C182      1.0  0.09294  0.58272  0.72795  1.0000 -0.0402820109
C   C183      1.0  0.06739  0.60103  0.68636  1.0000 -0.1230809355
C   C184      1.0  0.10152  0.65158  0.66093  1.0000 -0.1610605725
C   C185      1.0  0.16120  0.68382  0.67710  1.0000 0.0746794918
C   C186      1.0  0.18674  0.66552  0.71870  1.0000 -0.1610605725
C   C187      1.0  0.15261  0.61497  0.74412  1.0000 -0.102946977
C   C188      1.0  0.25090  0.92730  0.65860  1.0000 0.2891708294
C   C189      1.0  0.19928  0.73814  0.64824  1.0000 -0.0305206793
C   C190      1.0  0.22701  0.72295  0.60667  1.0000 0.0888774629
C   C191      1.0  0.26460  0.77266  0.58255  1.0000 -0.088966848
C   C192      1.0  0.27446  0.83756  0.60000  1.0000 0.1788069709
C   C193      1.0  0.24675  0.85275  0.64157  1.0000 -0.051886759
C   C194      1.0  0.20916  0.80304  0.66569  1.0000 -0.2015046134
C   C195      1.0  0.21760  0.97060  0.62370  1.0000 -0.4720904103
C   C196      1.0  0.32370  0.95610  0.66870  1.0000 -0.5228235295
C   C197      1.0  0.21160  0.93420  0.70320  1.0000 -0.4807550742
C   C198      1.0  0.22320  0.64820  0.59150  1.0000 -0.4508446079
C   C199      1.0  0.28563  0.76143  0.53403  1.0000 -0.0799565162
C   C200      1.0  0.23896  0.73916  0.50130  1.0000 0.0787766238
C   C201      1.0  0.26080  0.72020  0.45886  1.0000 -0.0305206793
C   C202      1.0  0.32930  0.72350  0.44915  1.0000 -0.1914608351
C   C203      1.0  0.37610  0.74570  0.48189  1.0000 -0.051886759
C   C204      1.0  0.35414  0.76474  0.52432  1.0000 0.1788069709
C   C205      1.0  0.45080  0.73860  0.47320  1.0000 0.2701664732
C   C206      1.0  0.46640  0.70100  0.42880  1.0000 -0.4508446079
C   C207      1.0  0.49790  0.80030  0.47680  1.0000 -0.4892148247
C   C208      1.0  0.47960  0.68900  0.50620  1.0000 -0.4293356857
C   C209      1.0  0.16310  0.74310  0.51050  1.0000 -0.4563695511
C   C210      1.0  0.21403  0.69703  0.42222  1.0000 0.0787766238
C   C211      1.0  0.21971  0.72531  0.37929  1.0000 -0.1610605725
C   C212      1.0  0.17787  0.70007  0.34461  1.0000 -0.102946977
C   C213      1.0  0.13035  0.64655  0.35287  1.0000 -0.0402820109
C   C214      1.0  0.12467  0.61827  0.39580  1.0000 -0.1109786157
C   C215      1.0  0.16651  0.64351  0.43048  1.0000 -0.1442225559
C   C216      1.0  0.08240  0.61920  0.31810  1.0000 0.5292778441
C   C217      1.0  0.07090  0.42630  0.41220  1.0000 0.5813581997
C   C218      1.0  0.11562  0.39418  0.37968  1.0000 -0.051886759
C   C219      1.0  0.11953  0.41727  0.33532  1.0000 -0.102946977
C   C220      1.0  0.15784  0.38516  0.30380  1.0000 -0.1528340301
C   C221      1.0  0.19223  0.32997  0.31665  1.0000 0.0787766238
C   C222      1.0  0.18842  0.30698  0.36102  1.0000 -0.1610605725
C   C223      1.0  0.15011  0.33909  0.39253  1.0000 -0.1109786157
C   C224      1.0  0.41840  0.25120  0.28460  1.0000 0.2701664732
C   C225      1.0  0.23436  0.29664  0.28425  1.0000 -0.0402820109
C   C226      1.0  0.21014  0.27016  0.24336  1.0000 0.0888774629
C   C227      1.0  0.25246  0.23708  0.21497  1.0000 -0.088966848
C   C228      1.0  0.31897  0.23043  0.22746  1.0000 0.1861362437
C   C229      1.0  0.34324  0.25696  0.26835  1.0000 -0.0558748881
C   C230      1.0  0.30084  0.28996  0.29674  1.0000 -0.1914608351
C   C231      1.0  0.43640  0.30060  0.32440  1.0000 -0.4508446079
C   C232      1.0  0.42950  0.17990  0.30160  1.0000 -0.4807550742
C   C233      1.0  0.46750  0.26490  0.24810  1.0000 -0.4508446079
C   C234      1.0  0.13180  0.26800  0.23290  1.0000 -0.4508446079
C   C235      1.0  0.23113  0.21673  0.16630  1.0000 -0.0799565162
C   C236      1.0  0.20236  0.26180  0.13755  1.0000 0.0888774629
C   C237      1.0  0.17101  0.23875  0.09788  1.0000 -0.0305206793
C   C238      1.0  0.16841  0.17063  0.08694  1.0000 -0.2015046134
C   C239      1.0  0.19717  0.12557  0.11569  1.0000 -0.0402820109
C   C240      1.0  0.22854  0.14862  0.15536  1.0000 0.1788069709
C   C241      1.0  0.18730  0.04750  0.10520  1.0000 0.2783392498
C   C242      1.0  0.14620  0.01440  0.14320  1.0000 -0.4508446079
C   C243      1.0  0.14980  0.03160  0.06050  1.0000 -0.4720904103
C   C244      1.0  0.25300  0.01120  0.10430  1.0000 -0.5035614317
C   C245      1.0  0.21290  0.33910  0.14580  1.0000 -0.4508446079
C   C246      1.0  0.13461  0.28439  0.06698  1.0000 0.0787766238
C   C247      1.0  0.15169  0.28891  0.02143  1.0000 -0.1610605725
C   C248      1.0  0.11878  0.33142  0.99307  1.0000 -0.088966848
C   C249      1.0  0.06890  0.36950  0.01025  1.0000 -0.0402820109
C   C250      1.0  0.05192  0.36508  0.05580  1.0000 -0.1230809355
C   C251      1.0  0.08473  0.32247  0.08416  1.0000 -0.1610605725
C   C252      1.0  0.03790  0.42150  0.97970  1.0000 0.5813581997
C   C253      1.0  0.94020  0.47800  0.25300  1.0000 0.5888658741
C   C254      1.0  0.90706  0.41728  0.22795  1.0000 -0.0402820109
C   C255      1.0  0.93261  0.39897  0.18636  1.0000 -0.1230809355
C   C256      1.0  0.89848  0.34842  0.16093  1.0000 -0.1610605725
C   C257      1.0  0.83880  0.31618  0.17710  1.0000 0.0746794918
C   C258      1.0  0.81326  0.33448  0.21870  1.0000 -0.1610605725
C   C259      1.0  0.84739  0.38503  0.24412  1.0000 -0.102946977
C   C260      1.0  0.74910  0.07270  0.15860  1.0000 0.2891708294
C   C261      1.0  0.80072  0.26186  0.14824  1.0000 -0.0305206793
C   C262      1.0  0.77299  0.27705  0.10667  1.0000 0.0888774629
C   C263      1.0  0.73540  0.22734  0.08255  1.0000 -0.088966848
C   C264      1.0  0.72554  0.16244  0.10000  1.0000 0.1788069709
C   C265      1.0  0.75325  0.14725  0.14157  1.0000 -0.051886759
C   C266      1.0  0.79084  0.19696  0.16569  1.0000 -0.2015046134
C   C267      1.0  0.78240  0.02940  0.12370  1.0000 -0.4720904103
C   C268      1.0  0.67630  0.04390  0.16870  1.0000 -0.5228235295
C   C269      1.0  0.78840  0.06580  0.20320  1.0000 -0.4807550742
C   C270      1.0  0.77680  0.35180  0.09150  1.0000 -0.4508446079
C   C271      1.0  0.71437  0.23857  0.03403  1.0000 -0.0799565162
C   C272      1.0  0.76104  0.26084  0.00130  1.0000 0.0787766238
C   C273      1.0  0.73920  0.27980  0.95886  1.0000 -0.0305206793
C   C274      1.0  0.67070  0.27650  0.94915  1.0000 -0.1914608351
C   C275      1.0  0.62390  0.25430  0.98189  1.0000 -0.051886759
C   C276      1.0  0.64586  0.23526  0.02432  1.0000 0.1788069709
C   C277      1.0  0.54920  0.26140  0.97320  1.0000 0.2701664732
C   C278      1.0  0.53360  0.29900  0.92880  1.0000 -0.4508446079
C   C279      1.0  0.50210  0.19970  0.97680  1.0000 -0.4892148247
C   C280      1.0  0.52040  0.31100  0.00620  1.0000 -0.4293356857
C   C281      1.0  0.83690  0.25690  0.01050  1.0000 -0.4563695511
C   C282      1.0  0.78597  0.30297  0.92222  1.0000 0.0787766238
C   C283      1.0  0.78029  0.27469  0.87929  1.0000 -0.1610605725
C   C284      1.0  0.82213  0.29993  0.84461  1.0000 -0.102946977
C   C285      1.0  0.86965  0.35345  0.85287  1.0000 -0.0402820109
C   C286      1.0  0.87533  0.38173  0.89580  1.0000 -0.1109786157
C   C287      1.0  0.83349  0.35649  0.93048  1.0000 -0.1442225559
C   C288      1.0  0.91760  0.38080  0.81810  1.0000 0.5292778441
O   O1        1.0  0.40863  0.07477  0.54661  1.0000 -0.6591046218
O   O2        1.0  0.46709  0.03091  0.60090  1.0000 -0.6971400252
O   O3        1.0  0.19329  0.35741  0.79863  1.0000 -0.4217254019
O   O4        1.0  0.10687  0.25871  0.81547  1.0000 -0.4508446079
O   O5        1.0  0.07401  0.34899  0.76542  1.0000 -0.8737744114
O   O6        1.0  0.10020  0.37738  0.84953  1.0000 -0.8491800278
O   O7        1.0  0.45617  0.99663  0.99945  1.0000 -0.6799476466
O   O8        1.0  0.42662  0.05572  0.05987  1.0000 -0.6238353273
O   O9        1.0  0.51299  0.98503  0.76856  1.0000 -0.6591046218
O   O10       1.0  0.48685  0.92365  0.70665  1.0000 -0.6658838412
O   O11       1.0  0.11729  0.68311  0.92312  1.0000 -0.4508446079
O   O12       1.0  0.20631  0.60281  0.94358  1.0000 -0.4417330718
O   O13       1.0  0.08690  0.58810  0.97264  1.0000 -0.8869673034
O   O14       1.0  0.12037  0.56247  0.89107  1.0000 -0.8491800278
O   O15       1.0  0.35310  0.91070  0.22172  1.0000 -0.6271285584
O   O16       1.0  0.42049  0.96163  0.17484  1.0000 -0.6009022465
O   O17       1.0  0.59137  0.92523  0.04661  1.0000 -0.6591046218
O   O18       1.0  0.53291  0.96909  0.10090  1.0000 -0.6971400252
O   O19       1.0  0.80671  0.64259  0.29863  1.0000 -0.4217254019
O   O20       1.0  0.89313  0.74129  0.31547  1.0000 -0.4508446079
O   O21       1.0  0.92599  0.65101  0.26542  1.0000 -0.8737744114
O   O22       1.0  0.89980  0.62262  0.34953  1.0000 -0.8491800278
O   O23       1.0  0.54383  0.00337  0.49945  1.0000 -0.6799476466
O   O24       1.0  0.57338  0.94428  0.55987  1.0000 -0.6238353273
O   O25       1.0  0.48701  0.01497  0.26856  1.0000 -0.6591046218
O   O26       1.0  0.51315  0.07635  0.20665  1.0000 -0.6658838412
O   O27       1.0  0.88271  0.31689  0.42312  1.0000 -0.4508446079
O   O28       1.0  0.79369  0.39719  0.44358  1.0000 -0.4417330718
O   O29       1.0  0.91310  0.41190  0.47264  1.0000 -0.8869673034
O   O30       1.0  0.87963  0.43753  0.39107  1.0000 -0.8491800278
O   O31       1.0  0.64690  0.08930  0.72172  1.0000 -0.6271285584
O   O32       1.0  0.57951  0.03837  0.67484  1.0000 -0.6009022465
O   O33       1.0  0.92523  0.59137  0.95339  1.0000 -0.6591046218
O   O34       1.0  0.96909  0.53291  0.89910  1.0000 -0.6971400252
O   O35       1.0  0.64259  0.80671  0.70137  1.0000 -0.4217254019
O   O36       1.0  0.74129  0.89313  0.68453  1.0000 -0.4508446079
O   O37       1.0  0.65101  0.92599  0.73458  1.0000 -0.8737744114
O   O38       1.0  0.62262  0.89980  0.65047  1.0000 -0.8491800278
O   O39       1.0  0.00337  0.54383  0.50055  1.0000 -0.6799476466
O   O40       1.0  0.94428  0.57338  0.44013  1.0000 -0.6238353273
O   O41       1.0  0.01497  0.48701  0.73144  1.0000 -0.6591046218
O   O42       1.0  0.07635  0.51315  0.79335  1.0000 -0.6658838412
O   O43       1.0  0.31689  0.88271  0.57688  1.0000 -0.4508446079
O   O44       1.0  0.39719  0.79369  0.55642  1.0000 -0.4417330718
O   O45       1.0  0.41190  0.91310  0.52736  1.0000 -0.8869673034
O   O46       1.0  0.43753  0.87963  0.60893  1.0000 -0.8447663805
O   O47       1.0  0.08930  0.64690  0.27828  1.0000 -0.6271285584
O   O48       1.0  0.03837  0.57951  0.32516  1.0000 -0.6009022465
O   O49       1.0  0.07477  0.40863  0.45339  1.0000 -0.6543959996
O   O50       1.0  0.03091  0.46709  0.39910  1.0000 -0.6971400252
O   O51       1.0  0.35741  0.19329  0.20137  1.0000 -0.4217254019
O   O52       1.0  0.25871  0.10687  0.18453  1.0000 -0.4508446079
O   O53       1.0  0.34899  0.07401  0.23458  1.0000 -0.8737744114
O   O54       1.0  0.37738  0.10020  0.15047  1.0000 -0.8491800278
O   O55       1.0  0.99663  0.45617  0.00055  1.0000 -0.6799476466
O   O56       1.0  0.05572  0.42662  0.94013  1.0000 -0.6238353273
O   O57       1.0  0.98503  0.51299  0.23144  1.0000 -0.6591046218
O   O58       1.0  0.92365  0.48685  0.29335  1.0000 -0.6658838412
O   O59       1.0  0.68311  0.11729  0.07688  1.0000 -0.4508446079
O   O60       1.0  0.60281  0.20631  0.05642  1.0000 -0.4417330718
O   O61       1.0  0.58810  0.08690  0.02736  1.0000 -0.8869673034
O   O62       1.0  0.56247  0.12037  0.10893  1.0000 -0.8491800278
O   O63       1.0  0.91070  0.35310  0.77828  1.0000 -0.6271285584
O   O64       1.0  0.96163  0.42049  0.82516  1.0000 -0.6009022465
