# DDEC6 charges by PACMAN v1.1 (https://github.com/mtap-research/PACMAN-charge/)
data_2017[Zn][hcb]2[ASR]8
_chemical_formula_sum              "Zn2 H36 C48 N6 O8"
_cell_length_a       9.8941
_cell_length_b       10.4836
_cell_length_c       12.755
_cell_angle_alpha    93.778
_cell_angle_beta     95.501
_cell_angle_gamma    109.749

_symmetry_space_group_name_H-M    "P 1"
_symmetry_Int_Tables_number       1

loop_
  _symmetry_equiv_pos_as_xyz
  'x, y, z'

loop_
  _atom_site_type_symbol
  _atom_site_label
  _atom_site_symmetry_multiplicity
  _atom_site_fract_x
  _atom_site_fract_y
  _atom_site_fract_z
  _atom_site_occupancy
  _atom_site_charge
Zn  Zn1       1.0  0.97688  0.10806  0.77802  1.0000 0.7295559931
Zn  Zn2       1.0  0.02312  0.89194  0.22198  1.0000 0.7295559931
H   H1        1.0  0.54080  0.32850  0.90730  1.0000 0.1281833065
H   H2        1.0  0.70750  0.41300  0.05640  1.0000 0.1206409887
H   H3        1.0  0.64600  0.49110  0.30610  1.0000 0.1281833065
H   H4        1.0  0.76710  0.50480  0.23210  1.0000 0.1206409887
H   H5        1.0  0.86980  0.32500  0.21320  1.0000 0.1206409887
H   H6        1.0  0.78810  0.03570  0.41270  1.0000 0.1206409887
H   H7        1.0  0.60830  0.10660  0.47110  1.0000 0.1102159185
H   H8        1.0  0.56110  0.28760  0.40270  1.0000 0.1102159185
H   H9        1.0  0.39560  0.35590  0.23710  1.0000 0.1206409887
H   H10       1.0  0.22300  0.26870  0.09160  1.0000 0.153029679
H   H11       1.0  0.64660  0.01150  0.73170  1.0000 0.0989726078
H   H12       1.0  0.45050  0.97140  0.82220  1.0000 0.1281833065
H   H13       1.0  0.72110  0.07290  0.09170  1.0000 0.1281833065
H   H14       1.0  0.91110  0.11200  0.99380  1.0000 0.1206409887
H   H15       1.0  0.11610  0.20700  0.59310  1.0000 0.1206409887
H   H16       1.0  0.13820  0.37090  0.47940  1.0000 0.1281833065
H   H17       1.0  0.84490  0.48050  0.62110  1.0000 0.1281833065
H   H18       1.0  0.83220  0.31380  0.73140  1.0000 0.0989726078
H   H19       1.0  0.45920  0.67150  0.09270  1.0000 0.1281833065
H   H20       1.0  0.29250  0.58700  0.94360  1.0000 0.1206409887
H   H21       1.0  0.35400  0.50890  0.69390  1.0000 0.1281833065
H   H22       1.0  0.23290  0.49520  0.76790  1.0000 0.1206409887
H   H23       1.0  0.13020  0.67500  0.78680  1.0000 0.1206409887
H   H24       1.0  0.21190  0.96430  0.58730  1.0000 0.1206409887
H   H25       1.0  0.39170  0.89340  0.52890  1.0000 0.1102159185
H   H26       1.0  0.43890  0.71240  0.59730  1.0000 0.1102159185
H   H27       1.0  0.60440  0.64410  0.76290  1.0000 0.1206409887
H   H28       1.0  0.77700  0.73130  0.90840  1.0000 0.153029679
H   H29       1.0  0.35340  0.98850  0.26830  1.0000 0.0989726078
H   H30       1.0  0.54950  0.02860  0.17780  1.0000 0.1281833065
H   H31       1.0  0.27890  0.92710  0.90830  1.0000 0.1281833065
H   H32       1.0  0.08890  0.88800  0.00620  1.0000 0.1206409887
H   H33       1.0  0.88390  0.79300  0.40690  1.0000 0.1206409887
H   H34       1.0  0.86180  0.62910  0.52060  1.0000 0.1281833065
H   H35       1.0  0.15510  0.51950  0.37890  1.0000 0.1281833065
H   H36       1.0  0.16780  0.68620  0.26860  1.0000 0.0989726078
C   C1        1.0  0.25300  0.23150  0.88510  1.0000 0.5234197664
C   C2        1.0  0.36260  0.28700  0.98370  1.0000 0.0151768231
C   C3        1.0  0.50990  0.33240  0.97360  1.0000 -0.176059143
C   C4        1.0  0.60910  0.38330  0.06280  1.0000 -0.0186502781
C   C5        1.0  0.67920  0.44210  0.25310  1.0000 -0.2079174605
C   C6        1.0  0.71100  0.32510  0.29970  1.0000 0.0810779135
C   C7        1.0  0.81720  0.28140  0.26510  1.0000 -0.1904258392
C   C8        1.0  0.84700  0.17330  0.30650  1.0000 -0.0186502781
C   C9        1.0  0.95990  0.12310  0.26450  1.0000 0.5343355227
C   C10       1.0  0.76850  0.10800  0.38440  1.0000 -0.1292756584
C   C11       1.0  0.66130  0.15080  0.41950  1.0000 -0.1136583549
C   C12       1.0  0.63270  0.25880  0.37820  1.0000 -0.176059143
C   C13       1.0  0.42410  0.34920  0.17010  1.0000 -0.0186502781
C   C14       1.0  0.32080  0.29710  0.08320  1.0000 -0.1585089874
C   C15       1.0  0.66180  0.02490  0.80530  1.0000 0.0398348483
C   C16       1.0  0.54310  0.99920  0.85920  1.0000 -0.1904258392
C   C17       1.0  0.56230  0.01490  0.96920  1.0000 0.0989726078
C   C18       1.0  0.70300  0.05930  0.01810  1.0000 -0.1904258392
C   C19       1.0  0.81740  0.08370  0.95880  1.0000 0.0940700658
C   C20       1.0  0.06130  0.26320  0.59900  1.0000 0.0810779135
C   C21       1.0  0.07460  0.36130  0.52990  1.0000 -0.1976204973
C   C22       1.0  0.99290  0.44540  0.53610  1.0000 0.1102159185
C   C23       1.0  0.90150  0.42620  0.61360  1.0000 -0.1976204973
C   C24       1.0  0.89480  0.32570  0.68000  1.0000 0.0529636207
C   C25       1.0  0.74700  0.76850  0.11490  1.0000 0.5234197664
C   C26       1.0  0.63740  0.71300  0.01630  1.0000 0.0151768231
C   C27       1.0  0.49010  0.66760  0.02640  1.0000 -0.176059143
C   C28       1.0  0.39090  0.61670  0.93720  1.0000 -0.0186502781
C   C29       1.0  0.32080  0.55790  0.74690  1.0000 -0.2079174605
C   C30       1.0  0.28900  0.67490  0.70030  1.0000 0.0810779135
C   C31       1.0  0.18280  0.71860  0.73490  1.0000 -0.1904258392
C   C32       1.0  0.15300  0.82670  0.69350  1.0000 -0.0186502781
C   C33       1.0  0.04010  0.87690  0.73550  1.0000 0.5343355227
C   C34       1.0  0.23150  0.89200  0.61560  1.0000 -0.1292756584
C   C35       1.0  0.33870  0.84920  0.58050  1.0000 -0.1136583549
C   C36       1.0  0.36730  0.74120  0.62180  1.0000 -0.176059143
C   C37       1.0  0.57590  0.65080  0.82990  1.0000 -0.0186502781
C   C38       1.0  0.67920  0.70290  0.91680  1.0000 -0.1585089874
C   C39       1.0  0.33820  0.97510  0.19470  1.0000 0.0398348483
C   C40       1.0  0.45690  0.00080  0.14080  1.0000 -0.1904258392
C   C41       1.0  0.43770  0.98510  0.03080  1.0000 0.0989726078
C   C42       1.0  0.29700  0.94070  0.98190  1.0000 -0.1904258392
C   C43       1.0  0.18260  0.91630  0.04120  1.0000 0.0940700658
C   C44       1.0  0.93870  0.73680  0.40100  1.0000 0.0810779135
C   C45       1.0  0.92540  0.63870  0.47010  1.0000 -0.1976204973
C   C46       1.0  0.00710  0.55460  0.46390  1.0000 0.1102159185
C   C47       1.0  0.09850  0.57380  0.38640  1.0000 -0.1976204973
C   C48       1.0  0.10520  0.67430  0.32000  1.0000 0.0529636207
N   N1        1.0  0.56590  0.39060  0.15890  1.0000 0.0989726078
N   N2        1.0  0.79820  0.06810  0.85320  1.0000 -0.2455810171
N   N3        1.0  0.97320  0.24530  0.67410  1.0000 -0.2366214705
N   N4        1.0  0.43410  0.60940  0.84110  1.0000 0.0940700658
N   N5        1.0  0.20180  0.93190  0.14680  1.0000 -0.2455810171
N   N6        1.0  0.02680  0.75470  0.32590  1.0000 -0.2366214705
O   O1        1.0  0.12420  0.17790  0.90200  1.0000 -0.5300299537
O   O2        1.0  0.29530  0.24530  0.79960  1.0000 -0.5375449371
O   O3        1.0  0.98530  0.02790  0.31240  1.0000 -0.5628493738
O   O4        1.0  0.01450  0.16760  0.18700  1.0000 -0.5456409764
O   O5        1.0  0.87580  0.82210  0.09800  1.0000 -0.5300299537
O   O6        1.0  0.70470  0.75470  0.20040  1.0000 -0.5375449371
O   O7        1.0  0.01470  0.97210  0.68760  1.0000 -0.5628493738
O   O8        1.0  0.98550  0.83240  0.81300  1.0000 -0.5456409764
