# DDEC6 charges by PACMAN v1.1 (https://github.com/mtap-research/PACMAN-charge/)
data_2017[Tb][apo]3[ASR]1
_chemical_formula_sum              "Tb4 H64 C112 O32"
_cell_length_a       7.8178
_cell_length_b       11.8079
_cell_length_c       27.7629
_cell_angle_alpha    90
_cell_angle_beta     90
_cell_angle_gamma    90

_symmetry_space_group_name_H-M    "P 1"
_symmetry_Int_Tables_number       1

loop_
  _symmetry_equiv_pos_as_xyz
  'x, y, z'

loop_
  _atom_site_type_symbol
  _atom_site_label
  _atom_site_symmetry_multiplicity
  _atom_site_fract_x
  _atom_site_fract_y
  _atom_site_fract_z
  _atom_site_occupancy
  _atom_site_charge
Tb  Tb1       1.0  0.25000  0.33780  0.00000  1.0000 2.0813306323
Tb  Tb2       1.0  0.75000  0.16220  0.50000  1.0000 2.0813306323
Tb  Tb3       1.0  0.75000  0.66220  0.00000  1.0000 2.0813306323
Tb  Tb4       1.0  0.25000  0.83780  0.50000  1.0000 2.0813306323
H   H1        1.0  0.90980  0.25800  0.13760  1.0000 0.1308496372
H   H2        1.0  0.88770  0.22720  0.21940  1.0000 0.1220981344
H   H3        1.0  0.29120  0.01830  0.21360  1.0000 0.1220981344
H   H4        1.0  0.31700  0.05230  0.13240  1.0000 0.1357556484
H   H5        1.0  0.98650  0.25930  0.29650  1.0000 0.1220981344
H   H6        1.0  0.98010  0.23380  0.37870  1.0000 0.1308496372
H   H7        1.0  0.18260  0.92520  0.36310  1.0000 0.1308496372
H   H8        1.0  0.17560  0.94560  0.28070  1.0000 0.1220981344
H   H9        1.0  0.40980  0.24200  0.36240  1.0000 0.1308496372
H   H10       1.0  0.38770  0.27280  0.28060  1.0000 0.1220981344
H   H11       1.0  0.79120  0.48170  0.28640  1.0000 0.1220981344
H   H12       1.0  0.81700  0.44770  0.36760  1.0000 0.1357556484
H   H13       1.0  0.48650  0.24070  0.20350  1.0000 0.1220981344
H   H14       1.0  0.48010  0.26620  0.12130  1.0000 0.1308496372
H   H15       1.0  0.68260  0.57480  0.13690  1.0000 0.1308496372
H   H16       1.0  0.67560  0.55440  0.21930  1.0000 0.1220981344
H   H17       1.0  0.59020  0.25800  0.86240  1.0000 0.1308496372
H   H18       1.0  0.61230  0.22720  0.78060  1.0000 0.1220981344
H   H19       1.0  0.20880  0.01830  0.78640  1.0000 0.1220981344
H   H20       1.0  0.18300  0.05230  0.86760  1.0000 0.1357556484
H   H21       1.0  0.51350  0.25930  0.70350  1.0000 0.1220981344
H   H22       1.0  0.51990  0.23380  0.62130  1.0000 0.1308496372
H   H23       1.0  0.31740  0.92520  0.63690  1.0000 0.1308496372
H   H24       1.0  0.32440  0.94560  0.71930  1.0000 0.1220981344
H   H25       1.0  0.09020  0.24200  0.63760  1.0000 0.1308496372
H   H26       1.0  0.11230  0.27280  0.71940  1.0000 0.1220981344
H   H27       1.0  0.70880  0.48170  0.71360  1.0000 0.1220981344
H   H28       1.0  0.68300  0.44770  0.63240  1.0000 0.1357556484
H   H29       1.0  0.01350  0.24070  0.79650  1.0000 0.1220981344
H   H30       1.0  0.01990  0.26620  0.87870  1.0000 0.1308496372
H   H31       1.0  0.81740  0.57480  0.86310  1.0000 0.1308496372
H   H32       1.0  0.82440  0.55440  0.78070  1.0000 0.1220981344
H   H33       1.0  0.09020  0.74200  0.86240  1.0000 0.1308496372
H   H34       1.0  0.11230  0.77280  0.78060  1.0000 0.1220981344
H   H35       1.0  0.70880  0.98170  0.78640  1.0000 0.1220981344
H   H36       1.0  0.68300  0.94770  0.86760  1.0000 0.1357556484
H   H37       1.0  0.01350  0.74070  0.70350  1.0000 0.1220981344
H   H38       1.0  0.01990  0.76620  0.62130  1.0000 0.1308496372
H   H39       1.0  0.81740  0.07480  0.63690  1.0000 0.1308496372
H   H40       1.0  0.82440  0.05440  0.71930  1.0000 0.1220981344
H   H41       1.0  0.59020  0.75800  0.63760  1.0000 0.1308496372
H   H42       1.0  0.61230  0.72720  0.71940  1.0000 0.1220981344
H   H43       1.0  0.20880  0.51830  0.71360  1.0000 0.1220981344
H   H44       1.0  0.18300  0.55230  0.63240  1.0000 0.1357556484
H   H45       1.0  0.51350  0.75930  0.79650  1.0000 0.1220981344
H   H46       1.0  0.51990  0.73380  0.87870  1.0000 0.1308496372
H   H47       1.0  0.31740  0.42520  0.86310  1.0000 0.1308496372
H   H48       1.0  0.32440  0.44560  0.78070  1.0000 0.1220981344
H   H49       1.0  0.40980  0.74200  0.13760  1.0000 0.1308496372
H   H50       1.0  0.38770  0.77280  0.21940  1.0000 0.1220981344
H   H51       1.0  0.79120  0.98170  0.21360  1.0000 0.1220981344
H   H52       1.0  0.81700  0.94770  0.13240  1.0000 0.1357556484
H   H53       1.0  0.48650  0.74070  0.29650  1.0000 0.1220981344
H   H54       1.0  0.48010  0.76620  0.37870  1.0000 0.1308496372
H   H55       1.0  0.68260  0.07480  0.36310  1.0000 0.1308496372
H   H56       1.0  0.67560  0.05440  0.28070  1.0000 0.1220981344
H   H57       1.0  0.90980  0.75800  0.36240  1.0000 0.1308496372
H   H58       1.0  0.88770  0.72720  0.28060  1.0000 0.1220981344
H   H59       1.0  0.29120  0.51830  0.28640  1.0000 0.1220981344
H   H60       1.0  0.31700  0.55230  0.36760  1.0000 0.1357556484
H   H61       1.0  0.98650  0.75930  0.20350  1.0000 0.1220981344
H   H62       1.0  0.98010  0.73380  0.12130  1.0000 0.1308496372
H   H63       1.0  0.18260  0.42520  0.13690  1.0000 0.1308496372
H   H64       1.0  0.17560  0.44560  0.21930  1.0000 0.1220981344
C   C1        1.0  0.11780  0.16010  0.12672  1.0000 -0.0048421384
C   C2        1.0  0.98810  0.21100  0.15301  1.0000 -0.0812608734
C   C3        1.0  0.97480  0.19210  0.20214  1.0000 -0.1503558918
C   C4        1.0  0.08970  0.12140  0.22629  1.0000 0.0677092178
C   C5        1.0  0.21570  0.06810  0.19868  1.0000 -0.1503558918
C   C6        1.0  0.23070  0.08780  0.14983  1.0000 -0.0865739328
C   C7        1.0  0.08220  0.10550  0.27939  1.0000 0.0677092178
C   C8        1.0  0.02430  0.19130  0.30963  1.0000 -0.140091104
C   C9        1.0  0.02240  0.17640  0.35905  1.0000 -0.0865739328
C   C10       1.0  0.08240  0.07730  0.37981  1.0000 -0.0215531015
C   C11       1.0  0.14110  0.99200  0.34973  1.0000 -0.0812608734
C   C12       1.0  0.13900  0.00470  0.30024  1.0000 -0.140091104
C   C13       1.0  0.14810  0.19360  0.07521  1.0000 0.5609476766
C   C14       1.0  0.08560  0.06070  0.43370  1.0000 0.6837031297
C   C15       1.0  0.61780  0.33990  0.37328  1.0000 -0.0048421384
C   C16       1.0  0.48810  0.28900  0.34699  1.0000 -0.0812608734
C   C17       1.0  0.47480  0.30790  0.29786  1.0000 -0.1503558918
C   C18       1.0  0.58970  0.37860  0.27371  1.0000 0.0677092178
C   C19       1.0  0.71570  0.43190  0.30132  1.0000 -0.1503558918
C   C20       1.0  0.73070  0.41220  0.35017  1.0000 -0.0865739328
C   C21       1.0  0.58220  0.39450  0.22061  1.0000 0.0677092178
C   C22       1.0  0.52430  0.30870  0.19037  1.0000 -0.140091104
C   C23       1.0  0.52240  0.32360  0.14095  1.0000 -0.0865739328
C   C24       1.0  0.58240  0.42270  0.12019  1.0000 -0.0215531015
C   C25       1.0  0.64110  0.50800  0.15027  1.0000 -0.0812608734
C   C26       1.0  0.63900  0.49530  0.19976  1.0000 -0.140091104
C   C27       1.0  0.64810  0.30640  0.42479  1.0000 0.5609476766
C   C28       1.0  0.58560  0.43930  0.06630  1.0000 0.6837031297
C   C29       1.0  0.38220  0.16010  0.87328  1.0000 -0.0048421384
C   C30       1.0  0.51190  0.21100  0.84699  1.0000 -0.0812608734
C   C31       1.0  0.52520  0.19210  0.79786  1.0000 -0.1503558918
C   C32       1.0  0.41030  0.12140  0.77371  1.0000 0.0677092178
C   C33       1.0  0.28430  0.06810  0.80132  1.0000 -0.1503558918
C   C34       1.0  0.26930  0.08780  0.85017  1.0000 -0.0865739328
C   C35       1.0  0.41780  0.10550  0.72061  1.0000 0.0677092178
C   C36       1.0  0.47570  0.19130  0.69037  1.0000 -0.140091104
C   C37       1.0  0.47760  0.17640  0.64095  1.0000 -0.0865739328
C   C38       1.0  0.41760  0.07730  0.62019  1.0000 -0.0215531015
C   C39       1.0  0.35890  0.99200  0.65027  1.0000 -0.0812608734
C   C40       1.0  0.36100  0.00470  0.69976  1.0000 -0.140091104
C   C41       1.0  0.35190  0.19360  0.92479  1.0000 0.5609476766
C   C42       1.0  0.41440  0.06070  0.56630  1.0000 0.6837031297
C   C43       1.0  0.88220  0.33990  0.62672  1.0000 -0.0048421384
C   C44       1.0  0.01190  0.28900  0.65301  1.0000 -0.0812608734
C   C45       1.0  0.02520  0.30790  0.70214  1.0000 -0.1503558918
C   C46       1.0  0.91030  0.37860  0.72629  1.0000 0.0677092178
C   C47       1.0  0.78430  0.43190  0.69868  1.0000 -0.1503558918
C   C48       1.0  0.76930  0.41220  0.64983  1.0000 -0.0865739328
C   C49       1.0  0.91780  0.39450  0.77939  1.0000 0.0677092178
C   C50       1.0  0.97570  0.30870  0.80963  1.0000 -0.140091104
C   C51       1.0  0.97760  0.32360  0.85905  1.0000 -0.0865739328
C   C52       1.0  0.91760  0.42270  0.87981  1.0000 -0.0215531015
C   C53       1.0  0.85890  0.50800  0.84973  1.0000 -0.0812608734
C   C54       1.0  0.86100  0.49530  0.80024  1.0000 -0.140091104
C   C55       1.0  0.85190  0.30640  0.57521  1.0000 0.5609476766
C   C56       1.0  0.91440  0.43930  0.93370  1.0000 0.6837031297
C   C57       1.0  0.88220  0.83990  0.87328  1.0000 -0.0048421384
C   C58       1.0  0.01190  0.78900  0.84699  1.0000 -0.0812608734
C   C59       1.0  0.02520  0.80790  0.79786  1.0000 -0.1503558918
C   C60       1.0  0.91030  0.87860  0.77371  1.0000 0.0677092178
C   C61       1.0  0.78430  0.93190  0.80132  1.0000 -0.1503558918
C   C62       1.0  0.76930  0.91220  0.85017  1.0000 -0.0865739328
C   C63       1.0  0.91780  0.89450  0.72061  1.0000 0.0677092178
C   C64       1.0  0.97570  0.80870  0.69037  1.0000 -0.140091104
C   C65       1.0  0.97760  0.82360  0.64095  1.0000 -0.0865739328
C   C66       1.0  0.91760  0.92270  0.62019  1.0000 -0.0215531015
C   C67       1.0  0.85890  0.00800  0.65027  1.0000 -0.0812608734
C   C68       1.0  0.86100  0.99530  0.69976  1.0000 -0.140091104
C   C69       1.0  0.85190  0.80640  0.92479  1.0000 0.5609476766
C   C70       1.0  0.91440  0.93930  0.56630  1.0000 0.6837031297
C   C71       1.0  0.38220  0.66010  0.62672  1.0000 -0.0051716971
C   C72       1.0  0.51190  0.71100  0.65301  1.0000 -0.0812608734
C   C73       1.0  0.52520  0.69210  0.70214  1.0000 -0.1503558918
C   C74       1.0  0.41030  0.62140  0.72629  1.0000 0.0677092178
C   C75       1.0  0.28430  0.56810  0.69868  1.0000 -0.1503558918
C   C76       1.0  0.26930  0.58780  0.64983  1.0000 -0.0865739328
C   C77       1.0  0.41780  0.60550  0.77939  1.0000 0.0677092178
C   C78       1.0  0.47570  0.69130  0.80963  1.0000 -0.140091104
C   C79       1.0  0.47760  0.67640  0.85905  1.0000 -0.0865739328
C   C80       1.0  0.41760  0.57730  0.87981  1.0000 -0.0215531015
C   C81       1.0  0.35890  0.49200  0.84973  1.0000 -0.0812608734
C   C82       1.0  0.36100  0.50470  0.80024  1.0000 -0.140091104
C   C83       1.0  0.35190  0.69360  0.57521  1.0000 0.5609476766
C   C84       1.0  0.41440  0.56070  0.93370  1.0000 0.6837031297
C   C85       1.0  0.61780  0.83990  0.12672  1.0000 -0.0048421384
C   C86       1.0  0.48810  0.78900  0.15301  1.0000 -0.0812608734
C   C87       1.0  0.47480  0.80790  0.20214  1.0000 -0.1503558918
C   C88       1.0  0.58970  0.87860  0.22629  1.0000 0.0677092178
C   C89       1.0  0.71570  0.93190  0.19868  1.0000 -0.1503558918
C   C90       1.0  0.73070  0.91220  0.14983  1.0000 -0.0865739328
C   C91       1.0  0.58220  0.89450  0.27939  1.0000 0.0677092178
C   C92       1.0  0.52430  0.80870  0.30963  1.0000 -0.140091104
C   C93       1.0  0.52240  0.82360  0.35905  1.0000 -0.0865739328
C   C94       1.0  0.58240  0.92270  0.37981  1.0000 -0.0215531015
C   C95       1.0  0.64110  0.00800  0.34973  1.0000 -0.0812608734
C   C96       1.0  0.63900  0.99530  0.30024  1.0000 -0.140091104
C   C97       1.0  0.64810  0.80640  0.07521  1.0000 0.5609476766
C   C98       1.0  0.58560  0.93930  0.43370  1.0000 0.6837031297
C   C99       1.0  0.11780  0.66010  0.37328  1.0000 -0.0048421384
C   C100      1.0  0.98810  0.71100  0.34699  1.0000 -0.0812608734
C   C101      1.0  0.97480  0.69210  0.29786  1.0000 -0.1503558918
C   C102      1.0  0.08970  0.62140  0.27371  1.0000 0.0677092178
C   C103      1.0  0.21570  0.56810  0.30132  1.0000 -0.1503558918
C   C104      1.0  0.23070  0.58780  0.35017  1.0000 -0.0865739328
C   C105      1.0  0.08220  0.60550  0.22061  1.0000 0.0677092178
C   C106      1.0  0.02430  0.69130  0.19037  1.0000 -0.140091104
C   C107      1.0  0.02240  0.67640  0.14095  1.0000 -0.0865739328
C   C108      1.0  0.08240  0.57730  0.12019  1.0000 -0.0215531015
C   C109      1.0  0.14110  0.49200  0.15027  1.0000 -0.0812608734
C   C110      1.0  0.13900  0.50470  0.19976  1.0000 -0.140091104
C   C111      1.0  0.14810  0.69360  0.42479  1.0000 0.5609476766
C   C112      1.0  0.08560  0.56070  0.06630  1.0000 0.6837031297
O   O1        1.0  0.03450  0.25060  0.05307  1.0000 -0.6022156128
O   O2        1.0  0.29010  0.17270  0.05591  1.0000 -0.6022156128
O   O3        1.0  0.17180  0.97940  0.44931  1.0000 -0.6564718881
O   O4        1.0  0.00730  0.13060  0.45967  1.0000 -0.6335285031
O   O5        1.0  0.53450  0.24940  0.44693  1.0000 -0.6022156128
O   O6        1.0  0.79010  0.32730  0.44409  1.0000 -0.6022156128
O   O7        1.0  0.67180  0.52060  0.05069  1.0000 -0.6564718881
O   O8        1.0  0.50730  0.36940  0.04033  1.0000 -0.6335285031
O   O9        1.0  0.46550  0.25060  0.94693  1.0000 -0.6022156128
O   O10       1.0  0.20990  0.17270  0.94409  1.0000 -0.6022156128
O   O11       1.0  0.32820  0.97940  0.55069  1.0000 -0.6564718881
O   O12       1.0  0.49270  0.13060  0.54033  1.0000 -0.6335285031
O   O13       1.0  0.96550  0.24940  0.55307  1.0000 -0.6022156128
O   O14       1.0  0.70990  0.32730  0.55591  1.0000 -0.6022156128
O   O15       1.0  0.82820  0.52060  0.94931  1.0000 -0.6564718881
O   O16       1.0  0.99270  0.36940  0.95967  1.0000 -0.6335285031
O   O17       1.0  0.96550  0.74940  0.94693  1.0000 -0.6022156128
O   O18       1.0  0.70990  0.82730  0.94409  1.0000 -0.6022156128
O   O19       1.0  0.82820  0.02060  0.55069  1.0000 -0.6564718881
O   O20       1.0  0.99270  0.86940  0.54033  1.0000 -0.6335285031
O   O21       1.0  0.46550  0.75060  0.55307  1.0000 -0.6022156128
O   O22       1.0  0.20990  0.67270  0.55591  1.0000 -0.6022156128
O   O23       1.0  0.32820  0.47940  0.94931  1.0000 -0.6564718881
O   O24       1.0  0.49270  0.63060  0.95967  1.0000 -0.6335285031
O   O25       1.0  0.53450  0.74940  0.05307  1.0000 -0.6022156128
O   O26       1.0  0.79010  0.82730  0.05591  1.0000 -0.6022156128
O   O27       1.0  0.67180  0.02060  0.44931  1.0000 -0.6564718881
O   O28       1.0  0.50730  0.86940  0.45967  1.0000 -0.6335285031
O   O29       1.0  0.03450  0.75060  0.44693  1.0000 -0.6022156128
O   O30       1.0  0.29010  0.67270  0.44409  1.0000 -0.6022156128
O   O31       1.0  0.17180  0.47940  0.05069  1.0000 -0.6564718881
O   O32       1.0  0.00730  0.63060  0.04033  1.0000 -0.6335285031
