# DDEC6 charges by PACMAN v1.1 (https://github.com/mtap-research/PACMAN-charge/)
data_2017[Al][llj]3[ASR]1
_chemical_formula_sum              "Al16 H112 C168 N8 O64"
_cell_length_a       16.2796
_cell_length_b       16.7554
_cell_length_c       33.2117
_cell_angle_alpha    90
_cell_angle_beta     90
_cell_angle_gamma    90

_symmetry_space_group_name_H-M    "P 1"
_symmetry_Int_Tables_number       1

loop_
  _symmetry_equiv_pos_as_xyz
  'x, y, z'

loop_
  _atom_site_type_symbol
  _atom_site_label
  _atom_site_symmetry_multiplicity
  _atom_site_fract_x
  _atom_site_fract_y
  _atom_site_fract_z
  _atom_site_occupancy
  _atom_site_charge
Al  Al1       1.0  0.35705  0.61657  0.09137  1.0000 1.6281657821
Al  Al2       1.0  0.64295  0.38343  0.09137  1.0000 1.6281657821
Al  Al3       1.0  0.85705  0.88343  0.40863  1.0000 1.6281657821
Al  Al4       1.0  0.14295  0.11657  0.40863  1.0000 1.6281657821
Al  Al5       1.0  0.64295  0.38343  0.90863  1.0000 1.6281657821
Al  Al6       1.0  0.35705  0.61657  0.90863  1.0000 1.6281657821
Al  Al7       1.0  0.14295  0.11657  0.59137  1.0000 1.6281657821
Al  Al8       1.0  0.85705  0.88343  0.59137  1.0000 1.6281657821
Al  Al9       1.0  0.35382  0.70892  0.00000  1.0000 1.6581903106
Al  Al10      1.0  0.64618  0.29108  0.00000  1.0000 1.6581903106
Al  Al11      1.0  0.85382  0.79108  0.50000  1.0000 1.6581903106
Al  Al12      1.0  0.14618  0.20892  0.50000  1.0000 1.6581903106
Al  Al13      1.0  0.00000  0.00000  0.36977  1.0000 1.6064164048
Al  Al14      1.0  0.50000  0.50000  0.13023  1.0000 1.6040967112
Al  Al15      1.0  0.00000  0.00000  0.63023  1.0000 1.6064164048
Al  Al16      1.0  0.50000  0.50000  0.86977  1.0000 1.6040967112
H   H1        1.0  0.43810  0.62170  0.03460  1.0000 0.4001260499
H   H2        1.0  0.56190  0.37830  0.03460  1.0000 0.4001260499
H   H3        1.0  0.93810  0.87830  0.46540  1.0000 0.4001260499
H   H4        1.0  0.06190  0.12170  0.46540  1.0000 0.4001260499
H   H5        1.0  0.56190  0.37830  0.96540  1.0000 0.4001260499
H   H6        1.0  0.43810  0.62170  0.96540  1.0000 0.4001260499
H   H7        1.0  0.06190  0.12170  0.53460  1.0000 0.4001260499
H   H8        1.0  0.93810  0.87830  0.53460  1.0000 0.4001260499
H   H9        1.0  0.28840  0.79270  0.15450  1.0000 0.1188252313
H   H10       1.0  0.71160  0.20730  0.15450  1.0000 0.1188252313
H   H11       1.0  0.78840  0.70730  0.34550  1.0000 0.1188252313
H   H12       1.0  0.21160  0.29270  0.34550  1.0000 0.1188252313
H   H13       1.0  0.71160  0.20730  0.84550  1.0000 0.1188252313
H   H14       1.0  0.28840  0.79270  0.84550  1.0000 0.1188252313
H   H15       1.0  0.21160  0.29270  0.65450  1.0000 0.1188252313
H   H16       1.0  0.78840  0.70730  0.65450  1.0000 0.1188252313
H   H17       1.0  0.29400  0.92850  0.05490  1.0000 0.1188252313
H   H18       1.0  0.70600  0.07150  0.05490  1.0000 0.1188252313
H   H19       1.0  0.79400  0.57150  0.44510  1.0000 0.1188252313
H   H20       1.0  0.20600  0.42850  0.44510  1.0000 0.1188252313
H   H21       1.0  0.70600  0.07150  0.94510  1.0000 0.1188252313
H   H22       1.0  0.29400  0.92850  0.94510  1.0000 0.1188252313
H   H23       1.0  0.20600  0.42850  0.55490  1.0000 0.1188252313
H   H24       1.0  0.79400  0.57150  0.55490  1.0000 0.1188252313
H   H25       1.0  0.29460  0.90550  0.19340  1.0000 0.1188252313
H   H26       1.0  0.70540  0.09450  0.19340  1.0000 0.1188252313
H   H27       1.0  0.79460  0.59450  0.30660  1.0000 0.1188252313
H   H28       1.0  0.20540  0.40550  0.30660  1.0000 0.1188252313
H   H29       1.0  0.70540  0.09450  0.80660  1.0000 0.1188252313
H   H30       1.0  0.29460  0.90550  0.80660  1.0000 0.1188252313
H   H31       1.0  0.20540  0.40550  0.69340  1.0000 0.1188252313
H   H32       1.0  0.79460  0.59450  0.69340  1.0000 0.1188252313
H   H33       1.0  0.29480  0.04140  0.09430  1.0000 0.1188252313
H   H34       1.0  0.70520  0.95860  0.09430  1.0000 0.1188252313
H   H35       1.0  0.79480  0.45860  0.40570  1.0000 0.1188252313
H   H36       1.0  0.20520  0.54140  0.40570  1.0000 0.1188252313
H   H37       1.0  0.70520  0.95860  0.90570  1.0000 0.1188252313
H   H38       1.0  0.29480  0.04140  0.90570  1.0000 0.1188252313
H   H39       1.0  0.20520  0.54140  0.59430  1.0000 0.1188252313
H   H40       1.0  0.79480  0.45860  0.59430  1.0000 0.1188252313
H   H41       1.0  0.35170  0.11580  0.23930  1.0000 0.1188252313
H   H42       1.0  0.64830  0.88420  0.23930  1.0000 0.1188252313
H   H43       1.0  0.85170  0.38420  0.26070  1.0000 0.1188252313
H   H44       1.0  0.14830  0.61580  0.26070  1.0000 0.1188252313
H   H45       1.0  0.64830  0.88420  0.76070  1.0000 0.1188252313
H   H46       1.0  0.35170  0.11580  0.76070  1.0000 0.1188252313
H   H47       1.0  0.14830  0.61580  0.73930  1.0000 0.1188252313
H   H48       1.0  0.85170  0.38420  0.73930  1.0000 0.1188252313
H   H49       1.0  0.15410  0.00110  0.19430  1.0000 0.1188252313
H   H50       1.0  0.84590  0.99890  0.19430  1.0000 0.1188252313
H   H51       1.0  0.65410  0.49890  0.30570  1.0000 0.1188252313
H   H52       1.0  0.34590  0.50110  0.30570  1.0000 0.1188252313
H   H53       1.0  0.84590  0.99890  0.80570  1.0000 0.1188252313
H   H54       1.0  0.15410  0.00110  0.80570  1.0000 0.1188252313
H   H55       1.0  0.34590  0.50110  0.69430  1.0000 0.1188252313
H   H56       1.0  0.65410  0.49890  0.69430  1.0000 0.1188252313
H   H57       1.0  0.25810  0.20380  0.17400  1.0000 0.1188252313
H   H58       1.0  0.74190  0.79620  0.17400  1.0000 0.1188252313
H   H59       1.0  0.75810  0.29620  0.32600  1.0000 0.1188252313
H   H60       1.0  0.24190  0.70380  0.32600  1.0000 0.1188252313
H   H61       1.0  0.74190  0.79620  0.82600  1.0000 0.1188252313
H   H62       1.0  0.25810  0.20380  0.82600  1.0000 0.1188252313
H   H63       1.0  0.24190  0.70380  0.67400  1.0000 0.1188252313
H   H64       1.0  0.75810  0.29620  0.67400  1.0000 0.1188252313
H   H65       1.0  0.44560  0.06370  0.13940  1.0000 0.1188252313
H   H66       1.0  0.55440  0.93630  0.13940  1.0000 0.1188252313
H   H67       1.0  0.94560  0.43630  0.36060  1.0000 0.1188252313
H   H68       1.0  0.05440  0.56370  0.36060  1.0000 0.1188252313
H   H69       1.0  0.55440  0.93630  0.86060  1.0000 0.1188252313
H   H70       1.0  0.44560  0.06370  0.86060  1.0000 0.1188252313
H   H71       1.0  0.05440  0.56370  0.63940  1.0000 0.1188252313
H   H72       1.0  0.94560  0.43630  0.63940  1.0000 0.1188252313
H   H73       1.0  0.29070  0.11710  0.30200  1.0000 0.1188252313
H   H74       1.0  0.70930  0.88290  0.30200  1.0000 0.1188252313
H   H75       1.0  0.79070  0.38290  0.19800  1.0000 0.1188252313
H   H76       1.0  0.20930  0.61710  0.19800  1.0000 0.1188252313
H   H77       1.0  0.70930  0.88290  0.69800  1.0000 0.1188252313
H   H78       1.0  0.29070  0.11710  0.69800  1.0000 0.1188252313
H   H79       1.0  0.20930  0.61710  0.80200  1.0000 0.1188252313
H   H80       1.0  0.79070  0.38290  0.80200  1.0000 0.1188252313
H   H81       1.0  0.09500  0.00030  0.25820  1.0000 0.1188252313
H   H82       1.0  0.90500  0.99970  0.25820  1.0000 0.1188252313
H   H83       1.0  0.59500  0.49970  0.24180  1.0000 0.1188252313
H   H84       1.0  0.40500  0.50030  0.24180  1.0000 0.1188252313
H   H85       1.0  0.90500  0.99970  0.74180  1.0000 0.1188252313
H   H86       1.0  0.09500  0.00030  0.74180  1.0000 0.1188252313
H   H87       1.0  0.40500  0.50030  0.75820  1.0000 0.1188252313
H   H88       1.0  0.59500  0.49970  0.75820  1.0000 0.1188252313
H   H89       1.0  0.33490  0.31470  0.15790  1.0000 0.1188252313
H   H90       1.0  0.66510  0.68530  0.15790  1.0000 0.1188252313
H   H91       1.0  0.83490  0.18530  0.34210  1.0000 0.1188252313
H   H92       1.0  0.16510  0.81470  0.34210  1.0000 0.1188252313
H   H93       1.0  0.66510  0.68530  0.84210  1.0000 0.1188252313
H   H94       1.0  0.33490  0.31470  0.84210  1.0000 0.1188252313
H   H95       1.0  0.16510  0.81470  0.65790  1.0000 0.1188252313
H   H96       1.0  0.83490  0.18530  0.65790  1.0000 0.1188252313
H   H97       1.0  0.52120  0.17410  0.12230  1.0000 0.1090701861
H   H98       1.0  0.47880  0.82590  0.12230  1.0000 0.1090701861
H   H99       1.0  0.02120  0.32590  0.37770  1.0000 0.1090701861
H   H100      1.0  0.97880  0.67410  0.37770  1.0000 0.1090701861
H   H101      1.0  0.47880  0.82590  0.87770  1.0000 0.1090701861
H   H102      1.0  0.52120  0.17410  0.87770  1.0000 0.1090701861
H   H103      1.0  0.97880  0.67410  0.62230  1.0000 0.1090701861
H   H104      1.0  0.02120  0.32590  0.62230  1.0000 0.1090701861
H   H105      1.0  0.08490  0.99350  0.42620  1.0000 0.4001260499
H   H106      1.0  0.91510  0.00650  0.42620  1.0000 0.4001260499
H   H107      1.0  0.58490  0.50650  0.07380  1.0000 0.4001260499
H   H108      1.0  0.41510  0.49350  0.07380  1.0000 0.4001260499
H   H109      1.0  0.91510  0.00650  0.57380  1.0000 0.4001260499
H   H110      1.0  0.08490  0.99350  0.57380  1.0000 0.4001260499
H   H111      1.0  0.41510  0.49350  0.92620  1.0000 0.4001260499
H   H112      1.0  0.58490  0.50650  0.92620  1.0000 0.4001260499
C   C1        1.0  0.29790  0.77573  0.07544  1.0000 0.6179739064
C   C2        1.0  0.70210  0.22427  0.07544  1.0000 0.6179739064
C   C3        1.0  0.79790  0.72427  0.42456  1.0000 0.6179739064
C   C4        1.0  0.20210  0.27573  0.42456  1.0000 0.6179739064
C   C5        1.0  0.70210  0.22427  0.92456  1.0000 0.6179739064
C   C6        1.0  0.29790  0.77573  0.92456  1.0000 0.6179739064
C   C7        1.0  0.20210  0.27573  0.57544  1.0000 0.6179739064
C   C8        1.0  0.79790  0.72427  0.57544  1.0000 0.6179739064
C   C9        1.0  0.29320  0.84790  0.10028  1.0000 -0.0980785725
C   C10       1.0  0.70680  0.15210  0.10028  1.0000 -0.0980785725
C   C11       1.0  0.79320  0.65210  0.39972  1.0000 -0.0980785725
C   C12       1.0  0.20680  0.34790  0.39972  1.0000 -0.0980785725
C   C13       1.0  0.70680  0.15210  0.89972  1.0000 -0.0980785725
C   C14       1.0  0.29320  0.84790  0.89972  1.0000 -0.0980785725
C   C15       1.0  0.20680  0.34790  0.60028  1.0000 -0.0980785725
C   C16       1.0  0.79320  0.65210  0.60028  1.0000 -0.0980785725
C   C17       1.0  0.29130  0.84248  0.14222  1.0000 -0.0813160384
C   C18       1.0  0.70870  0.15752  0.14222  1.0000 -0.0813160384
C   C19       1.0  0.79130  0.65752  0.35778  1.0000 -0.0813160384
C   C20       1.0  0.20870  0.34248  0.35778  1.0000 -0.0813160384
C   C21       1.0  0.70870  0.15752  0.85778  1.0000 -0.0813160384
C   C22       1.0  0.29130  0.84248  0.85778  1.0000 -0.0813160384
C   C23       1.0  0.20870  0.34248  0.64222  1.0000 -0.0813160384
C   C24       1.0  0.79130  0.65752  0.64222  1.0000 -0.0813160384
C   C25       1.0  0.29400  0.92364  0.08284  1.0000 -0.0905338324
C   C26       1.0  0.70600  0.07636  0.08284  1.0000 -0.0905338324
C   C27       1.0  0.79400  0.57636  0.41716  1.0000 -0.0905338324
C   C28       1.0  0.20600  0.42364  0.41716  1.0000 -0.0905338324
C   C29       1.0  0.70600  0.07636  0.91716  1.0000 -0.0905338324
C   C30       1.0  0.29400  0.92364  0.91716  1.0000 -0.0905338324
C   C31       1.0  0.20600  0.42364  0.58284  1.0000 -0.0905338324
C   C32       1.0  0.79400  0.57636  0.58284  1.0000 -0.0905338324
C   C33       1.0  0.29390  0.91030  0.16552  1.0000 -0.2015855106
C   C34       1.0  0.70610  0.08970  0.16552  1.0000 -0.2082723529
C   C35       1.0  0.79390  0.58970  0.33448  1.0000 -0.2082723529
C   C36       1.0  0.20610  0.41030  0.33448  1.0000 -0.2082723529
C   C37       1.0  0.70610  0.08970  0.83448  1.0000 -0.2082723529
C   C38       1.0  0.29390  0.91030  0.83448  1.0000 -0.2015855106
C   C39       1.0  0.20610  0.41030  0.66552  1.0000 -0.2082723529
C   C40       1.0  0.79390  0.58970  0.66552  1.0000 -0.2082723529
C   C41       1.0  0.29480  0.99130  0.10642  1.0000 -0.2015855106
C   C42       1.0  0.70520  0.00870  0.10642  1.0000 -0.2015855106
C   C43       1.0  0.79480  0.50870  0.39358  1.0000 -0.2015855106
C   C44       1.0  0.20520  0.49130  0.39358  1.0000 -0.2015855106
C   C45       1.0  0.70520  0.00870  0.89358  1.0000 -0.2015855106
C   C46       1.0  0.29480  0.99130  0.89358  1.0000 -0.2015855106
C   C47       1.0  0.20520  0.49130  0.60642  1.0000 -0.2015855106
C   C48       1.0  0.79480  0.50870  0.60642  1.0000 -0.2015855106
C   C49       1.0  0.29550  0.98550  0.14830  1.0000 0.1808876848
C   C50       1.0  0.70450  0.01450  0.14830  1.0000 0.1808876848
C   C51       1.0  0.79550  0.51450  0.35170  1.0000 0.1808876848
C   C52       1.0  0.20450  0.48550  0.35170  1.0000 0.1808876848
C   C53       1.0  0.70450  0.01450  0.85170  1.0000 0.1808876848
C   C54       1.0  0.29550  0.98550  0.85170  1.0000 0.1808876848
C   C55       1.0  0.20450  0.48550  0.64830  1.0000 0.1808876848
C   C56       1.0  0.79550  0.51450  0.64830  1.0000 0.1808876848
C   C57       1.0  0.26000  0.05604  0.21052  1.0000 0.1693484025
C   C58       1.0  0.74000  0.94396  0.21052  1.0000 0.1693484025
C   C59       1.0  0.76000  0.44396  0.28948  1.0000 0.1693484025
C   C60       1.0  0.24000  0.55604  0.28948  1.0000 0.1693484025
C   C61       1.0  0.74000  0.94396  0.78948  1.0000 0.1693484025
C   C62       1.0  0.26000  0.05604  0.78948  1.0000 0.1693484025
C   C63       1.0  0.24000  0.55604  0.71052  1.0000 0.1693484025
C   C64       1.0  0.76000  0.44396  0.71052  1.0000 0.1693484025
C   C65       1.0  0.34460  0.12170  0.15903  1.0000 0.1693484025
C   C66       1.0  0.65540  0.87830  0.15903  1.0000 0.1693484025
C   C67       1.0  0.84460  0.37830  0.34097  1.0000 0.1693484025
C   C68       1.0  0.15540  0.62170  0.34097  1.0000 0.1693484025
C   C69       1.0  0.65540  0.87830  0.84097  1.0000 0.1693484025
C   C70       1.0  0.34460  0.12170  0.84097  1.0000 0.1693484025
C   C71       1.0  0.15540  0.62170  0.65903  1.0000 0.1693484025
C   C72       1.0  0.84460  0.37830  0.65903  1.0000 0.1693484025
C   C73       1.0  0.30040  0.09250  0.24298  1.0000 -0.2082723529
C   C74       1.0  0.69960  0.90750  0.24298  1.0000 -0.2082723529
C   C75       1.0  0.80040  0.40750  0.25702  1.0000 -0.2082723529
C   C76       1.0  0.19960  0.59250  0.25702  1.0000 -0.2082723529
C   C77       1.0  0.69960  0.90750  0.75702  1.0000 -0.2082723529
C   C78       1.0  0.30040  0.09250  0.75702  1.0000 -0.2082723529
C   C79       1.0  0.19960  0.59250  0.74298  1.0000 -0.2082723529
C   C80       1.0  0.80040  0.40750  0.74298  1.0000 -0.2082723529
C   C81       1.0  0.18200  0.02330  0.21596  1.0000 -0.2082723529
C   C82       1.0  0.81800  0.97670  0.21596  1.0000 -0.2082723529
C   C83       1.0  0.68200  0.47670  0.28404  1.0000 -0.2082723529
C   C84       1.0  0.31800  0.52330  0.28404  1.0000 -0.2082723529
C   C85       1.0  0.81800  0.97670  0.78404  1.0000 -0.2082723529
C   C86       1.0  0.18200  0.02330  0.78404  1.0000 -0.2082723529
C   C87       1.0  0.31800  0.52330  0.71596  1.0000 -0.2082723529
C   C88       1.0  0.68200  0.47670  0.71596  1.0000 -0.2082723529
C   C89       1.0  0.31110  0.19780  0.16389  1.0000 -0.2015855106
C   C90       1.0  0.68890  0.80220  0.16389  1.0000 -0.2015855106
C   C91       1.0  0.81110  0.30220  0.33611  1.0000 -0.2015855106
C   C92       1.0  0.18890  0.69780  0.33611  1.0000 -0.2015855106
C   C93       1.0  0.68890  0.80220  0.83611  1.0000 -0.2015855106
C   C94       1.0  0.31110  0.19780  0.83611  1.0000 -0.2015855106
C   C95       1.0  0.18890  0.69780  0.66389  1.0000 -0.2015855106
C   C96       1.0  0.81110  0.30220  0.66389  1.0000 -0.2015855106
C   C97       1.0  0.42330  0.11420  0.14307  1.0000 -0.2015855106
C   C98       1.0  0.57670  0.88580  0.14307  1.0000 -0.2015855106
C   C99       1.0  0.92330  0.38580  0.35693  1.0000 -0.2015855106
C   C100      1.0  0.07670  0.61420  0.35693  1.0000 -0.2015855106
C   C101      1.0  0.57670  0.88580  0.85693  1.0000 -0.2015855106
C   C102      1.0  0.42330  0.11420  0.85693  1.0000 -0.2015855106
C   C103      1.0  0.07670  0.61420  0.64307  1.0000 -0.2015855106
C   C104      1.0  0.92330  0.38580  0.64307  1.0000 -0.2015855106
C   C105      1.0  0.26360  0.09370  0.28040  1.0000 -0.0905338324
C   C106      1.0  0.73640  0.90630  0.28040  1.0000 -0.0905338324
C   C107      1.0  0.76360  0.40630  0.21960  1.0000 -0.0905338324
C   C108      1.0  0.23640  0.59370  0.21960  1.0000 -0.0905338324
C   C109      1.0  0.73640  0.90630  0.71960  1.0000 -0.0905338324
C   C110      1.0  0.26360  0.09370  0.71960  1.0000 -0.0905338324
C   C111      1.0  0.23640  0.59370  0.78040  1.0000 -0.0905338324
C   C112      1.0  0.76360  0.40630  0.78040  1.0000 -0.0905338324
C   C113      1.0  0.14590  0.02410  0.25424  1.0000 -0.0905338324
C   C114      1.0  0.85410  0.97590  0.25424  1.0000 -0.0905338324
C   C115      1.0  0.64590  0.47590  0.24576  1.0000 -0.0905338324
C   C116      1.0  0.35410  0.52410  0.24576  1.0000 -0.0905338324
C   C117      1.0  0.85410  0.97590  0.74576  1.0000 -0.0905338324
C   C118      1.0  0.14590  0.02410  0.74576  1.0000 -0.0905338324
C   C119      1.0  0.35410  0.52410  0.75424  1.0000 -0.0905338324
C   C120      1.0  0.64590  0.47590  0.75424  1.0000 -0.0905338324
C   C121      1.0  0.35680  0.26410  0.15371  1.0000 -0.0905338324
C   C122      1.0  0.64320  0.73590  0.15371  1.0000 -0.0905338324
C   C123      1.0  0.85680  0.23590  0.34629  1.0000 -0.0905338324
C   C124      1.0  0.14320  0.76410  0.34629  1.0000 -0.0905338324
C   C125      1.0  0.64320  0.73590  0.84629  1.0000 -0.0905338324
C   C126      1.0  0.35680  0.26410  0.84629  1.0000 -0.0905338324
C   C127      1.0  0.14320  0.76410  0.65371  1.0000 -0.0905338324
C   C128      1.0  0.85680  0.23590  0.65371  1.0000 -0.0905338324
C   C129      1.0  0.46850  0.18030  0.13258  1.0000 -0.0980785725
C   C130      1.0  0.53150  0.81970  0.13258  1.0000 -0.0980785725
C   C131      1.0  0.96850  0.31970  0.36742  1.0000 -0.0980785725
C   C132      1.0  0.03150  0.68030  0.36742  1.0000 -0.0980785725
C   C133      1.0  0.53150  0.81970  0.86742  1.0000 -0.0980785725
C   C134      1.0  0.46850  0.18030  0.86742  1.0000 -0.0980785725
C   C135      1.0  0.03150  0.68030  0.63258  1.0000 -0.0980785725
C   C136      1.0  0.96850  0.31970  0.63258  1.0000 -0.0980785725
C   C137      1.0  0.18610  0.06010  0.28602  1.0000 -0.0704672927
C   C138      1.0  0.81390  0.93990  0.28602  1.0000 -0.0704672927
C   C139      1.0  0.68610  0.43990  0.21398  1.0000 -0.0704672927
C   C140      1.0  0.31390  0.56010  0.21398  1.0000 -0.0704672927
C   C141      1.0  0.81390  0.93990  0.71398  1.0000 -0.0704672927
C   C142      1.0  0.18610  0.06010  0.71398  1.0000 -0.0704672927
C   C143      1.0  0.31390  0.56010  0.78602  1.0000 -0.0704672927
C   C144      1.0  0.68610  0.43990  0.78602  1.0000 -0.0704672927
C   C145      1.0  0.43560  0.25669  0.13720  1.0000 -0.0582535522
C   C146      1.0  0.56440  0.74331  0.13720  1.0000 -0.0582535522
C   C147      1.0  0.93560  0.24331  0.36280  1.0000 -0.0582535522
C   C148      1.0  0.06440  0.75669  0.36280  1.0000 -0.0582535522
C   C149      1.0  0.56440  0.74331  0.86280  1.0000 -0.0582535522
C   C150      1.0  0.43560  0.25669  0.86280  1.0000 -0.0582535522
C   C151      1.0  0.06440  0.75669  0.63720  1.0000 -0.0582535522
C   C152      1.0  0.93560  0.24331  0.63720  1.0000 -0.0582535522
C   C153      1.0  0.14440  0.06148  0.32642  1.0000 0.611541425
C   C154      1.0  0.85560  0.93852  0.32642  1.0000 0.6179739064
C   C155      1.0  0.64440  0.43852  0.17358  1.0000 0.611541425
C   C156      1.0  0.35560  0.56148  0.17358  1.0000 0.611541425
C   C157      1.0  0.85560  0.93852  0.67358  1.0000 0.6179739064
C   C158      1.0  0.14440  0.06148  0.67358  1.0000 0.611541425
C   C159      1.0  0.35560  0.56148  0.82642  1.0000 0.611541425
C   C160      1.0  0.64440  0.43852  0.82642  1.0000 0.611541425
C   C161      1.0  0.48572  0.32890  0.12742  1.0000 0.611541425
C   C162      1.0  0.51428  0.67110  0.12742  1.0000 0.611541425
C   C163      1.0  0.98572  0.17110  0.37258  1.0000 0.611541425
C   C164      1.0  0.01428  0.82890  0.37258  1.0000 0.611541425
C   C165      1.0  0.51428  0.67110  0.87258  1.0000 0.611541425
C   C166      1.0  0.48572  0.32890  0.87258  1.0000 0.611541425
C   C167      1.0  0.01428  0.82890  0.62742  1.0000 0.611541425
C   C168      1.0  0.98572  0.17110  0.62742  1.0000 0.611541425
N   N1        1.0  0.29770  0.05430  0.17181  1.0000 -0.1858159
N   N2        1.0  0.70230  0.94570  0.17181  1.0000 -0.1858159
N   N3        1.0  0.79770  0.44570  0.32819  1.0000 -0.1858159
N   N4        1.0  0.20230  0.55430  0.32819  1.0000 -0.1858159
N   N5        1.0  0.70230  0.94570  0.82819  1.0000 -0.1858159
N   N6        1.0  0.29770  0.05430  0.82819  1.0000 -0.1858159
N   N7        1.0  0.20230  0.55430  0.67181  1.0000 -0.1848726565
N   N8        1.0  0.79770  0.44570  0.67181  1.0000 -0.1858159
O   O1        1.0  0.39311  0.64412  0.04026  1.0000 -1.0138495558
O   O2        1.0  0.60689  0.35588  0.04026  1.0000 -1.0138495558
O   O3        1.0  0.89311  0.85588  0.45974  1.0000 -1.0138495558
O   O4        1.0  0.10689  0.14412  0.45974  1.0000 -1.0138495558
O   O5        1.0  0.60689  0.35588  0.95974  1.0000 -1.0138495558
O   O6        1.0  0.39311  0.64412  0.95974  1.0000 -1.0138495558
O   O7        1.0  0.10689  0.14412  0.54026  1.0000 -1.0138495558
O   O8        1.0  0.89311  0.85588  0.54026  1.0000 -1.0138495558
O   O9        1.0  0.28927  0.70900  0.09323  1.0000 -0.6124360556
O   O10       1.0  0.71073  0.29100  0.09323  1.0000 -0.6124360556
O   O11       1.0  0.78927  0.79100  0.40677  1.0000 -0.6124360556
O   O12       1.0  0.21073  0.20900  0.40677  1.0000 -0.6124360556
O   O13       1.0  0.71073  0.29100  0.90677  1.0000 -0.6124360556
O   O14       1.0  0.28927  0.70900  0.90677  1.0000 -0.6124360556
O   O15       1.0  0.21073  0.20900  0.59323  1.0000 -0.6124360556
O   O16       1.0  0.78927  0.79100  0.59323  1.0000 -0.6124360556
O   O17       1.0  0.31729  0.59462  0.14495  1.0000 -0.6173044139
O   O18       1.0  0.68271  0.40538  0.14495  1.0000 -0.6173044139
O   O19       1.0  0.81729  0.90538  0.35505  1.0000 -0.6173044139
O   O20       1.0  0.18271  0.09462  0.35505  1.0000 -0.6173044139
O   O21       1.0  0.68271  0.40538  0.85505  1.0000 -0.6173044139
O   O22       1.0  0.31729  0.59462  0.85505  1.0000 -0.6173044139
O   O23       1.0  0.18271  0.09462  0.64495  1.0000 -0.6173044139
O   O24       1.0  0.81729  0.90538  0.64495  1.0000 -0.6173044139
O   O25       1.0  0.44171  0.68295  0.11441  1.0000 -0.5980139195
O   O26       1.0  0.55829  0.31705  0.11441  1.0000 -0.5980139195
O   O27       1.0  0.94171  0.81705  0.38559  1.0000 -0.5980139195
O   O28       1.0  0.05829  0.18295  0.38559  1.0000 -0.5980139195
O   O29       1.0  0.55829  0.31705  0.88559  1.0000 -0.5980139195
O   O30       1.0  0.44171  0.68295  0.88559  1.0000 -0.5980139195
O   O31       1.0  0.05829  0.18295  0.61441  1.0000 -0.5980139195
O   O32       1.0  0.94171  0.81705  0.61441  1.0000 -0.5980139195
O   O33       1.0  0.42205  0.52722  0.09238  1.0000 -1.0016729826
O   O34       1.0  0.57795  0.47278  0.09238  1.0000 -1.0016729826
O   O35       1.0  0.92205  0.97278  0.40762  1.0000 -1.0016729826
O   O36       1.0  0.07795  0.02722  0.40762  1.0000 -1.0016729826
O   O37       1.0  0.57795  0.47278  0.90762  1.0000 -1.0016729826
O   O38       1.0  0.42205  0.52722  0.90762  1.0000 -1.0016729826
O   O39       1.0  0.07795  0.02722  0.59238  1.0000 -1.0016729826
O   O40       1.0  0.92205  0.97278  0.59238  1.0000 -1.0016729826
O   O41       1.0  0.31177  0.78340  0.03838  1.0000 -0.6173044139
O   O42       1.0  0.68823  0.21660  0.03838  1.0000 -0.6173044139
O   O43       1.0  0.81177  0.71660  0.46162  1.0000 -0.6173044139
O   O44       1.0  0.18823  0.28340  0.46162  1.0000 -0.6173044139
O   O45       1.0  0.68823  0.21660  0.96162  1.0000 -0.6173044139
O   O46       1.0  0.31177  0.78340  0.96162  1.0000 -0.6173044139
O   O47       1.0  0.18823  0.28340  0.53838  1.0000 -0.6173044139
O   O48       1.0  0.81177  0.71660  0.53838  1.0000 -0.6173044139
O   O49       1.0  0.07363  0.02969  0.32790  1.0000 -0.5980139195
O   O50       1.0  0.92637  0.97031  0.32790  1.0000 -0.5980139195
O   O51       1.0  0.57363  0.47031  0.17210  1.0000 -0.5980139195
O   O52       1.0  0.42637  0.52969  0.17210  1.0000 -0.5980139195
O   O53       1.0  0.92637  0.97031  0.67210  1.0000 -0.5980139195
O   O54       1.0  0.07363  0.02969  0.67210  1.0000 -0.5980139195
O   O55       1.0  0.42637  0.52969  0.82790  1.0000 -0.5980139195
O   O56       1.0  0.57363  0.47031  0.82790  1.0000 -0.5980139195
O   O57       1.0  0.45224  0.39540  0.13323  1.0000 -0.5980139195
O   O58       1.0  0.54776  0.60460  0.13323  1.0000 -0.5980139195
O   O59       1.0  0.95224  0.10460  0.36677  1.0000 -0.5980139195
O   O60       1.0  0.04776  0.89540  0.36677  1.0000 -0.5980139195
O   O61       1.0  0.54776  0.60460  0.86677  1.0000 -0.5980139195
O   O62       1.0  0.45224  0.39540  0.86677  1.0000 -0.5980139195
O   O63       1.0  0.04776  0.89540  0.63323  1.0000 -0.5980139195
O   O64       1.0  0.95224  0.10460  0.63323  1.0000 -0.5980139195
