# DDEC6 charges by PACMAN v1.1 (https://github.com/mtap-research/PACMAN-charge/)
data_2017[Cr][nan]3[ASR]1
_chemical_formula_sum              "Cr12 P8 H272 C288 O64"
_cell_length_a       19.8009
_cell_length_b       19.8009
_cell_length_c       29.4502
_cell_angle_alpha    90
_cell_angle_beta     90
_cell_angle_gamma    94.7735

_symmetry_space_group_name_H-M    "P 1"
_symmetry_Int_Tables_number       1

loop_
  _symmetry_equiv_pos_as_xyz
  'x, y, z'

loop_
  _atom_site_type_symbol
  _atom_site_label
  _atom_site_symmetry_multiplicity
  _atom_site_fract_x
  _atom_site_fract_y
  _atom_site_fract_z
  _atom_site_occupancy
  _atom_site_charge
Cr  Cr1       1.0  0.99018  0.39068  0.74668  1.0000 1.1928427076
Cr  Cr2       1.0  0.05009  0.46835  0.86605  1.0000 1.4590898012
Cr  Cr3       1.0  0.99735  0.54729  0.98821  1.0000 1.1928427076
Cr  Cr4       1.0  0.00982  0.60932  0.24668  1.0000 1.1928427076
Cr  Cr5       1.0  0.94991  0.53165  0.36605  1.0000 1.4590898012
Cr  Cr6       1.0  0.00265  0.45271  0.48821  1.0000 1.196393396
Cr  Cr7       1.0  0.60932  0.00982  0.75332  1.0000 1.1928427076
Cr  Cr8       1.0  0.53165  0.94991  0.63395  1.0000 1.4590898012
Cr  Cr9       1.0  0.45271  0.00265  0.51179  1.0000 1.196393396
Cr  Cr10      1.0  0.39068  0.99018  0.25332  1.0000 1.196393396
Cr  Cr11      1.0  0.46835  0.05009  0.13395  1.0000 1.4590898012
Cr  Cr12      1.0  0.54729  0.99735  0.01179  1.0000 1.1928427076
P   P1        1.0  0.10817  0.33333  0.80556  1.0000 1.4300266361
P   P2        1.0  0.12969  0.60047  0.93021  1.0000 1.4425053453
P   P3        1.0  0.89183  0.66667  0.30556  1.0000 1.4300266361
P   P4        1.0  0.87031  0.39953  0.43021  1.0000 1.4425053453
P   P5        1.0  0.66667  0.89183  0.69444  1.0000 1.4300266361
P   P6        1.0  0.39953  0.87031  0.56979  1.0000 1.4425053453
P   P7        1.0  0.33333  0.10817  0.19444  1.0000 1.4300266361
P   P8        1.0  0.60047  0.12969  0.06979  1.0000 1.4425053453
H   H1        1.0  0.45860  0.09800  0.67240  1.0000 0.1296393754
H   H2        1.0  0.40360  0.16060  0.72540  1.0000 0.1296393754
H   H3        1.0  0.27050  0.20810  0.62990  1.0000 0.1296393754
H   H4        1.0  0.32540  0.14540  0.57690  1.0000 0.1296393754
H   H5        1.0  0.30850  0.31670  0.67520  1.0000 0.1124177132
H   H6        1.0  0.34440  0.43160  0.68100  1.0000 0.1124177132
H   H7        1.0  0.29300  0.48280  0.66520  1.0000 0.1206555536
H   H8        1.0  0.28510  0.40770  0.64790  1.0000 0.1003737499
H   H9        1.0  0.14620  0.41560  0.71910  1.0000 0.1296393754
H   H10       1.0  0.17110  0.39830  0.67020  1.0000 0.1296393754
H   H11       1.0  0.17840  0.47340  0.68760  1.0000 0.1206555536
H   H12       1.0  0.23670  0.45310  0.77880  1.0000 0.1296393754
H   H13       1.0  0.25600  0.51020  0.74310  1.0000 0.1124177132
H   H14       1.0  0.31190  0.46610  0.76210  1.0000 0.1296393754
H   H15       1.0  0.29330  0.10790  0.74400  1.0000 0.1206555536
H   H16       1.0  0.22070  0.11030  0.76470  1.0000 0.1489302251
H   H17       1.0  0.28480  0.12300  0.79580  1.0000 0.1206555536
H   H18       1.0  0.14880  0.14240  0.93810  1.0000 0.1124177132
H   H19       1.0  0.96100  0.12800  0.85930  1.0000 0.1206555536
H   H20       1.0  0.02830  0.09210  0.85410  1.0000 0.1124177132
H   H21       1.0  0.01680  0.15640  0.82490  1.0000 0.1206555536
H   H22       1.0  0.97880  0.13880  0.94100  1.0000 0.1296393754
H   H23       1.0  0.04740  0.17240  0.96030  1.0000 0.1124177132
H   H24       1.0  0.04550  0.10170  0.93610  1.0000 0.1124177132
H   H25       1.0  0.95600  0.23080  0.89880  1.0000 0.1296393754
H   H26       1.0  0.00780  0.26740  0.86480  1.0000 0.1296393754
H   H27       1.0  0.02110  0.27230  0.91730  1.0000 0.1296393754
H   H28       1.0  0.35790  0.18850  0.87700  1.0000 0.1206555536
H   H29       1.0  0.34730  0.25910  0.85520  1.0000 0.1489302251
H   H30       1.0  0.34630  0.19430  0.82450  1.0000 0.1296393754
H   H31       1.0  0.25560  0.18040  0.98980  1.0000 0.1206555536
H   H32       1.0  0.32600  0.12480  0.03740  1.0000 0.138450641
H   H33       1.0  0.38630  0.01670  0.93160  1.0000 0.1296393754
H   H34       1.0  0.31580  0.07220  0.88390  1.0000 0.1206555536
H   H35       1.0  0.41840  0.97500  0.82450  1.0000 0.1296393754
H   H36       1.0  0.33320  0.91560  0.86580  1.0000 0.1206555536
H   H37       1.0  0.31830  0.77070  0.77010  1.0000 0.1296393754
H   H38       1.0  0.40350  0.82990  0.72870  1.0000 0.1296393754
H   H39       1.0  0.18720  0.80740  0.80490  1.0000 0.1124177132
H   H40       1.0  0.04640  0.82540  0.88000  1.0000 0.1296393754
H   H41       1.0  0.02660  0.75420  0.90180  1.0000 0.1296393754
H   H42       1.0  0.98310  0.78030  0.86200  1.0000 0.1206555536
H   H43       1.0  0.99640  0.67440  0.82000  1.0000 0.1206555536
H   H44       1.0  0.04290  0.64730  0.85780  1.0000 0.1296393754
H   H45       1.0  0.06850  0.65290  0.80740  1.0000 0.1206555536
H   H46       1.0  0.08600  0.83060  0.79780  1.0000 0.1206555536
H   H47       1.0  0.02170  0.78270  0.78490  1.0000 0.1296393754
H   H48       1.0  0.09410  0.76270  0.77170  1.0000 0.1206555536
H   H49       1.0  0.35370  0.75650  0.93800  1.0000 0.1296393754
H   H50       1.0  0.36740  0.82460  0.91110  1.0000 0.1296393754
H   H51       1.0  0.37840  0.75540  0.88740  1.0000 0.1489302251
H   H52       1.0  0.29240  0.65020  0.07770  1.0000 0.1124177132
H   H53       1.0  0.27090  0.54470  0.09530  1.0000 0.1124177132
H   H54       1.0  0.34130  0.55270  0.07070  1.0000 0.1003737499
H   H55       1.0  0.30030  0.48150  0.07310  1.0000 0.1206555536
H   H56       1.0  0.16770  0.50810  0.04000  1.0000 0.1296393754
H   H57       1.0  0.21390  0.45190  0.02440  1.0000 0.1206555536
H   H58       1.0  0.18750  0.50230  0.98870  1.0000 0.1296393754
H   H59       1.0  0.31730  0.46930  0.99840  1.0000 0.1206555536
H   H60       1.0  0.35550  0.54170  0.99450  1.0000 0.1206555536
H   H61       1.0  0.29460  0.52060  0.96210  1.0000 0.1206555536
H   H62       1.0  0.27380  0.86000  0.01610  1.0000 0.1206555536
H   H63       1.0  0.20870  0.84210  0.98660  1.0000 0.1489302251
H   H64       1.0  0.28040  0.84920  0.96360  1.0000 0.1296393754
H   H65       1.0  0.24000  0.74100  0.12630  1.0000 0.1296393754
H   H66       1.0  0.28020  0.81180  0.18490  1.0000 0.1296393754
H   H67       1.0  0.41650  0.90550  0.09990  1.0000 0.1206555536
H   H68       1.0  0.37620  0.83480  0.04140  1.0000 0.1206555536
H   H69       1.0  0.54140  0.90200  0.17240  1.0000 0.1296393754
H   H70       1.0  0.59640  0.83940  0.22540  1.0000 0.1296393754
H   H71       1.0  0.72950  0.79190  0.12990  1.0000 0.1296393754
H   H72       1.0  0.67460  0.85460  0.07690  1.0000 0.1296393754
H   H73       1.0  0.69150  0.68330  0.17520  1.0000 0.1124177132
H   H74       1.0  0.65560  0.56840  0.18100  1.0000 0.1124177132
H   H75       1.0  0.70700  0.51720  0.16520  1.0000 0.1206555536
H   H76       1.0  0.71490  0.59230  0.14790  1.0000 0.1003737499
H   H77       1.0  0.85380  0.58440  0.21910  1.0000 0.1296393754
H   H78       1.0  0.82890  0.60170  0.17020  1.0000 0.1296393754
H   H79       1.0  0.82160  0.52660  0.18760  1.0000 0.1206555536
H   H80       1.0  0.76330  0.54690  0.27880  1.0000 0.1296393754
H   H81       1.0  0.74400  0.48980  0.24310  1.0000 0.1124177132
H   H82       1.0  0.68810  0.53390  0.26210  1.0000 0.1296393754
H   H83       1.0  0.70670  0.89210  0.24400  1.0000 0.1206555536
H   H84       1.0  0.77930  0.88970  0.26470  1.0000 0.1489302251
H   H85       1.0  0.71520  0.87700  0.29580  1.0000 0.1206555536
H   H86       1.0  0.85120  0.85760  0.43810  1.0000 0.1124177132
H   H87       1.0  0.03900  0.87200  0.35930  1.0000 0.1206555536
H   H88       1.0  0.97170  0.90790  0.35410  1.0000 0.1124177132
H   H89       1.0  0.98320  0.84360  0.32490  1.0000 0.1206555536
H   H90       1.0  0.02120  0.86120  0.44100  1.0000 0.1296393754
H   H91       1.0  0.95260  0.82760  0.46030  1.0000 0.1124177132
H   H92       1.0  0.95450  0.89830  0.43610  1.0000 0.1124177132
H   H93       1.0  0.04400  0.76920  0.39880  1.0000 0.1206555536
H   H94       1.0  0.99220  0.73260  0.36480  1.0000 0.1296393754
H   H95       1.0  0.97890  0.72770  0.41730  1.0000 0.1296393754
H   H96       1.0  0.64210  0.81150  0.37700  1.0000 0.1206555536
H   H97       1.0  0.65270  0.74090  0.35520  1.0000 0.1489302251
H   H98       1.0  0.65370  0.80570  0.32450  1.0000 0.1296393754
H   H99       1.0  0.74440  0.81960  0.48980  1.0000 0.1206555536
H   H100      1.0  0.67400  0.87520  0.53740  1.0000 0.138450641
H   H101      1.0  0.61370  0.98330  0.43160  1.0000 0.1296393754
H   H102      1.0  0.68420  0.92780  0.38390  1.0000 0.1206555536
H   H103      1.0  0.58160  0.02500  0.32450  1.0000 0.1296393754
H   H104      1.0  0.66680  0.08440  0.36580  1.0000 0.1206555536
H   H105      1.0  0.68170  0.22930  0.27010  1.0000 0.1296393754
H   H106      1.0  0.59650  0.17010  0.22870  1.0000 0.1296393754
H   H107      1.0  0.81280  0.19260  0.30490  1.0000 0.1124177132
H   H108      1.0  0.95360  0.17460  0.38000  1.0000 0.1296393754
H   H109      1.0  0.97340  0.24580  0.40180  1.0000 0.1296393754
H   H110      1.0  0.01690  0.21970  0.36200  1.0000 0.1206555536
H   H111      1.0  0.00360  0.32560  0.32000  1.0000 0.1206555536
H   H112      1.0  0.95710  0.35270  0.35780  1.0000 0.1296393754
H   H113      1.0  0.93150  0.34710  0.30740  1.0000 0.1206555536
H   H114      1.0  0.91400  0.16940  0.29780  1.0000 0.1206555536
H   H115      1.0  0.97830  0.21730  0.28490  1.0000 0.138450641
H   H116      1.0  0.90590  0.23730  0.27170  1.0000 0.1206555536
H   H117      1.0  0.64630  0.24350  0.43800  1.0000 0.1296393754
H   H118      1.0  0.63260  0.17540  0.41110  1.0000 0.1296393754
H   H119      1.0  0.62160  0.24460  0.38740  1.0000 0.1489302251
H   H120      1.0  0.70760  0.34980  0.57770  1.0000 0.1124177132
H   H121      1.0  0.72910  0.45530  0.59530  1.0000 0.1124177132
H   H122      1.0  0.65870  0.44730  0.57070  1.0000 0.1003737499
H   H123      1.0  0.69970  0.51850  0.57310  1.0000 0.1206555536
H   H124      1.0  0.83230  0.49190  0.54000  1.0000 0.1296393754
H   H125      1.0  0.78610  0.54810  0.52440  1.0000 0.1206555536
H   H126      1.0  0.81250  0.49770  0.48870  1.0000 0.1296393754
H   H127      1.0  0.68270  0.53070  0.49840  1.0000 0.1206555536
H   H128      1.0  0.64450  0.45830  0.49450  1.0000 0.1206555536
H   H129      1.0  0.70540  0.47940  0.46210  1.0000 0.1206555536
H   H130      1.0  0.72620  0.14000  0.51610  1.0000 0.1206555536
H   H131      1.0  0.79130  0.15790  0.48660  1.0000 0.1489302251
H   H132      1.0  0.71960  0.15080  0.46360  1.0000 0.1296393754
H   H133      1.0  0.76000  0.25900  0.62630  1.0000 0.1296393754
H   H134      1.0  0.71980  0.18820  0.68490  1.0000 0.1296393754
H   H135      1.0  0.58350  0.09450  0.59990  1.0000 0.1206555536
H   H136      1.0  0.62380  0.16520  0.54140  1.0000 0.1206555536
H   H137      1.0  0.90200  0.54140  0.82760  1.0000 0.1296393754
H   H138      1.0  0.83940  0.59640  0.77460  1.0000 0.1296393754
H   H139      1.0  0.79190  0.72950  0.87010  1.0000 0.1296393754
H   H140      1.0  0.85460  0.67460  0.92310  1.0000 0.1296393754
H   H141      1.0  0.68330  0.69150  0.82480  1.0000 0.1124177132
H   H142      1.0  0.56840  0.65560  0.81900  1.0000 0.1124177132
H   H143      1.0  0.51720  0.70700  0.83480  1.0000 0.1206555536
H   H144      1.0  0.59230  0.71490  0.85210  1.0000 0.1003737499
H   H145      1.0  0.58440  0.85380  0.78090  1.0000 0.1296393754
H   H146      1.0  0.60170  0.82890  0.82980  1.0000 0.1296393754
H   H147      1.0  0.52660  0.82160  0.81240  1.0000 0.1206555536
H   H148      1.0  0.54690  0.76330  0.72120  1.0000 0.1296393754
H   H149      1.0  0.48980  0.74400  0.75690  1.0000 0.1124177132
H   H150      1.0  0.53390  0.68810  0.73790  1.0000 0.1296393754
H   H151      1.0  0.89210  0.70670  0.75600  1.0000 0.1206555536
H   H152      1.0  0.88970  0.77930  0.73530  1.0000 0.1489302251
H   H153      1.0  0.87700  0.71520  0.70420  1.0000 0.1206555536
H   H154      1.0  0.85760  0.85120  0.56190  1.0000 0.1124177132
H   H155      1.0  0.87200  0.03900  0.64070  1.0000 0.1206555536
H   H156      1.0  0.90790  0.97170  0.64590  1.0000 0.1124177132
H   H157      1.0  0.84360  0.98320  0.67510  1.0000 0.1296393754
H   H158      1.0  0.86120  0.02120  0.55900  1.0000 0.1296393754
H   H159      1.0  0.82760  0.95260  0.53970  1.0000 0.1124177132
H   H160      1.0  0.89830  0.95450  0.56390  1.0000 0.1124177132
H   H161      1.0  0.76920  0.04400  0.60120  1.0000 0.1206555536
H   H162      1.0  0.73260  0.99220  0.63520  1.0000 0.1296393754
H   H163      1.0  0.72770  0.97890  0.58270  1.0000 0.1296393754
H   H164      1.0  0.81150  0.64210  0.62300  1.0000 0.1206555536
H   H165      1.0  0.74090  0.65270  0.64480  1.0000 0.1489302251
H   H166      1.0  0.80570  0.65370  0.67550  1.0000 0.1296393754
H   H167      1.0  0.81960  0.74440  0.51020  1.0000 0.1206555536
H   H168      1.0  0.87520  0.67400  0.46260  1.0000 0.138450641
H   H169      1.0  0.98330  0.61370  0.56840  1.0000 0.1296393754
H   H170      1.0  0.92780  0.68420  0.61610  1.0000 0.1206555536
H   H171      1.0  0.02500  0.58160  0.67550  1.0000 0.1296393754
H   H172      1.0  0.08440  0.66680  0.63420  1.0000 0.1206555536
H   H173      1.0  0.22930  0.68170  0.72990  1.0000 0.1296393754
H   H174      1.0  0.17010  0.59650  0.77130  1.0000 0.1296393754
H   H175      1.0  0.19260  0.81280  0.69510  1.0000 0.1124177132
H   H176      1.0  0.17460  0.95360  0.62000  1.0000 0.1296393754
H   H177      1.0  0.24580  0.97340  0.59820  1.0000 0.1296393754
H   H178      1.0  0.21970  0.01690  0.63800  1.0000 0.1206555536
H   H179      1.0  0.32560  0.00360  0.68000  1.0000 0.1206555536
H   H180      1.0  0.35270  0.95710  0.64220  1.0000 0.1296393754
H   H181      1.0  0.34710  0.93150  0.69260  1.0000 0.1206555536
H   H182      1.0  0.16940  0.91400  0.70220  1.0000 0.1206555536
H   H183      1.0  0.21730  0.97830  0.71510  1.0000 0.1296393754
H   H184      1.0  0.23730  0.90590  0.72830  1.0000 0.1206555536
H   H185      1.0  0.24350  0.64630  0.56200  1.0000 0.1296393754
H   H186      1.0  0.17540  0.63260  0.58890  1.0000 0.1296393754
H   H187      1.0  0.24460  0.62160  0.61260  1.0000 0.1489302251
H   H188      1.0  0.34980  0.70760  0.42230  1.0000 0.1124177132
H   H189      1.0  0.45530  0.72910  0.40470  1.0000 0.1124177132
H   H190      1.0  0.44730  0.65870  0.42930  1.0000 0.1003737499
H   H191      1.0  0.51850  0.69970  0.42690  1.0000 0.1206555536
H   H192      1.0  0.49190  0.83230  0.46000  1.0000 0.1296393754
H   H193      1.0  0.54810  0.78610  0.47560  1.0000 0.1206555536
H   H194      1.0  0.49770  0.81250  0.51130  1.0000 0.1296393754
H   H195      1.0  0.53070  0.68270  0.50160  1.0000 0.1206555536
H   H196      1.0  0.45830  0.64450  0.50550  1.0000 0.1206555536
H   H197      1.0  0.47940  0.70540  0.53790  1.0000 0.1206555536
H   H198      1.0  0.14000  0.72620  0.48390  1.0000 0.1206555536
H   H199      1.0  0.15790  0.79130  0.51340  1.0000 0.1489302251
H   H200      1.0  0.15080  0.71960  0.53640  1.0000 0.1296393754
H   H201      1.0  0.25900  0.76000  0.37370  1.0000 0.1296393754
H   H202      1.0  0.18820  0.71980  0.31510  1.0000 0.1296393754
H   H203      1.0  0.09450  0.58350  0.40010  1.0000 0.1206555536
H   H204      1.0  0.16520  0.62380  0.45860  1.0000 0.1206555536
H   H205      1.0  0.09800  0.45860  0.32760  1.0000 0.1296393754
H   H206      1.0  0.16060  0.40360  0.27460  1.0000 0.1296393754
H   H207      1.0  0.20810  0.27050  0.37010  1.0000 0.1296393754
H   H208      1.0  0.14540  0.32540  0.42310  1.0000 0.1296393754
H   H209      1.0  0.31670  0.30850  0.32480  1.0000 0.1124177132
H   H210      1.0  0.43160  0.34440  0.31900  1.0000 0.1124177132
H   H211      1.0  0.48280  0.29300  0.33480  1.0000 0.1206555536
H   H212      1.0  0.40770  0.28510  0.35210  1.0000 0.1003737499
H   H213      1.0  0.41560  0.14620  0.28090  1.0000 0.1296393754
H   H214      1.0  0.39830  0.17110  0.32980  1.0000 0.1296393754
H   H215      1.0  0.47340  0.17840  0.31240  1.0000 0.1206555536
H   H216      1.0  0.45310  0.23670  0.22120  1.0000 0.1296393754
H   H217      1.0  0.51020  0.25600  0.25690  1.0000 0.1124177132
H   H218      1.0  0.46610  0.31190  0.23790  1.0000 0.1296393754
H   H219      1.0  0.10790  0.29330  0.25600  1.0000 0.1206555536
H   H220      1.0  0.11030  0.22070  0.23530  1.0000 0.1489302251
H   H221      1.0  0.12300  0.28480  0.20420  1.0000 0.1206555536
H   H222      1.0  0.14240  0.14880  0.06190  1.0000 0.1124177132
H   H223      1.0  0.12800  0.96100  0.14070  1.0000 0.1206555536
H   H224      1.0  0.09210  0.02830  0.14590  1.0000 0.1124177132
H   H225      1.0  0.15640  0.01680  0.17510  1.0000 0.1296393754
H   H226      1.0  0.13880  0.97880  0.05900  1.0000 0.1296393754
H   H227      1.0  0.17240  0.04740  0.03970  1.0000 0.1124177132
H   H228      1.0  0.10170  0.04550  0.06390  1.0000 0.1124177132
H   H229      1.0  0.23080  0.95600  0.10120  1.0000 0.1296393754
H   H230      1.0  0.26740  0.00780  0.13520  1.0000 0.1296393754
H   H231      1.0  0.27230  0.02110  0.08270  1.0000 0.1296393754
H   H232      1.0  0.18850  0.35790  0.12300  1.0000 0.1206555536
H   H233      1.0  0.25910  0.34730  0.14480  1.0000 0.1489302251
H   H234      1.0  0.19430  0.34630  0.17550  1.0000 0.1296393754
H   H235      1.0  0.18040  0.25560  0.01020  1.0000 0.1206555536
H   H236      1.0  0.12480  0.32600  0.96260  1.0000 0.138450641
H   H237      1.0  0.01670  0.38630  0.06840  1.0000 0.1296393754
H   H238      1.0  0.07220  0.31580  0.11610  1.0000 0.1206555536
H   H239      1.0  0.97500  0.41840  0.17550  1.0000 0.1296393754
H   H240      1.0  0.91560  0.33320  0.13420  1.0000 0.1206555536
H   H241      1.0  0.77070  0.31830  0.22990  1.0000 0.1296393754
H   H242      1.0  0.82990  0.40350  0.27130  1.0000 0.1296393754
H   H243      1.0  0.80740  0.18720  0.19510  1.0000 0.1124177132
H   H244      1.0  0.82540  0.04640  0.12000  1.0000 0.1296393754
H   H245      1.0  0.75420  0.02660  0.09820  1.0000 0.1296393754
H   H246      1.0  0.78030  0.98310  0.13800  1.0000 0.1206555536
H   H247      1.0  0.67440  0.99640  0.18000  1.0000 0.1206555536
H   H248      1.0  0.64730  0.04290  0.14220  1.0000 0.1296393754
H   H249      1.0  0.65290  0.06850  0.19260  1.0000 0.1206555536
H   H250      1.0  0.83060  0.08600  0.20220  1.0000 0.1206555536
H   H251      1.0  0.78270  0.02170  0.21510  1.0000 0.1296393754
H   H252      1.0  0.76270  0.09410  0.22830  1.0000 0.1206555536
H   H253      1.0  0.75650  0.35370  0.06200  1.0000 0.1296393754
H   H254      1.0  0.82460  0.36740  0.08890  1.0000 0.1296393754
H   H255      1.0  0.75540  0.37840  0.11260  1.0000 0.1489302251
H   H256      1.0  0.65020  0.29240  0.92230  1.0000 0.1124177132
H   H257      1.0  0.54470  0.27090  0.90470  1.0000 0.1124177132
H   H258      1.0  0.55270  0.34130  0.92930  1.0000 0.1003737499
H   H259      1.0  0.48150  0.30030  0.92690  1.0000 0.1206555536
H   H260      1.0  0.50810  0.16770  0.96000  1.0000 0.1296393754
H   H261      1.0  0.45190  0.21390  0.97560  1.0000 0.1206555536
H   H262      1.0  0.50230  0.18750  0.01130  1.0000 0.1296393754
H   H263      1.0  0.46930  0.31730  0.00160  1.0000 0.1206555536
H   H264      1.0  0.54170  0.35550  0.00550  1.0000 0.1206555536
H   H265      1.0  0.52060  0.29460  0.03790  1.0000 0.1206555536
H   H266      1.0  0.86000  0.27380  0.98390  1.0000 0.1206555536
H   H267      1.0  0.84210  0.20870  0.01340  1.0000 0.1489302251
H   H268      1.0  0.84920  0.28040  0.03640  1.0000 0.1296393754
H   H269      1.0  0.74100  0.24000  0.87370  1.0000 0.1296393754
H   H270      1.0  0.81180  0.28020  0.81510  1.0000 0.1296393754
H   H271      1.0  0.90550  0.41650  0.90010  1.0000 0.1206555536
H   H272      1.0  0.83480  0.37620  0.95860  1.0000 0.1206555536
C   C1        1.0  0.42920  0.07080  0.58840  1.0000 0.5811510191
C   C2        1.0  0.39745  0.11555  0.61937  1.0000 -0.0638802866
C   C3        1.0  0.42078  0.12002  0.66385  1.0000 -0.0768876939
C   C4        1.0  0.38796  0.15764  0.69560  1.0000 -0.14757554
C   C5        1.0  0.33161  0.19059  0.68288  1.0000 0.1003737499
C   C6        1.0  0.30818  0.18602  0.63840  1.0000 -0.14757554
C   C7        1.0  0.34110  0.14850  0.60664  1.0000 -0.0883714185
C   C8        1.0  0.25082  0.41582  0.71550  1.0000 0.2939479207
C   C9        1.0  0.29708  0.23312  0.71494  1.0000 -0.0288654817
C   C10       1.0  0.26915  0.20793  0.75542  1.0000 0.1003737499
C   C11       1.0  0.23375  0.24931  0.78329  1.0000 -0.0768876939
C   C12       1.0  0.22630  0.31590  0.77068  1.0000 0.2072295514
C   C13       1.0  0.25427  0.34113  0.73019  1.0000 -0.0513202785
C   C14       1.0  0.28971  0.29979  0.70232  1.0000 -0.1738632688
C   C15       1.0  0.29800  0.43660  0.67320  1.0000 -0.4412661984
C   C16       1.0  0.18000  0.42680  0.69630  1.0000 -0.4588007624
C   C17       1.0  0.26520  0.46580  0.75330  1.0000 -0.4588007624
C   C18       1.0  0.26680  0.12960  0.76600  1.0000 -0.4495607708
C   C19       1.0  0.21158  0.22624  0.83175  1.0000 -0.0676081276
C   C20       1.0  0.25671  0.19843  0.86113  1.0000 0.1003737499
C   C21       1.0  0.23317  0.16705  0.90097  1.0000 -0.0130625231
C   C22       1.0  0.16453  0.16347  0.91144  1.0000 -0.195234015
C   C23       1.0  0.11939  0.19127  0.88206  1.0000 -0.0201153426
C   C24       1.0  0.14292  0.22266  0.84221  1.0000 0.1833186378
C   C25       1.0  0.04160  0.18020  0.89100  1.0000 0.2791071986
C   C26       1.0  0.00890  0.13510  0.85390  1.0000 -0.4314966718
C   C27       1.0  0.02700  0.14500  0.93630  1.0000 -0.4412661984
C   C28       1.0  0.00310  0.24350  0.89320  1.0000 -0.4688372085
C   C29       1.0  0.33450  0.21130  0.85370  1.0000 -0.4495607708
C   C30       1.0  0.27875  0.13185  0.93213  1.0000 0.0872348627
C   C31       1.0  0.28180  0.14760  0.97812  1.0000 -0.14757554
C   C32       1.0  0.32395  0.11425  0.00668  1.0000 -0.0768876939
C   C33       1.0  0.36313  0.06525  0.98926  1.0000 -0.0288654817
C   C34       1.0  0.36008  0.04952  0.94327  1.0000 -0.1046666945
C   C35       1.0  0.31784  0.08276  0.91470  1.0000 -0.14757554
C   C36       1.0  0.41580  0.03640  0.01930  1.0000 0.5941647744
C   C37       1.0  0.48100  0.94100  0.74730  1.0000 0.5811510191
C   C38       1.0  0.41943  0.90831  0.77247  1.0000 -0.0288654817
C   C39       1.0  0.39836  0.93400  0.81356  1.0000 -0.1058647776
C   C40       1.0  0.34728  0.89848  0.83835  1.0000 -0.1399691211
C   C41       1.0  0.31727  0.83727  0.82206  1.0000 0.0872348627
C   C42       1.0  0.33835  0.81159  0.78097  1.0000 -0.14757554
C   C43       1.0  0.38942  0.84710  0.75618  1.0000 -0.0883714185
C   C44       1.0  0.07310  0.74690  0.83960  1.0000 0.3012364214
C   C45       1.0  0.26219  0.80005  0.85079  1.0000 -0.0201153426
C   C46       1.0  0.27729  0.77231  0.89257  1.0000 0.1003737499
C   C47       1.0  0.22752  0.73334  0.91637  1.0000 -0.0768876939
C   C48       1.0  0.16264  0.72208  0.89840  1.0000 0.2026119983
C   C49       1.0  0.14755  0.74981  0.85663  1.0000 -0.0434673964
C   C50       1.0  0.19732  0.78880  0.83282  1.0000 -0.1816033939
C   C51       1.0  0.02800  0.77980  0.87400  1.0000 -0.4588007624
C   C52       1.0  0.04230  0.67330  0.83030  1.0000 -0.4889507587
C   C53       1.0  0.06820  0.78420  0.79430  1.0000 -0.4688372085
C   C54       1.0  0.35110  0.77770  0.90880  1.0000 -0.4412661984
C   C55       1.0  0.23956  0.71136  0.96515  1.0000 -0.0676081276
C   C56       1.0  0.26255  0.75755  0.99837  1.0000 0.1003737499
C   C57       1.0  0.28240  0.73460  0.04054  1.0000 -0.0201153426
C   C58       1.0  0.27920  0.66560  0.04950  1.0000 -0.1816033939
C   C59       1.0  0.25620  0.61940  0.01627  1.0000 -0.0288654817
C   C60       1.0  0.23641  0.64221  0.97410  1.0000 0.1892356543
C   C61       1.0  0.26260  0.54380  0.02710  1.0000 0.2599133705
C   C62       1.0  0.29680  0.52940  0.07040  1.0000 -0.4314966718
C   C63       1.0  0.20290  0.49770  0.01940  1.0000 -0.4753310824
C   C64       1.0  0.31220  0.51620  0.99220  1.0000 -0.4169583464
C   C65       1.0  0.25570  0.83470  0.99040  1.0000 -0.4412661984
C   C66       1.0  0.30411  0.78091  0.07806  1.0000 0.1003737499
C   C67       1.0  0.27539  0.77399  0.12104  1.0000 -0.14757554
C   C68       1.0  0.29953  0.81633  0.15611  1.0000 -0.0883714185
C   C69       1.0  0.35240  0.86560  0.14821  1.0000 -0.0513202785
C   C70       1.0  0.38113  0.87253  0.10523  1.0000 -0.0768876939
C   C71       1.0  0.35699  0.83019  0.07015  1.0000 -0.1399691211
C   C72       1.0  0.37680  0.91200  0.18400  1.0000 0.5811510191
C   C73       1.0  0.57080  0.92920  0.08840  1.0000 0.5811510191
C   C74       1.0  0.60255  0.88445  0.11937  1.0000 -0.0638802866
C   C75       1.0  0.57922  0.87998  0.16385  1.0000 -0.0768876939
C   C76       1.0  0.61204  0.84236  0.19560  1.0000 -0.14757554
C   C77       1.0  0.66839  0.80941  0.18288  1.0000 0.1003737499
C   C78       1.0  0.69182  0.81398  0.13840  1.0000 -0.14757554
C   C79       1.0  0.65890  0.85150  0.10664  1.0000 -0.0883714185
C   C80       1.0  0.74918  0.58418  0.21550  1.0000 0.2939479207
C   C81       1.0  0.70292  0.76688  0.21494  1.0000 -0.0288654817
C   C82       1.0  0.73085  0.79207  0.25542  1.0000 0.1003737499
C   C83       1.0  0.76625  0.75069  0.28329  1.0000 -0.0768876939
C   C84       1.0  0.77370  0.68410  0.27068  1.0000 0.2072295514
C   C85       1.0  0.74573  0.65887  0.23019  1.0000 -0.0513202785
C   C86       1.0  0.71029  0.70021  0.20232  1.0000 -0.1738632688
C   C87       1.0  0.70200  0.56340  0.17320  1.0000 -0.4412661984
C   C88       1.0  0.82000  0.57320  0.19630  1.0000 -0.4588007624
C   C89       1.0  0.73480  0.53420  0.25330  1.0000 -0.4588007624
C   C90       1.0  0.73320  0.87040  0.26600  1.0000 -0.4495607708
C   C91       1.0  0.78842  0.77376  0.33175  1.0000 -0.0676081276
C   C92       1.0  0.74329  0.80157  0.36113  1.0000 0.1003737499
C   C93       1.0  0.76683  0.83295  0.40097  1.0000 -0.0130625231
C   C94       1.0  0.83547  0.83653  0.41144  1.0000 -0.1945771421
C   C95       1.0  0.88061  0.80873  0.38206  1.0000 -0.0201153426
C   C96       1.0  0.85708  0.77734  0.34221  1.0000 0.1833186378
C   C97       1.0  0.95840  0.81980  0.39100  1.0000 0.2791071986
C   C98       1.0  0.99110  0.86490  0.35390  1.0000 -0.4314966718
C   C99       1.0  0.97300  0.85500  0.43630  1.0000 -0.4412661984
C   C100      1.0  0.99690  0.75650  0.39320  1.0000 -0.4688372085
C   C101      1.0  0.66550  0.78870  0.35370  1.0000 -0.4495607708
C   C102      1.0  0.72125  0.86815  0.43213  1.0000 0.0872348627
C   C103      1.0  0.71820  0.85240  0.47812  1.0000 -0.14757554
C   C104      1.0  0.67605  0.88575  0.50668  1.0000 -0.0768876939
C   C105      1.0  0.63687  0.93475  0.48926  1.0000 -0.0288654817
C   C106      1.0  0.63992  0.95048  0.44327  1.0000 -0.1058647776
C   C107      1.0  0.68216  0.91724  0.41470  1.0000 -0.14757554
C   C108      1.0  0.58420  0.96360  0.51930  1.0000 0.5941647744
C   C109      1.0  0.51900  0.05900  0.24730  1.0000 0.5811510191
C   C110      1.0  0.58057  0.09169  0.27247  1.0000 -0.0288654817
C   C111      1.0  0.60164  0.06600  0.31356  1.0000 -0.1058647776
C   C112      1.0  0.65272  0.10152  0.33835  1.0000 -0.1399691211
C   C113      1.0  0.68273  0.16273  0.32206  1.0000 0.0872348627
C   C114      1.0  0.66165  0.18841  0.28097  1.0000 -0.14757554
C   C115      1.0  0.61058  0.15290  0.25618  1.0000 -0.0883714185
C   C116      1.0  0.92690  0.25310  0.33960  1.0000 0.3012364214
C   C117      1.0  0.73781  0.19995  0.35079  1.0000 -0.0201153426
C   C118      1.0  0.72271  0.22769  0.39257  1.0000 0.1003737499
C   C119      1.0  0.77248  0.26666  0.41637  1.0000 -0.0768876939
C   C120      1.0  0.83736  0.27792  0.39840  1.0000 0.2026119983
C   C121      1.0  0.85245  0.25019  0.35663  1.0000 -0.0434673964
C   C122      1.0  0.80268  0.21120  0.33282  1.0000 -0.1816033939
C   C123      1.0  0.97200  0.22020  0.37400  1.0000 -0.4588007624
C   C124      1.0  0.95770  0.32670  0.33030  1.0000 -0.4889507587
C   C125      1.0  0.93180  0.21580  0.29430  1.0000 -0.4688372085
C   C126      1.0  0.64890  0.22230  0.40880  1.0000 -0.4412661984
C   C127      1.0  0.76044  0.28864  0.46515  1.0000 -0.0676081276
C   C128      1.0  0.73745  0.24245  0.49837  1.0000 0.1003737499
C   C129      1.0  0.71760  0.26540  0.54054  1.0000 -0.0201153426
C   C130      1.0  0.72080  0.33440  0.54950  1.0000 -0.1816033939
C   C131      1.0  0.74380  0.38060  0.51627  1.0000 -0.0288654817
C   C132      1.0  0.76359  0.35779  0.47410  1.0000 0.1892356543
C   C133      1.0  0.73740  0.45620  0.52710  1.0000 0.2599133705
C   C134      1.0  0.70320  0.47060  0.57040  1.0000 -0.4314966718
C   C135      1.0  0.79710  0.50230  0.51940  1.0000 -0.4753310824
C   C136      1.0  0.68780  0.48380  0.49220  1.0000 -0.4169583464
C   C137      1.0  0.74430  0.16530  0.49040  1.0000 -0.4412661984
C   C138      1.0  0.69589  0.21909  0.57806  1.0000 0.1003737499
C   C139      1.0  0.72461  0.22601  0.62104  1.0000 -0.14757554
C   C140      1.0  0.70047  0.18367  0.65611  1.0000 -0.0883714185
C   C141      1.0  0.64760  0.13440  0.64821  1.0000 -0.0513202785
C   C142      1.0  0.61887  0.12747  0.60523  1.0000 -0.0768876939
C   C143      1.0  0.64301  0.16981  0.57015  1.0000 -0.1399691211
C   C144      1.0  0.62320  0.08800  0.68400  1.0000 0.5811510191
C   C145      1.0  0.92920  0.57080  0.91160  1.0000 0.5811510191
C   C146      1.0  0.88445  0.60255  0.88063  1.0000 -0.0638802866
C   C147      1.0  0.87998  0.57922  0.83615  1.0000 -0.0768876939
C   C148      1.0  0.84236  0.61204  0.80440  1.0000 -0.14757554
C   C149      1.0  0.80941  0.66839  0.81712  1.0000 0.1003737499
C   C150      1.0  0.81398  0.69182  0.86160  1.0000 -0.14757554
C   C151      1.0  0.85150  0.65890  0.89336  1.0000 -0.0883714185
C   C152      1.0  0.58418  0.74918  0.78450  1.0000 0.2939479207
C   C153      1.0  0.76688  0.70292  0.78506  1.0000 -0.0288654817
C   C154      1.0  0.79207  0.73085  0.74458  1.0000 0.1003737499
C   C155      1.0  0.75069  0.76625  0.71671  1.0000 -0.0768876939
C   C156      1.0  0.68410  0.77370  0.72932  1.0000 0.2072295514
C   C157      1.0  0.65887  0.74573  0.76981  1.0000 -0.0513202785
C   C158      1.0  0.70021  0.71029  0.79768  1.0000 -0.1738632688
C   C159      1.0  0.56340  0.70200  0.82680  1.0000 -0.4412661984
C   C160      1.0  0.57320  0.82000  0.80370  1.0000 -0.4588007624
C   C161      1.0  0.53420  0.73480  0.74670  1.0000 -0.4588007624
C   C162      1.0  0.87040  0.73320  0.73400  1.0000 -0.4495607708
C   C163      1.0  0.77376  0.78842  0.66825  1.0000 -0.0638802866
C   C164      1.0  0.80157  0.74329  0.63887  1.0000 0.1003737499
C   C165      1.0  0.83295  0.76683  0.59903  1.0000 -0.0130625231
C   C166      1.0  0.83653  0.83547  0.58856  1.0000 -0.195234015
C   C167      1.0  0.80873  0.88061  0.61794  1.0000 -0.0201153426
C   C168      1.0  0.77734  0.85708  0.65779  1.0000 0.1833186378
C   C169      1.0  0.81980  0.95840  0.60900  1.0000 0.2791071986
C   C170      1.0  0.86490  0.99110  0.64610  1.0000 -0.4314966718
C   C171      1.0  0.85500  0.97300  0.56370  1.0000 -0.4412661984
C   C172      1.0  0.75650  0.99690  0.60680  1.0000 -0.4688372085
C   C173      1.0  0.78870  0.66550  0.64630  1.0000 -0.4495607708
C   C174      1.0  0.86815  0.72125  0.56787  1.0000 0.0872348627
C   C175      1.0  0.85240  0.71820  0.52188  1.0000 -0.14757554
C   C176      1.0  0.88575  0.67605  0.49332  1.0000 -0.0768876939
C   C177      1.0  0.93475  0.63687  0.51074  1.0000 -0.0288654817
C   C178      1.0  0.95048  0.63992  0.55673  1.0000 -0.1046666945
C   C179      1.0  0.91724  0.68216  0.58530  1.0000 -0.14757554
C   C180      1.0  0.96360  0.58420  0.48070  1.0000 0.5941647744
C   C181      1.0  0.05900  0.51900  0.75270  1.0000 0.5811510191
C   C182      1.0  0.09169  0.58057  0.72753  1.0000 -0.0288654817
C   C183      1.0  0.06600  0.60164  0.68644  1.0000 -0.1058647776
C   C184      1.0  0.10152  0.65272  0.66165  1.0000 -0.1399691211
C   C185      1.0  0.16273  0.68273  0.67794  1.0000 0.0872348627
C   C186      1.0  0.18841  0.66165  0.71903  1.0000 -0.14757554
C   C187      1.0  0.15290  0.61058  0.74382  1.0000 -0.0883714185
C   C188      1.0  0.25310  0.92690  0.66040  1.0000 0.3012364214
C   C189      1.0  0.19995  0.73781  0.64921  1.0000 -0.0201153426
C   C190      1.0  0.22769  0.72271  0.60743  1.0000 0.1003737499
C   C191      1.0  0.26666  0.77248  0.58363  1.0000 -0.0768876939
C   C192      1.0  0.27792  0.83736  0.60160  1.0000 0.2026119983
C   C193      1.0  0.25019  0.85245  0.64337  1.0000 -0.0434673964
C   C194      1.0  0.21120  0.80268  0.66718  1.0000 -0.1816033939
C   C195      1.0  0.22020  0.97200  0.62600  1.0000 -0.4588007624
C   C196      1.0  0.32670  0.95770  0.66970  1.0000 -0.4889507587
C   C197      1.0  0.21580  0.93180  0.70570  1.0000 -0.4688372085
C   C198      1.0  0.22230  0.64890  0.59120  1.0000 -0.4412661984
C   C199      1.0  0.28864  0.76044  0.53485  1.0000 -0.0676081276
C   C200      1.0  0.24245  0.73745  0.50163  1.0000 0.1003737499
C   C201      1.0  0.26540  0.71760  0.45946  1.0000 -0.0201153426
C   C202      1.0  0.33440  0.72080  0.45050  1.0000 -0.1816033939
C   C203      1.0  0.38060  0.74380  0.48373  1.0000 -0.0288654817
C   C204      1.0  0.35779  0.76359  0.52590  1.0000 0.1892356543
C   C205      1.0  0.45620  0.73740  0.47290  1.0000 0.2599133705
C   C206      1.0  0.47060  0.70320  0.42960  1.0000 -0.4314966718
C   C207      1.0  0.50230  0.79710  0.48060  1.0000 -0.4753310824
C   C208      1.0  0.48380  0.68780  0.50780  1.0000 -0.4169583464
C   C209      1.0  0.16530  0.74430  0.50960  1.0000 -0.4412661984
C   C210      1.0  0.21909  0.69589  0.42194  1.0000 0.1003737499
C   C211      1.0  0.22601  0.72461  0.37896  1.0000 -0.14757554
C   C212      1.0  0.18367  0.70047  0.34389  1.0000 -0.0883714185
C   C213      1.0  0.13440  0.64760  0.35179  1.0000 -0.0513202785
C   C214      1.0  0.12747  0.61887  0.39477  1.0000 -0.0768876939
C   C215      1.0  0.16981  0.64301  0.42985  1.0000 -0.1399691211
C   C216      1.0  0.08800  0.62320  0.31600  1.0000 0.5811510191
C   C217      1.0  0.07080  0.42920  0.41160  1.0000 0.5811510191
C   C218      1.0  0.11555  0.39745  0.38063  1.0000 -0.0638802866
C   C219      1.0  0.12002  0.42078  0.33615  1.0000 -0.0768876939
C   C220      1.0  0.15764  0.38796  0.30440  1.0000 -0.14757554
C   C221      1.0  0.19059  0.33161  0.31712  1.0000 0.1003737499
C   C222      1.0  0.18602  0.30818  0.36160  1.0000 -0.14757554
C   C223      1.0  0.14850  0.34110  0.39336  1.0000 -0.0883714185
C   C224      1.0  0.41582  0.25082  0.28450  1.0000 0.2939479207
C   C225      1.0  0.23312  0.29708  0.28506  1.0000 -0.0288654817
C   C226      1.0  0.20793  0.26915  0.24458  1.0000 0.1003737499
C   C227      1.0  0.24931  0.23375  0.21671  1.0000 -0.0768876939
C   C228      1.0  0.31590  0.22630  0.22932  1.0000 0.2072295514
C   C229      1.0  0.34113  0.25427  0.26981  1.0000 -0.0513202785
C   C230      1.0  0.29979  0.28971  0.29768  1.0000 -0.1738632688
C   C231      1.0  0.43660  0.29800  0.32680  1.0000 -0.4412661984
C   C232      1.0  0.42680  0.18000  0.30370  1.0000 -0.4588007624
C   C233      1.0  0.46580  0.26520  0.24670  1.0000 -0.4588007624
C   C234      1.0  0.12960  0.26680  0.23400  1.0000 -0.4495607708
C   C235      1.0  0.22624  0.21158  0.16825  1.0000 -0.0676081276
C   C236      1.0  0.19843  0.25671  0.13887  1.0000 0.1003737499
C   C237      1.0  0.16705  0.23317  0.09903  1.0000 -0.0130625231
C   C238      1.0  0.16347  0.16453  0.08856  1.0000 -0.195234015
C   C239      1.0  0.19127  0.11939  0.11794  1.0000 -0.0201153426
C   C240      1.0  0.22266  0.14292  0.15779  1.0000 0.1833186378
C   C241      1.0  0.18020  0.04160  0.10900  1.0000 0.2791071986
C   C242      1.0  0.13510  0.00890  0.14610  1.0000 -0.4314966718
C   C243      1.0  0.14500  0.02700  0.06370  1.0000 -0.4412661984
C   C244      1.0  0.24350  0.00310  0.10680  1.0000 -0.4688372085
C   C245      1.0  0.21130  0.33450  0.14630  1.0000 -0.4495607708
C   C246      1.0  0.13185  0.27875  0.06787  1.0000 0.0872348627
C   C247      1.0  0.14760  0.28180  0.02188  1.0000 -0.14757554
C   C248      1.0  0.11425  0.32395  0.99332  1.0000 -0.0768876939
C   C249      1.0  0.06525  0.36313  0.01074  1.0000 -0.0288654817
C   C250      1.0  0.04952  0.36008  0.05673  1.0000 -0.1058647776
C   C251      1.0  0.08276  0.31784  0.08530  1.0000 -0.14757554
C   C252      1.0  0.03640  0.41580  0.98070  1.0000 0.5941647744
C   C253      1.0  0.94100  0.48100  0.25270  1.0000 0.5811510191
C   C254      1.0  0.90831  0.41943  0.22753  1.0000 -0.0288654817
C   C255      1.0  0.93400  0.39836  0.18644  1.0000 -0.1058647776
C   C256      1.0  0.89848  0.34728  0.16165  1.0000 -0.1399691211
C   C257      1.0  0.83727  0.31727  0.17794  1.0000 0.0872348627
C   C258      1.0  0.81159  0.33835  0.21903  1.0000 -0.14757554
C   C259      1.0  0.84710  0.38942  0.24382  1.0000 -0.0883714185
C   C260      1.0  0.74690  0.07310  0.16040  1.0000 0.3012364214
C   C261      1.0  0.80005  0.26219  0.14921  1.0000 -0.0201153426
C   C262      1.0  0.77231  0.27729  0.10743  1.0000 0.1003737499
C   C263      1.0  0.73334  0.22752  0.08363  1.0000 -0.0768876939
C   C264      1.0  0.72208  0.16264  0.10160  1.0000 0.2026119983
C   C265      1.0  0.74981  0.14755  0.14337  1.0000 -0.0434673964
C   C266      1.0  0.78880  0.19732  0.16718  1.0000 -0.1816033939
C   C267      1.0  0.77980  0.02800  0.12600  1.0000 -0.4588007624
C   C268      1.0  0.67330  0.04230  0.16970  1.0000 -0.4889507587
C   C269      1.0  0.78420  0.06820  0.20570  1.0000 -0.4688372085
C   C270      1.0  0.77770  0.35110  0.09120  1.0000 -0.4412661984
C   C271      1.0  0.71136  0.23956  0.03485  1.0000 -0.0676081276
C   C272      1.0  0.75755  0.26255  0.00163  1.0000 0.1003737499
C   C273      1.0  0.73460  0.28240  0.95946  1.0000 -0.0201153426
C   C274      1.0  0.66560  0.27920  0.95050  1.0000 -0.1816033939
C   C275      1.0  0.61940  0.25620  0.98373  1.0000 -0.0288654817
C   C276      1.0  0.64221  0.23641  0.02590  1.0000 0.1892356543
C   C277      1.0  0.54380  0.26260  0.97290  1.0000 0.2599133705
C   C278      1.0  0.52940  0.29680  0.92960  1.0000 -0.4314966718
C   C279      1.0  0.49770  0.20290  0.98060  1.0000 -0.4753310824
C   C280      1.0  0.51620  0.31220  0.00780  1.0000 -0.4169583464
C   C281      1.0  0.83470  0.25570  0.00960  1.0000 -0.4412661984
C   C282      1.0  0.78091  0.30411  0.92194  1.0000 0.1003737499
C   C283      1.0  0.77399  0.27539  0.87896  1.0000 -0.14757554
C   C284      1.0  0.81633  0.29953  0.84389  1.0000 -0.0883714185
C   C285      1.0  0.86560  0.35240  0.85179  1.0000 -0.0513202785
C   C286      1.0  0.87253  0.38113  0.89477  1.0000 -0.0768876939
C   C287      1.0  0.83019  0.35699  0.92985  1.0000 -0.1399691211
C   C288      1.0  0.91200  0.37680  0.81600  1.0000 0.5811510191
O   O1        1.0  0.41153  0.07447  0.54467  1.0000 -0.622835278
O   O2        1.0  0.46970  0.03130  0.60047  1.0000 -0.5767684722
O   O3        1.0  0.18711  0.35289  0.79630  1.0000 -0.4169583464
O   O4        1.0  0.10159  0.25257  0.81164  1.0000 -0.4495607708
O   O5        1.0  0.06927  0.34253  0.76315  1.0000 -0.8136454965
O   O6        1.0  0.09374  0.36986  0.84723  1.0000 -0.7942479993
O   O7        1.0  0.45242  0.99498  0.99933  1.0000 -0.6075130696
O   O8        1.0  0.41997  0.05325  0.06064  1.0000 -0.5991929317
O   O9        1.0  0.51661  0.98699  0.76988  1.0000 -0.5991929317
O   O10       1.0  0.49159  0.92379  0.70824  1.0000 -0.5462672407
O   O11       1.0  0.11884  0.67862  0.92209  1.0000 -0.4412661984
O   O12       1.0  0.20820  0.59920  0.94122  1.0000 -0.4412661984
O   O13       1.0  0.08930  0.58250  0.97116  1.0000 -0.8258353914
O   O14       1.0  0.12110  0.55850  0.88860  1.0000 -0.7992823714
O   O15       1.0  0.34955  0.90655  0.22389  1.0000 -0.5703004742
O   O16       1.0  0.41922  0.95884  0.17577  1.0000 -0.5991929317
O   O17       1.0  0.58847  0.92553  0.04467  1.0000 -0.622835278
O   O18       1.0  0.53030  0.96870  0.10047  1.0000 -0.5767684722
O   O19       1.0  0.81289  0.64711  0.29630  1.0000 -0.4169583464
O   O20       1.0  0.89841  0.74743  0.31164  1.0000 -0.4495607708
O   O21       1.0  0.93073  0.65747  0.26315  1.0000 -0.8136454965
O   O22       1.0  0.90626  0.63014  0.34723  1.0000 -0.7942479993
O   O23       1.0  0.54758  0.00502  0.49933  1.0000 -0.6075130696
O   O24       1.0  0.58003  0.94675  0.56064  1.0000 -0.5991929317
O   O25       1.0  0.48339  0.01301  0.26988  1.0000 -0.5991929317
O   O26       1.0  0.50841  0.07621  0.20824  1.0000 -0.5462672407
O   O27       1.0  0.88116  0.32138  0.42209  1.0000 -0.4412661984
O   O28       1.0  0.79180  0.40080  0.44122  1.0000 -0.4412661984
O   O29       1.0  0.91070  0.41750  0.47116  1.0000 -0.8258353914
O   O30       1.0  0.87890  0.44150  0.38860  1.0000 -0.7992823714
O   O31       1.0  0.65045  0.09345  0.72389  1.0000 -0.5703004742
O   O32       1.0  0.58078  0.04116  0.67577  1.0000 -0.5991929317
O   O33       1.0  0.92553  0.58847  0.95533  1.0000 -0.622835278
O   O34       1.0  0.96870  0.53030  0.89953  1.0000 -0.5767684722
O   O35       1.0  0.64711  0.81289  0.70370  1.0000 -0.4169583464
O   O36       1.0  0.74743  0.89841  0.68836  1.0000 -0.4495607708
O   O37       1.0  0.65747  0.93073  0.73685  1.0000 -0.8136454965
O   O38       1.0  0.63014  0.90626  0.65277  1.0000 -0.7942479993
O   O39       1.0  0.00502  0.54758  0.50067  1.0000 -0.6075130696
O   O40       1.0  0.94675  0.58003  0.43936  1.0000 -0.5991929317
O   O41       1.0  0.01301  0.48339  0.73012  1.0000 -0.5991929317
O   O42       1.0  0.07621  0.50841  0.79176  1.0000 -0.5462672407
O   O43       1.0  0.32138  0.88116  0.57791  1.0000 -0.4412661984
O   O44       1.0  0.40080  0.79180  0.55878  1.0000 -0.4412661984
O   O45       1.0  0.41750  0.91070  0.52884  1.0000 -0.8258353914
O   O46       1.0  0.44150  0.87890  0.61140  1.0000 -0.7992823714
O   O47       1.0  0.09345  0.65045  0.27611  1.0000 -0.5703004742
O   O48       1.0  0.04116  0.58078  0.32423  1.0000 -0.5991929317
O   O49       1.0  0.07447  0.41153  0.45533  1.0000 -0.622835278
O   O50       1.0  0.03130  0.46970  0.39953  1.0000 -0.5767684722
O   O51       1.0  0.35289  0.18711  0.20370  1.0000 -0.4169583464
O   O52       1.0  0.25257  0.10159  0.18836  1.0000 -0.4495607708
O   O53       1.0  0.34253  0.06927  0.23685  1.0000 -0.8136454965
O   O54       1.0  0.36986  0.09374  0.15277  1.0000 -0.7942479993
O   O55       1.0  0.99498  0.45242  0.00067  1.0000 -0.6075130696
O   O56       1.0  0.05325  0.41997  0.93936  1.0000 -0.5991929317
O   O57       1.0  0.98699  0.51661  0.23012  1.0000 -0.5991929317
O   O58       1.0  0.92379  0.49159  0.29176  1.0000 -0.5462672407
O   O59       1.0  0.67862  0.11884  0.07791  1.0000 -0.4412661984
O   O60       1.0  0.59920  0.20820  0.05878  1.0000 -0.4412661984
O   O61       1.0  0.58250  0.08930  0.02884  1.0000 -0.8258353914
O   O62       1.0  0.55850  0.12110  0.11140  1.0000 -0.7992823714
O   O63       1.0  0.90655  0.34955  0.77611  1.0000 -0.5703004742
O   O64       1.0  0.95884  0.41922  0.82423  1.0000 -0.5991929317
