# DDEC6 charges by PACMAN v1.1 (https://github.com/mtap-research/PACMAN-charge/)
data_2017[Cu][pto]3[ASR]1
_chemical_formula_sum              "Cu24 H336 C528 O96"
_cell_length_a       33.3261
_cell_length_b       33.3261
_cell_length_c       33.3261
_cell_angle_alpha    90
_cell_angle_beta     90
_cell_angle_gamma    90

_symmetry_space_group_name_H-M    "P 1"
_symmetry_Int_Tables_number       1

loop_
  _symmetry_equiv_pos_as_xyz
  'x, y, z'

loop_
  _atom_site_type_symbol
  _atom_site_label
  _atom_site_symmetry_multiplicity
  _atom_site_fract_x
  _atom_site_fract_y
  _atom_site_fract_z
  _atom_site_occupancy
  _atom_site_charge
Cu  Cu1       1.0  0.50000  0.79002  0.00000  1.0000 0.8421393062
Cu  Cu2       1.0  0.50000  0.20998  0.00000  1.0000 0.8421393062
Cu  Cu3       1.0  0.79002  0.00000  0.50000  1.0000 0.8421393062
Cu  Cu4       1.0  0.20998  0.00000  0.50000  1.0000 0.8421393062
Cu  Cu5       1.0  0.00000  0.50000  0.20998  1.0000 0.8421393062
Cu  Cu6       1.0  0.00000  0.50000  0.79002  1.0000 0.8421393062
Cu  Cu7       1.0  0.70998  0.00000  0.50000  1.0000 0.8421393062
Cu  Cu8       1.0  0.29002  0.00000  0.50000  1.0000 0.8421393062
Cu  Cu9       1.0  0.50000  0.70998  0.00000  1.0000 0.8421393062
Cu  Cu10      1.0  0.50000  0.29002  0.00000  1.0000 0.8421393062
Cu  Cu11      1.0  0.00000  0.50000  0.70998  1.0000 0.8421393062
Cu  Cu12      1.0  0.00000  0.50000  0.29002  1.0000 0.8421393062
Cu  Cu13      1.0  0.79002  0.50000  0.00000  1.0000 0.8421393062
Cu  Cu14      1.0  0.20998  0.50000  0.00000  1.0000 0.8421393062
Cu  Cu15      1.0  0.00000  0.79002  0.50000  1.0000 0.8421393062
Cu  Cu16      1.0  0.00000  0.20998  0.50000  1.0000 0.8421393062
Cu  Cu17      1.0  0.50000  0.00000  0.79002  1.0000 0.8421393062
Cu  Cu18      1.0  0.50000  0.00000  0.20998  1.0000 0.8421393062
Cu  Cu19      1.0  0.00000  0.70998  0.50000  1.0000 0.8421393062
Cu  Cu20      1.0  0.00000  0.29002  0.50000  1.0000 0.8421393062
Cu  Cu21      1.0  0.70998  0.50000  0.00000  1.0000 0.8421393062
Cu  Cu22      1.0  0.29002  0.50000  0.00000  1.0000 0.8421393062
Cu  Cu23      1.0  0.50000  0.00000  0.29002  1.0000 0.8421393062
Cu  Cu24      1.0  0.50000  0.00000  0.70998  1.0000 0.8421393062
H   H1        1.0  0.71280  0.66910  0.23210  1.0000 0.1106279024
H   H2        1.0  0.28720  0.33090  0.23210  1.0000 0.1106279024
H   H3        1.0  0.71280  0.33090  0.76790  1.0000 0.1106279024
H   H4        1.0  0.28720  0.66910  0.76790  1.0000 0.1106279024
H   H5        1.0  0.66910  0.76790  0.28720  1.0000 0.1106279024
H   H6        1.0  0.33090  0.76790  0.71280  1.0000 0.1106279024
H   H7        1.0  0.33090  0.23210  0.28720  1.0000 0.1106279024
H   H8        1.0  0.66910  0.23210  0.71280  1.0000 0.1106279024
H   H9        1.0  0.76790  0.71280  0.33090  1.0000 0.1106279024
H   H10       1.0  0.76790  0.28720  0.66910  1.0000 0.1106279024
H   H11       1.0  0.23210  0.71280  0.66910  1.0000 0.1106279024
H   H12       1.0  0.23210  0.28720  0.33090  1.0000 0.1106279024
H   H13       1.0  0.83090  0.78720  0.73210  1.0000 0.1106279024
H   H14       1.0  0.16910  0.21280  0.73210  1.0000 0.1106279024
H   H15       1.0  0.16910  0.78720  0.26790  1.0000 0.1106279024
H   H16       1.0  0.83090  0.21280  0.26790  1.0000 0.1106279024
H   H17       1.0  0.73210  0.83090  0.78720  1.0000 0.1106279024
H   H18       1.0  0.73210  0.16910  0.21280  1.0000 0.1106279024
H   H19       1.0  0.26790  0.16910  0.78720  1.0000 0.1106279024
H   H20       1.0  0.26790  0.83090  0.21280  1.0000 0.1106279024
H   H21       1.0  0.78720  0.73210  0.83090  1.0000 0.1106279024
H   H22       1.0  0.21280  0.73210  0.16910  1.0000 0.1106279024
H   H23       1.0  0.78720  0.26790  0.16910  1.0000 0.1106279024
H   H24       1.0  0.21280  0.26790  0.83090  1.0000 0.1106279024
H   H25       1.0  0.65170  0.66210  0.21050  1.0000 0.1167349027
H   H26       1.0  0.34830  0.33790  0.21050  1.0000 0.1167349027
H   H27       1.0  0.65170  0.33790  0.78950  1.0000 0.1167349027
H   H28       1.0  0.34830  0.66210  0.78950  1.0000 0.1167349027
H   H29       1.0  0.66210  0.78950  0.34830  1.0000 0.1167349027
H   H30       1.0  0.33790  0.78950  0.65170  1.0000 0.1167349027
H   H31       1.0  0.33790  0.21050  0.34830  1.0000 0.1167349027
H   H32       1.0  0.66210  0.21050  0.65170  1.0000 0.1167349027
H   H33       1.0  0.78950  0.65170  0.33790  1.0000 0.1167349027
H   H34       1.0  0.78950  0.34830  0.66210  1.0000 0.1167349027
H   H35       1.0  0.21050  0.65170  0.66210  1.0000 0.1167349027
H   H36       1.0  0.21050  0.34830  0.33790  1.0000 0.1167349027
H   H37       1.0  0.83790  0.84830  0.71050  1.0000 0.1167349027
H   H38       1.0  0.16210  0.15170  0.71050  1.0000 0.1167349027
H   H39       1.0  0.16210  0.84830  0.28950  1.0000 0.1167349027
H   H40       1.0  0.83790  0.15170  0.28950  1.0000 0.1167349027
H   H41       1.0  0.71050  0.83790  0.84830  1.0000 0.1167349027
H   H42       1.0  0.71050  0.16210  0.15170  1.0000 0.1167349027
H   H43       1.0  0.28950  0.16210  0.84830  1.0000 0.1167349027
H   H44       1.0  0.28950  0.83790  0.15170  1.0000 0.1167349027
H   H45       1.0  0.84830  0.71050  0.83790  1.0000 0.1167349027
H   H46       1.0  0.15170  0.71050  0.16210  1.0000 0.1167349027
H   H47       1.0  0.84830  0.28950  0.16210  1.0000 0.1167349027
H   H48       1.0  0.15170  0.28950  0.83790  1.0000 0.1167349027
H   H49       1.0  0.60960  0.66710  0.15530  1.0000 0.1167349027
H   H50       1.0  0.39040  0.33290  0.15530  1.0000 0.1167349027
H   H51       1.0  0.60960  0.33290  0.84470  1.0000 0.1167349027
H   H52       1.0  0.39040  0.66710  0.84470  1.0000 0.1167349027
H   H53       1.0  0.66710  0.84470  0.39040  1.0000 0.1167349027
H   H54       1.0  0.33290  0.84470  0.60960  1.0000 0.1167349027
H   H55       1.0  0.33290  0.15530  0.39040  1.0000 0.1167349027
H   H56       1.0  0.66710  0.15530  0.60960  1.0000 0.1167349027
H   H57       1.0  0.84470  0.60960  0.33290  1.0000 0.1167349027
H   H58       1.0  0.84470  0.39040  0.66710  1.0000 0.1167349027
H   H59       1.0  0.15530  0.60960  0.66710  1.0000 0.1167349027
H   H60       1.0  0.15530  0.39040  0.33290  1.0000 0.1167349027
H   H61       1.0  0.83290  0.89040  0.65530  1.0000 0.1167349027
H   H62       1.0  0.16710  0.10960  0.65530  1.0000 0.1167349027
H   H63       1.0  0.16710  0.89040  0.34470  1.0000 0.1167349027
H   H64       1.0  0.83290  0.10960  0.34470  1.0000 0.1167349027
H   H65       1.0  0.65530  0.83290  0.89040  1.0000 0.1167349027
H   H66       1.0  0.65530  0.16710  0.10960  1.0000 0.1167349027
H   H67       1.0  0.34470  0.16710  0.89040  1.0000 0.1167349027
H   H68       1.0  0.34470  0.83290  0.10960  1.0000 0.1167349027
H   H69       1.0  0.89040  0.65530  0.83290  1.0000 0.1167349027
H   H70       1.0  0.10960  0.65530  0.16710  1.0000 0.1167349027
H   H71       1.0  0.89040  0.34470  0.16710  1.0000 0.1167349027
H   H72       1.0  0.10960  0.34470  0.83290  1.0000 0.1167349027
H   H73       1.0  0.61280  0.78740  0.16390  1.0000 0.1106279024
H   H74       1.0  0.38720  0.21260  0.16390  1.0000 0.1106279024
H   H75       1.0  0.61280  0.21260  0.83610  1.0000 0.1167349027
H   H76       1.0  0.38720  0.78740  0.83610  1.0000 0.1106279024
H   H77       1.0  0.78740  0.83610  0.38720  1.0000 0.1106279024
H   H78       1.0  0.21260  0.83610  0.61280  1.0000 0.1106279024
H   H79       1.0  0.21260  0.16390  0.38720  1.0000 0.1106279024
H   H80       1.0  0.78740  0.16390  0.61280  1.0000 0.1106279024
H   H81       1.0  0.83610  0.61280  0.21260  1.0000 0.1106279024
H   H82       1.0  0.83610  0.38720  0.78740  1.0000 0.1106279024
H   H83       1.0  0.16390  0.61280  0.78740  1.0000 0.1106279024
H   H84       1.0  0.16390  0.38720  0.21260  1.0000 0.1106279024
H   H85       1.0  0.71260  0.88720  0.66390  1.0000 0.1106279024
H   H86       1.0  0.28740  0.11280  0.66390  1.0000 0.1167349027
H   H87       1.0  0.28740  0.88720  0.33610  1.0000 0.1106279024
H   H88       1.0  0.71260  0.11280  0.33610  1.0000 0.1167349027
H   H89       1.0  0.66390  0.71260  0.88720  1.0000 0.1106279024
H   H90       1.0  0.66390  0.28740  0.11280  1.0000 0.1106279024
H   H91       1.0  0.33610  0.28740  0.88720  1.0000 0.1106279024
H   H92       1.0  0.33610  0.71260  0.11280  1.0000 0.1106279024
H   H93       1.0  0.88720  0.66390  0.71260  1.0000 0.1106279024
H   H94       1.0  0.11280  0.66390  0.28740  1.0000 0.1106279024
H   H95       1.0  0.88720  0.33610  0.28740  1.0000 0.1106279024
H   H96       1.0  0.11280  0.33610  0.71260  1.0000 0.1167349027
H   H97       1.0  0.65480  0.78230  0.21920  1.0000 0.1106279024
H   H98       1.0  0.34520  0.21770  0.21920  1.0000 0.1106279024
H   H99       1.0  0.65480  0.21770  0.78080  1.0000 0.1106279024
H   H100      1.0  0.34520  0.78230  0.78080  1.0000 0.1106279024
H   H101      1.0  0.78230  0.78080  0.34520  1.0000 0.1106279024
H   H102      1.0  0.21770  0.78080  0.65480  1.0000 0.1106279024
H   H103      1.0  0.21770  0.21920  0.34520  1.0000 0.1106279024
H   H104      1.0  0.78230  0.21920  0.65480  1.0000 0.1106279024
H   H105      1.0  0.78080  0.65480  0.21770  1.0000 0.1106279024
H   H106      1.0  0.78080  0.34520  0.78230  1.0000 0.1106279024
H   H107      1.0  0.21920  0.65480  0.78230  1.0000 0.1106279024
H   H108      1.0  0.21920  0.34520  0.21770  1.0000 0.1106279024
H   H109      1.0  0.71770  0.84520  0.71920  1.0000 0.1106279024
H   H110      1.0  0.28230  0.15480  0.71920  1.0000 0.1106279024
H   H111      1.0  0.28230  0.84520  0.28080  1.0000 0.1106279024
H   H112      1.0  0.71770  0.15480  0.28080  1.0000 0.1106279024
H   H113      1.0  0.71920  0.71770  0.84520  1.0000 0.1106279024
H   H114      1.0  0.71920  0.28230  0.15480  1.0000 0.1106279024
H   H115      1.0  0.28080  0.28230  0.84520  1.0000 0.1106279024
H   H116      1.0  0.28080  0.71770  0.15480  1.0000 0.1106279024
H   H117      1.0  0.84520  0.71920  0.71770  1.0000 0.1106279024
H   H118      1.0  0.15480  0.71920  0.28230  1.0000 0.1106279024
H   H119      1.0  0.84520  0.28080  0.28230  1.0000 0.1106279024
H   H120      1.0  0.15480  0.28080  0.71770  1.0000 0.1106279024
H   H121      1.0  0.57470  0.70260  0.10720  1.0000 0.1291071373
H   H122      1.0  0.42530  0.29740  0.10720  1.0000 0.1291071373
H   H123      1.0  0.57470  0.29740  0.89280  1.0000 0.1291071373
H   H124      1.0  0.42530  0.70260  0.89280  1.0000 0.1291071373
H   H125      1.0  0.70260  0.89280  0.42530  1.0000 0.1291071373
H   H126      1.0  0.29740  0.89280  0.57470  1.0000 0.1291071373
H   H127      1.0  0.29740  0.10720  0.42530  1.0000 0.1291071373
H   H128      1.0  0.70260  0.10720  0.57470  1.0000 0.1291071373
H   H129      1.0  0.89280  0.57470  0.29740  1.0000 0.1291071373
H   H130      1.0  0.89280  0.42530  0.70260  1.0000 0.1291071373
H   H131      1.0  0.10720  0.57470  0.70260  1.0000 0.1291071373
H   H132      1.0  0.10720  0.42530  0.29740  1.0000 0.1291071373
H   H133      1.0  0.79740  0.92530  0.60720  1.0000 0.1291071373
H   H134      1.0  0.20260  0.07470  0.60720  1.0000 0.1291071373
H   H135      1.0  0.20260  0.92530  0.39280  1.0000 0.1291071373
H   H136      1.0  0.79740  0.07470  0.39280  1.0000 0.1291071373
H   H137      1.0  0.60720  0.79740  0.92530  1.0000 0.1291071373
H   H138      1.0  0.60720  0.20260  0.07470  1.0000 0.1291071373
H   H139      1.0  0.39280  0.20260  0.92530  1.0000 0.1291071373
H   H140      1.0  0.39280  0.79740  0.07470  1.0000 0.1291071373
H   H141      1.0  0.92530  0.60720  0.79740  1.0000 0.1291071373
H   H142      1.0  0.07470  0.60720  0.20260  1.0000 0.1291071373
H   H143      1.0  0.92530  0.39280  0.20260  1.0000 0.1291071373
H   H144      1.0  0.07470  0.39280  0.79740  1.0000 0.1291071373
H   H145      1.0  0.57390  0.78210  0.10830  1.0000 0.1391778048
H   H146      1.0  0.42610  0.21790  0.10830  1.0000 0.1391778048
H   H147      1.0  0.57390  0.21790  0.89170  1.0000 0.1391778048
H   H148      1.0  0.42610  0.78210  0.89170  1.0000 0.1391778048
H   H149      1.0  0.78210  0.89170  0.42610  1.0000 0.1391778048
H   H150      1.0  0.21790  0.89170  0.57390  1.0000 0.1391778048
H   H151      1.0  0.21790  0.10830  0.42610  1.0000 0.1391778048
H   H152      1.0  0.78210  0.10830  0.57390  1.0000 0.1391778048
H   H153      1.0  0.89170  0.57390  0.21790  1.0000 0.1391778048
H   H154      1.0  0.89170  0.42610  0.78210  1.0000 0.1391778048
H   H155      1.0  0.10830  0.57390  0.78210  1.0000 0.1391778048
H   H156      1.0  0.10830  0.42610  0.21790  1.0000 0.1391778048
H   H157      1.0  0.71790  0.92610  0.60830  1.0000 0.1391778048
H   H158      1.0  0.28210  0.07390  0.60830  1.0000 0.1391778048
H   H159      1.0  0.28210  0.92610  0.39170  1.0000 0.1391778048
H   H160      1.0  0.71790  0.07390  0.39170  1.0000 0.1391778048
H   H161      1.0  0.60830  0.71790  0.92610  1.0000 0.1391778048
H   H162      1.0  0.60830  0.28210  0.07390  1.0000 0.1391778048
H   H163      1.0  0.39170  0.28210  0.92610  1.0000 0.1391778048
H   H164      1.0  0.39170  0.71790  0.07390  1.0000 0.1391778048
H   H165      1.0  0.92610  0.60830  0.71790  1.0000 0.1391778048
H   H166      1.0  0.07390  0.60830  0.28210  1.0000 0.1391778048
H   H167      1.0  0.92610  0.39170  0.28210  1.0000 0.1391778048
H   H168      1.0  0.07390  0.39170  0.71790  1.0000 0.1391778048
H   H169      1.0  0.66910  0.71280  0.76790  1.0000 0.1106279024
H   H170      1.0  0.33090  0.28720  0.76790  1.0000 0.1106279024
H   H171      1.0  0.33090  0.71280  0.23210  1.0000 0.1106279024
H   H172      1.0  0.66910  0.28720  0.23210  1.0000 0.1106279024
H   H173      1.0  0.76790  0.66910  0.71280  1.0000 0.1106279024
H   H174      1.0  0.76790  0.33090  0.28720  1.0000 0.1106279024
H   H175      1.0  0.23210  0.33090  0.71280  1.0000 0.1106279024
H   H176      1.0  0.23210  0.66910  0.28720  1.0000 0.1106279024
H   H177      1.0  0.71280  0.76790  0.66910  1.0000 0.1106279024
H   H178      1.0  0.28720  0.76790  0.33090  1.0000 0.1106279024
H   H179      1.0  0.71280  0.23210  0.33090  1.0000 0.1106279024
H   H180      1.0  0.28720  0.23210  0.66910  1.0000 0.1106279024
H   H181      1.0  0.78720  0.83090  0.26790  1.0000 0.1106279024
H   H182      1.0  0.21280  0.16910  0.26790  1.0000 0.1106279024
H   H183      1.0  0.78720  0.16910  0.73210  1.0000 0.1106279024
H   H184      1.0  0.21280  0.83090  0.73210  1.0000 0.1106279024
H   H185      1.0  0.83090  0.73210  0.21280  1.0000 0.1106279024
H   H186      1.0  0.16910  0.73210  0.78720  1.0000 0.1106279024
H   H187      1.0  0.16910  0.26790  0.21280  1.0000 0.1106279024
H   H188      1.0  0.83090  0.26790  0.78720  1.0000 0.1106279024
H   H189      1.0  0.73210  0.78720  0.16910  1.0000 0.1106279024
H   H190      1.0  0.73210  0.21280  0.83090  1.0000 0.1106279024
H   H191      1.0  0.26790  0.78720  0.83090  1.0000 0.1106279024
H   H192      1.0  0.26790  0.21280  0.16910  1.0000 0.1106279024
H   H193      1.0  0.66210  0.65170  0.78950  1.0000 0.1167349027
H   H194      1.0  0.33790  0.34830  0.78950  1.0000 0.1167349027
H   H195      1.0  0.33790  0.65170  0.21050  1.0000 0.1167349027
H   H196      1.0  0.66210  0.34830  0.21050  1.0000 0.1167349027
H   H197      1.0  0.78950  0.66210  0.65170  1.0000 0.1167349027
H   H198      1.0  0.78950  0.33790  0.34830  1.0000 0.1167349027
H   H199      1.0  0.21050  0.33790  0.65170  1.0000 0.1167349027
H   H200      1.0  0.21050  0.66210  0.34830  1.0000 0.1167349027
H   H201      1.0  0.65170  0.78950  0.66210  1.0000 0.1167349027
H   H202      1.0  0.34830  0.78950  0.33790  1.0000 0.1167349027
H   H203      1.0  0.65170  0.21050  0.33790  1.0000 0.1167349027
H   H204      1.0  0.34830  0.21050  0.66210  1.0000 0.1167349027
H   H205      1.0  0.84830  0.83790  0.28950  1.0000 0.1167349027
H   H206      1.0  0.15170  0.16210  0.28950  1.0000 0.1167349027
H   H207      1.0  0.84830  0.16210  0.71050  1.0000 0.1167349027
H   H208      1.0  0.15170  0.83790  0.71050  1.0000 0.1167349027
H   H209      1.0  0.83790  0.71050  0.15170  1.0000 0.1167349027
H   H210      1.0  0.16210  0.71050  0.84830  1.0000 0.1167349027
H   H211      1.0  0.16210  0.28950  0.15170  1.0000 0.1167349027
H   H212      1.0  0.83790  0.28950  0.84830  1.0000 0.1167349027
H   H213      1.0  0.71050  0.84830  0.16210  1.0000 0.1167349027
H   H214      1.0  0.71050  0.15170  0.83790  1.0000 0.1167349027
H   H215      1.0  0.28950  0.84830  0.83790  1.0000 0.1167349027
H   H216      1.0  0.28950  0.15170  0.16210  1.0000 0.1167349027
H   H217      1.0  0.66710  0.60960  0.84470  1.0000 0.1167349027
H   H218      1.0  0.33290  0.39040  0.84470  1.0000 0.1167349027
H   H219      1.0  0.33290  0.60960  0.15530  1.0000 0.1167349027
H   H220      1.0  0.66710  0.39040  0.15530  1.0000 0.1167349027
H   H221      1.0  0.84470  0.66710  0.60960  1.0000 0.1167349027
H   H222      1.0  0.84470  0.33290  0.39040  1.0000 0.1167349027
H   H223      1.0  0.15530  0.33290  0.60960  1.0000 0.1167349027
H   H224      1.0  0.15530  0.66710  0.39040  1.0000 0.1167349027
H   H225      1.0  0.60960  0.84470  0.66710  1.0000 0.1167349027
H   H226      1.0  0.39040  0.84470  0.33290  1.0000 0.1167349027
H   H227      1.0  0.60960  0.15530  0.33290  1.0000 0.1167349027
H   H228      1.0  0.39040  0.15530  0.66710  1.0000 0.1167349027
H   H229      1.0  0.89040  0.83290  0.34470  1.0000 0.1167349027
H   H230      1.0  0.10960  0.16710  0.34470  1.0000 0.1167349027
H   H231      1.0  0.89040  0.16710  0.65530  1.0000 0.1167349027
H   H232      1.0  0.10960  0.83290  0.65530  1.0000 0.1167349027
H   H233      1.0  0.83290  0.65530  0.10960  1.0000 0.1167349027
H   H234      1.0  0.16710  0.65530  0.89040  1.0000 0.1167349027
H   H235      1.0  0.16710  0.34470  0.10960  1.0000 0.1167349027
H   H236      1.0  0.83290  0.34470  0.89040  1.0000 0.1167349027
H   H237      1.0  0.65530  0.89040  0.16710  1.0000 0.1167349027
H   H238      1.0  0.65530  0.10960  0.83290  1.0000 0.1167349027
H   H239      1.0  0.34470  0.89040  0.83290  1.0000 0.1167349027
H   H240      1.0  0.34470  0.10960  0.16710  1.0000 0.1167349027
H   H241      1.0  0.78740  0.61280  0.83610  1.0000 0.1106279024
H   H242      1.0  0.21260  0.38720  0.83610  1.0000 0.1106279024
H   H243      1.0  0.21260  0.61280  0.16390  1.0000 0.1106279024
H   H244      1.0  0.78740  0.38720  0.16390  1.0000 0.1106279024
H   H245      1.0  0.83610  0.78740  0.61280  1.0000 0.1106279024
H   H246      1.0  0.83610  0.21260  0.38720  1.0000 0.1106279024
H   H247      1.0  0.16390  0.21260  0.61280  1.0000 0.1106279024
H   H248      1.0  0.16390  0.78740  0.38720  1.0000 0.1106279024
H   H249      1.0  0.61280  0.83610  0.78740  1.0000 0.1106279024
H   H250      1.0  0.38720  0.83610  0.21260  1.0000 0.1106279024
H   H251      1.0  0.61280  0.16390  0.21260  1.0000 0.1106279024
H   H252      1.0  0.38720  0.16390  0.78740  1.0000 0.1106279024
H   H253      1.0  0.88720  0.71260  0.33610  1.0000 0.1106279024
H   H254      1.0  0.11280  0.28740  0.33610  1.0000 0.1167349027
H   H255      1.0  0.88720  0.28740  0.66390  1.0000 0.1167349027
H   H256      1.0  0.11280  0.71260  0.66390  1.0000 0.1106279024
H   H257      1.0  0.71260  0.66390  0.11280  1.0000 0.1106279024
H   H258      1.0  0.28740  0.66390  0.88720  1.0000 0.1106279024
H   H259      1.0  0.28740  0.33610  0.11280  1.0000 0.1167349027
H   H260      1.0  0.71260  0.33610  0.88720  1.0000 0.1106279024
H   H261      1.0  0.66390  0.88720  0.28740  1.0000 0.1106279024
H   H262      1.0  0.66390  0.11280  0.71260  1.0000 0.1167349027
H   H263      1.0  0.33610  0.88720  0.71260  1.0000 0.1106279024
H   H264      1.0  0.33610  0.11280  0.28740  1.0000 0.1167349027
H   H265      1.0  0.78230  0.65480  0.78080  1.0000 0.1106279024
H   H266      1.0  0.21770  0.34520  0.78080  1.0000 0.1106279024
H   H267      1.0  0.21770  0.65480  0.21920  1.0000 0.1106279024
H   H268      1.0  0.78230  0.34520  0.21920  1.0000 0.1106279024
H   H269      1.0  0.78080  0.78230  0.65480  1.0000 0.1106279024
H   H270      1.0  0.78080  0.21770  0.34520  1.0000 0.1106279024
H   H271      1.0  0.21920  0.21770  0.65480  1.0000 0.1106279024
H   H272      1.0  0.21920  0.78230  0.34520  1.0000 0.1106279024
H   H273      1.0  0.65480  0.78080  0.78230  1.0000 0.1106279024
H   H274      1.0  0.34520  0.78080  0.21770  1.0000 0.1106279024
H   H275      1.0  0.65480  0.21920  0.21770  1.0000 0.1106279024
H   H276      1.0  0.34520  0.21920  0.78230  1.0000 0.1106279024
H   H277      1.0  0.84520  0.71770  0.28080  1.0000 0.1106279024
H   H278      1.0  0.15480  0.28230  0.28080  1.0000 0.1106279024
H   H279      1.0  0.84520  0.28230  0.71920  1.0000 0.1106279024
H   H280      1.0  0.15480  0.71770  0.71920  1.0000 0.1106279024
H   H281      1.0  0.71770  0.71920  0.15480  1.0000 0.1106279024
H   H282      1.0  0.28230  0.71920  0.84520  1.0000 0.1106279024
H   H283      1.0  0.28230  0.28080  0.15480  1.0000 0.1106279024
H   H284      1.0  0.71770  0.28080  0.84520  1.0000 0.1106279024
H   H285      1.0  0.71920  0.84520  0.28230  1.0000 0.1106279024
H   H286      1.0  0.71920  0.15480  0.71770  1.0000 0.1106279024
H   H287      1.0  0.28080  0.84520  0.71770  1.0000 0.1106279024
H   H288      1.0  0.28080  0.15480  0.28230  1.0000 0.1106279024
H   H289      1.0  0.70260  0.57470  0.89280  1.0000 0.1291071373
H   H290      1.0  0.29740  0.42530  0.89280  1.0000 0.1291071373
H   H291      1.0  0.29740  0.57470  0.10720  1.0000 0.1291071373
H   H292      1.0  0.70260  0.42530  0.10720  1.0000 0.1291071373
H   H293      1.0  0.89280  0.70260  0.57470  1.0000 0.1291071373
H   H294      1.0  0.89280  0.29740  0.42530  1.0000 0.1291071373
H   H295      1.0  0.10720  0.29740  0.57470  1.0000 0.1291071373
H   H296      1.0  0.10720  0.70260  0.42530  1.0000 0.1291071373
H   H297      1.0  0.57470  0.89280  0.70260  1.0000 0.1291071373
H   H298      1.0  0.42530  0.89280  0.29740  1.0000 0.1291071373
H   H299      1.0  0.57470  0.10720  0.29740  1.0000 0.1291071373
H   H300      1.0  0.42530  0.10720  0.70260  1.0000 0.1291071373
H   H301      1.0  0.92530  0.79740  0.39280  1.0000 0.1291071373
H   H302      1.0  0.07470  0.20260  0.39280  1.0000 0.1291071373
H   H303      1.0  0.92530  0.20260  0.60720  1.0000 0.1291071373
H   H304      1.0  0.07470  0.79740  0.60720  1.0000 0.1291071373
H   H305      1.0  0.79740  0.60720  0.07470  1.0000 0.1291071373
H   H306      1.0  0.20260  0.60720  0.92530  1.0000 0.1291071373
H   H307      1.0  0.20260  0.39280  0.07470  1.0000 0.1291071373
H   H308      1.0  0.79740  0.39280  0.92530  1.0000 0.1291071373
H   H309      1.0  0.60720  0.92530  0.20260  1.0000 0.1291071373
H   H310      1.0  0.60720  0.07470  0.79740  1.0000 0.1291071373
H   H311      1.0  0.39280  0.92530  0.79740  1.0000 0.1291071373
H   H312      1.0  0.39280  0.07470  0.20260  1.0000 0.1291071373
H   H313      1.0  0.78210  0.57390  0.89170  1.0000 0.1391778048
H   H314      1.0  0.21790  0.42610  0.89170  1.0000 0.1391778048
H   H315      1.0  0.21790  0.57390  0.10830  1.0000 0.1391778048
H   H316      1.0  0.78210  0.42610  0.10830  1.0000 0.1391778048
H   H317      1.0  0.89170  0.78210  0.57390  1.0000 0.1391778048
H   H318      1.0  0.89170  0.21790  0.42610  1.0000 0.1391778048
H   H319      1.0  0.10830  0.21790  0.57390  1.0000 0.1391778048
H   H320      1.0  0.10830  0.78210  0.42610  1.0000 0.1391778048
H   H321      1.0  0.57390  0.89170  0.78210  1.0000 0.1391778048
H   H322      1.0  0.42610  0.89170  0.21790  1.0000 0.1391778048
H   H323      1.0  0.57390  0.10830  0.21790  1.0000 0.1391778048
H   H324      1.0  0.42610  0.10830  0.78210  1.0000 0.1391778048
H   H325      1.0  0.92610  0.71790  0.39170  1.0000 0.1391778048
H   H326      1.0  0.07390  0.28210  0.39170  1.0000 0.1391778048
H   H327      1.0  0.92610  0.28210  0.60830  1.0000 0.1391778048
H   H328      1.0  0.07390  0.71790  0.60830  1.0000 0.1391778048
H   H329      1.0  0.71790  0.60830  0.07390  1.0000 0.1391778048
H   H330      1.0  0.28210  0.60830  0.92610  1.0000 0.1391778048
H   H331      1.0  0.28210  0.39170  0.07390  1.0000 0.1391778048
H   H332      1.0  0.71790  0.39170  0.92610  1.0000 0.1391778048
H   H333      1.0  0.60830  0.92610  0.28210  1.0000 0.1391778048
H   H334      1.0  0.60830  0.07390  0.71790  1.0000 0.1391778048
H   H335      1.0  0.39170  0.92610  0.71790  1.0000 0.1391778048
H   H336      1.0  0.39170  0.07390  0.28210  1.0000 0.1391778048
C   C1        1.0  0.71490  0.68861  0.25188  1.0000 -0.2149553274
C   C2        1.0  0.28510  0.31139  0.25188  1.0000 -0.2153962229
C   C3        1.0  0.71490  0.31139  0.74812  1.0000 -0.2149553274
C   C4        1.0  0.28510  0.68861  0.74812  1.0000 -0.2153962229
C   C5        1.0  0.68861  0.74812  0.28510  1.0000 -0.2149553274
C   C6        1.0  0.31139  0.74812  0.71490  1.0000 -0.2153962229
C   C7        1.0  0.31139  0.25188  0.28510  1.0000 -0.2153962229
C   C8        1.0  0.68861  0.25188  0.71490  1.0000 -0.2153962229
C   C9        1.0  0.74812  0.71490  0.31139  1.0000 -0.2149553274
C   C10       1.0  0.74812  0.28510  0.68861  1.0000 -0.2149553274
C   C11       1.0  0.25188  0.71490  0.68861  1.0000 -0.2153962229
C   C12       1.0  0.25188  0.28510  0.31139  1.0000 -0.2153962229
C   C13       1.0  0.81139  0.78510  0.75188  1.0000 -0.2149553274
C   C14       1.0  0.18861  0.21490  0.75188  1.0000 -0.2153962229
C   C15       1.0  0.18861  0.78510  0.24812  1.0000 -0.2153962229
C   C16       1.0  0.81139  0.21490  0.24812  1.0000 -0.2149553274
C   C17       1.0  0.75188  0.81139  0.78510  1.0000 -0.2153962229
C   C18       1.0  0.75188  0.18861  0.21490  1.0000 -0.2149553274
C   C19       1.0  0.24812  0.18861  0.78510  1.0000 -0.2153962229
C   C20       1.0  0.24812  0.81139  0.21490  1.0000 -0.2153962229
C   C21       1.0  0.78510  0.75188  0.81139  1.0000 -0.2153962229
C   C22       1.0  0.21490  0.75188  0.18861  1.0000 -0.2153962229
C   C23       1.0  0.78510  0.24812  0.18861  1.0000 -0.2149553274
C   C24       1.0  0.21490  0.24812  0.81139  1.0000 -0.2153962229
C   C25       1.0  0.68736  0.72000  0.25430  1.0000 0.0916360472
C   C26       1.0  0.31264  0.28000  0.25430  1.0000 0.0916360472
C   C27       1.0  0.68736  0.28000  0.74570  1.0000 0.0916360472
C   C28       1.0  0.31264  0.72000  0.74570  1.0000 0.0916360472
C   C29       1.0  0.72000  0.74570  0.31264  1.0000 0.0916360472
C   C30       1.0  0.28000  0.74570  0.68736  1.0000 0.0916360472
C   C31       1.0  0.28000  0.25430  0.31264  1.0000 0.0916360472
C   C32       1.0  0.72000  0.25430  0.68736  1.0000 0.0916360472
C   C33       1.0  0.74570  0.68736  0.28000  1.0000 0.0916360472
C   C34       1.0  0.74570  0.31264  0.72000  1.0000 0.0916360472
C   C35       1.0  0.25430  0.68736  0.72000  1.0000 0.0916360472
C   C36       1.0  0.25430  0.31264  0.28000  1.0000 0.0916360472
C   C37       1.0  0.78000  0.81264  0.75430  1.0000 0.0916360472
C   C38       1.0  0.22000  0.18736  0.75430  1.0000 0.0916360472
C   C39       1.0  0.22000  0.81264  0.24570  1.0000 0.0916360472
C   C40       1.0  0.78000  0.18736  0.24570  1.0000 0.0916360472
C   C41       1.0  0.75430  0.78000  0.81264  1.0000 0.0916360472
C   C42       1.0  0.75430  0.22000  0.18736  1.0000 0.0916360472
C   C43       1.0  0.24570  0.22000  0.81264  1.0000 0.0916360472
C   C44       1.0  0.24570  0.78000  0.18736  1.0000 0.0916360472
C   C45       1.0  0.81264  0.75430  0.78000  1.0000 0.0916360472
C   C46       1.0  0.18736  0.75430  0.22000  1.0000 0.0916360472
C   C47       1.0  0.81264  0.24570  0.22000  1.0000 0.0916360472
C   C48       1.0  0.18736  0.24570  0.78000  1.0000 0.0916360472
C   C49       1.0  0.65742  0.72170  0.22034  1.0000 0.0603733386
C   C50       1.0  0.34258  0.27830  0.22034  1.0000 0.0603733386
C   C51       1.0  0.65742  0.27830  0.77966  1.0000 0.0603733386
C   C52       1.0  0.34258  0.72170  0.77966  1.0000 0.0603733386
C   C53       1.0  0.72170  0.77966  0.34258  1.0000 0.0603733386
C   C54       1.0  0.27830  0.77966  0.65742  1.0000 0.0603733386
C   C55       1.0  0.27830  0.22034  0.34258  1.0000 0.0603733386
C   C56       1.0  0.72170  0.22034  0.65742  1.0000 0.0603733386
C   C57       1.0  0.77966  0.65742  0.27830  1.0000 0.0603733386
C   C58       1.0  0.77966  0.34258  0.72170  1.0000 0.0603733386
C   C59       1.0  0.22034  0.65742  0.72170  1.0000 0.0603733386
C   C60       1.0  0.22034  0.34258  0.27830  1.0000 0.0603733386
C   C61       1.0  0.77830  0.84258  0.72034  1.0000 0.0603733386
C   C62       1.0  0.22170  0.15742  0.72034  1.0000 0.0603733386
C   C63       1.0  0.22170  0.84258  0.27966  1.0000 0.0603733386
C   C64       1.0  0.77830  0.15742  0.27966  1.0000 0.0603733386
C   C65       1.0  0.72034  0.77830  0.84258  1.0000 0.0603733386
C   C66       1.0  0.72034  0.22170  0.15742  1.0000 0.0603733386
C   C67       1.0  0.27966  0.22170  0.84258  1.0000 0.0603733386
C   C68       1.0  0.27966  0.77830  0.15742  1.0000 0.0603733386
C   C69       1.0  0.84258  0.72034  0.77830  1.0000 0.0603733386
C   C70       1.0  0.15742  0.72034  0.22170  1.0000 0.0603733386
C   C71       1.0  0.84258  0.27966  0.22170  1.0000 0.0603733386
C   C72       1.0  0.15742  0.27966  0.77830  1.0000 0.0603733386
C   C73       1.0  0.64387  0.68718  0.20120  1.0000 -0.1522914984
C   C74       1.0  0.35613  0.31282  0.20120  1.0000 -0.1522914984
C   C75       1.0  0.64387  0.31282  0.79880  1.0000 -0.1522914984
C   C76       1.0  0.35613  0.68718  0.79880  1.0000 -0.1522914984
C   C77       1.0  0.68718  0.79880  0.35613  1.0000 -0.1522914984
C   C78       1.0  0.31282  0.79880  0.64387  1.0000 -0.1522914984
C   C79       1.0  0.31282  0.20120  0.35613  1.0000 -0.1522914984
C   C80       1.0  0.68718  0.20120  0.64387  1.0000 -0.1522914984
C   C81       1.0  0.79880  0.64387  0.31282  1.0000 -0.1522914984
C   C82       1.0  0.79880  0.35613  0.68718  1.0000 -0.1522914984
C   C83       1.0  0.20120  0.64387  0.68718  1.0000 -0.1522914984
C   C84       1.0  0.20120  0.35613  0.31282  1.0000 -0.1522914984
C   C85       1.0  0.81282  0.85613  0.70120  1.0000 -0.1522914984
C   C86       1.0  0.18718  0.14387  0.70120  1.0000 -0.1522914984
C   C87       1.0  0.18718  0.85613  0.29880  1.0000 -0.1522914984
C   C88       1.0  0.81282  0.14387  0.29880  1.0000 -0.1522914984
C   C89       1.0  0.70120  0.81282  0.85613  1.0000 -0.1522914984
C   C90       1.0  0.70120  0.18718  0.14387  1.0000 -0.1522914984
C   C91       1.0  0.29880  0.18718  0.85613  1.0000 -0.1522914984
C   C92       1.0  0.29880  0.81282  0.14387  1.0000 -0.1522914984
C   C93       1.0  0.85613  0.70120  0.81282  1.0000 -0.1522914984
C   C94       1.0  0.14387  0.70120  0.18718  1.0000 -0.1522914984
C   C95       1.0  0.85613  0.29880  0.18718  1.0000 -0.1522914984
C   C96       1.0  0.14387  0.29880  0.81282  1.0000 -0.1522914984
C   C97       1.0  0.61867  0.69022  0.16811  1.0000 -0.1522914984
C   C98       1.0  0.38133  0.30978  0.16811  1.0000 -0.1522914984
C   C99       1.0  0.61867  0.30978  0.83189  1.0000 -0.1522914984
C   C100      1.0  0.38133  0.69022  0.83189  1.0000 -0.1522914984
C   C101      1.0  0.69022  0.83189  0.38133  1.0000 -0.1522914984
C   C102      1.0  0.30978  0.83189  0.61867  1.0000 -0.1522914984
C   C103      1.0  0.30978  0.16811  0.38133  1.0000 -0.1522914984
C   C104      1.0  0.69022  0.16811  0.61867  1.0000 -0.1522914984
C   C105      1.0  0.83189  0.61867  0.30978  1.0000 -0.1522914984
C   C106      1.0  0.83189  0.38133  0.69022  1.0000 -0.1522914984
C   C107      1.0  0.16811  0.61867  0.69022  1.0000 -0.1522914984
C   C108      1.0  0.16811  0.38133  0.30978  1.0000 -0.1522914984
C   C109      1.0  0.80978  0.88133  0.66811  1.0000 -0.1522914984
C   C110      1.0  0.19022  0.11867  0.66811  1.0000 -0.1522914984
C   C111      1.0  0.19022  0.88133  0.33189  1.0000 -0.1522914984
C   C112      1.0  0.80978  0.11867  0.33189  1.0000 -0.1522914984
C   C113      1.0  0.66811  0.80978  0.88133  1.0000 -0.1522914984
C   C114      1.0  0.66811  0.19022  0.11867  1.0000 -0.1522914984
C   C115      1.0  0.33189  0.19022  0.88133  1.0000 -0.1522914984
C   C116      1.0  0.33189  0.80978  0.11867  1.0000 -0.1522914984
C   C117      1.0  0.88133  0.66811  0.80978  1.0000 -0.1522914984
C   C118      1.0  0.11867  0.66811  0.19022  1.0000 -0.1522914984
C   C119      1.0  0.88133  0.33189  0.19022  1.0000 -0.1522914984
C   C120      1.0  0.11867  0.33189  0.80978  1.0000 -0.1522914984
C   C121      1.0  0.60702  0.72780  0.15415  1.0000 0.0916360472
C   C122      1.0  0.39298  0.27220  0.15415  1.0000 0.0916360472
C   C123      1.0  0.60702  0.27220  0.84585  1.0000 0.0916360472
C   C124      1.0  0.39298  0.72780  0.84585  1.0000 0.0916360472
C   C125      1.0  0.72780  0.84585  0.39298  1.0000 0.0916360472
C   C126      1.0  0.27220  0.84585  0.60702  1.0000 0.0916360472
C   C127      1.0  0.27220  0.15415  0.39298  1.0000 0.0916360472
C   C128      1.0  0.72780  0.15415  0.60702  1.0000 0.0916360472
C   C129      1.0  0.84585  0.60702  0.27220  1.0000 0.0916360472
C   C130      1.0  0.84585  0.39298  0.72780  1.0000 0.0916360472
C   C131      1.0  0.15415  0.60702  0.72780  1.0000 0.0916360472
C   C132      1.0  0.15415  0.39298  0.27220  1.0000 0.0916360472
C   C133      1.0  0.77220  0.89298  0.65415  1.0000 0.0916360472
C   C134      1.0  0.22780  0.10702  0.65415  1.0000 0.0916360472
C   C135      1.0  0.22780  0.89298  0.34585  1.0000 0.0916360472
C   C136      1.0  0.77220  0.10702  0.34585  1.0000 0.0916360472
C   C137      1.0  0.65415  0.77220  0.89298  1.0000 0.0916360472
C   C138      1.0  0.65415  0.22780  0.10702  1.0000 0.0916360472
C   C139      1.0  0.34585  0.22780  0.89298  1.0000 0.0916360472
C   C140      1.0  0.34585  0.77220  0.10702  1.0000 0.0916360472
C   C141      1.0  0.89298  0.65415  0.77220  1.0000 0.0916360472
C   C142      1.0  0.10702  0.65415  0.22780  1.0000 0.0916360472
C   C143      1.0  0.89298  0.34585  0.22780  1.0000 0.0916360472
C   C144      1.0  0.10702  0.34585  0.77220  1.0000 0.0916360472
C   C145      1.0  0.62057  0.76225  0.17330  1.0000 -0.159102795
C   C146      1.0  0.37943  0.23775  0.17330  1.0000 -0.159102795
C   C147      1.0  0.62057  0.23775  0.82670  1.0000 -0.159102795
C   C148      1.0  0.37943  0.76225  0.82670  1.0000 -0.159102795
C   C149      1.0  0.76225  0.82670  0.37943  1.0000 -0.159102795
C   C150      1.0  0.23775  0.82670  0.62057  1.0000 -0.159102795
C   C151      1.0  0.23775  0.17330  0.37943  1.0000 -0.159102795
C   C152      1.0  0.76225  0.17330  0.62057  1.0000 -0.159102795
C   C153      1.0  0.82670  0.62057  0.23775  1.0000 -0.159102795
C   C154      1.0  0.82670  0.37943  0.76225  1.0000 -0.159102795
C   C155      1.0  0.17330  0.62057  0.76225  1.0000 -0.159102795
C   C156      1.0  0.17330  0.37943  0.23775  1.0000 -0.159102795
C   C157      1.0  0.73775  0.87943  0.67330  1.0000 -0.159102795
C   C158      1.0  0.26225  0.12057  0.67330  1.0000 -0.159102795
C   C159      1.0  0.26225  0.87943  0.32670  1.0000 -0.159102795
C   C160      1.0  0.73775  0.12057  0.32670  1.0000 -0.159102795
C   C161      1.0  0.67330  0.73775  0.87943  1.0000 -0.159102795
C   C162      1.0  0.67330  0.26225  0.12057  1.0000 -0.159102795
C   C163      1.0  0.32670  0.26225  0.87943  1.0000 -0.159102795
C   C164      1.0  0.32670  0.73775  0.12057  1.0000 -0.159102795
C   C165      1.0  0.87943  0.67330  0.73775  1.0000 -0.159102795
C   C166      1.0  0.12057  0.67330  0.26225  1.0000 -0.159102795
C   C167      1.0  0.87943  0.32670  0.26225  1.0000 -0.159102795
C   C168      1.0  0.12057  0.32670  0.73775  1.0000 -0.159102795
C   C169      1.0  0.64577  0.75921  0.20637  1.0000 -0.1522914984
C   C170      1.0  0.35423  0.24079  0.20637  1.0000 -0.1522914984
C   C171      1.0  0.64577  0.24079  0.79363  1.0000 -0.1522914984
C   C172      1.0  0.35423  0.75921  0.79363  1.0000 -0.1522914984
C   C173      1.0  0.75921  0.79363  0.35423  1.0000 -0.1522914984
C   C174      1.0  0.24079  0.79363  0.64577  1.0000 -0.1522914984
C   C175      1.0  0.24079  0.20637  0.35423  1.0000 -0.1522914984
C   C176      1.0  0.75921  0.20637  0.64577  1.0000 -0.1522914984
C   C177      1.0  0.79363  0.64577  0.24079  1.0000 -0.1522914984
C   C178      1.0  0.79363  0.35423  0.75921  1.0000 -0.1522914984
C   C179      1.0  0.20637  0.64577  0.75921  1.0000 -0.1522914984
C   C180      1.0  0.20637  0.35423  0.24079  1.0000 -0.1522914984
C   C181      1.0  0.74079  0.85423  0.70637  1.0000 -0.1522914984
C   C182      1.0  0.25921  0.14577  0.70637  1.0000 -0.1522914984
C   C183      1.0  0.25921  0.85423  0.29363  1.0000 -0.1522914984
C   C184      1.0  0.74079  0.14577  0.29363  1.0000 -0.1522914984
C   C185      1.0  0.70637  0.74079  0.85423  1.0000 -0.1522914984
C   C186      1.0  0.70637  0.25921  0.14577  1.0000 -0.1522914984
C   C187      1.0  0.29363  0.25921  0.85423  1.0000 -0.1522914984
C   C188      1.0  0.29363  0.74079  0.14577  1.0000 -0.1522914984
C   C189      1.0  0.85423  0.70637  0.74079  1.0000 -0.1522914984
C   C190      1.0  0.14577  0.70637  0.25921  1.0000 -0.1522914984
C   C191      1.0  0.85423  0.29363  0.25921  1.0000 -0.1522914984
C   C192      1.0  0.14577  0.29363  0.74079  1.0000 -0.1522914984
C   C193      1.0  0.58130  0.72780  0.11730  1.0000 -0.0831121001
C   C194      1.0  0.41870  0.27220  0.11730  1.0000 -0.0831121001
C   C195      1.0  0.58130  0.27220  0.88270  1.0000 -0.0831121001
C   C196      1.0  0.41870  0.72780  0.88270  1.0000 -0.0831121001
C   C197      1.0  0.72780  0.88270  0.41870  1.0000 -0.0831121001
C   C198      1.0  0.27220  0.88270  0.58130  1.0000 -0.0831121001
C   C199      1.0  0.27220  0.11730  0.41870  1.0000 -0.0831121001
C   C200      1.0  0.72780  0.11730  0.58130  1.0000 -0.0831121001
C   C201      1.0  0.88270  0.58130  0.27220  1.0000 -0.0831121001
C   C202      1.0  0.88270  0.41870  0.72780  1.0000 -0.0831121001
C   C203      1.0  0.11730  0.58130  0.72780  1.0000 -0.0831121001
C   C204      1.0  0.11730  0.41870  0.27220  1.0000 -0.0831121001
C   C205      1.0  0.77220  0.91870  0.61730  1.0000 -0.0831121001
C   C206      1.0  0.22780  0.08130  0.61730  1.0000 -0.0831121001
C   C207      1.0  0.22780  0.91870  0.38270  1.0000 -0.0831121001
C   C208      1.0  0.77220  0.08130  0.38270  1.0000 -0.0831121001
C   C209      1.0  0.61730  0.77220  0.91870  1.0000 -0.0831121001
C   C210      1.0  0.61730  0.22780  0.08130  1.0000 -0.0831121001
C   C211      1.0  0.38270  0.22780  0.91870  1.0000 -0.0831121001
C   C212      1.0  0.38270  0.77220  0.08130  1.0000 -0.0831121001
C   C213      1.0  0.91870  0.61730  0.77220  1.0000 -0.0831121001
C   C214      1.0  0.08130  0.61730  0.22780  1.0000 -0.0831121001
C   C215      1.0  0.91870  0.38270  0.22780  1.0000 -0.0831121001
C   C216      1.0  0.08130  0.38270  0.77220  1.0000 -0.0831121001
C   C217      1.0  0.56780  0.75660  0.09866  1.0000 -0.1522914984
C   C218      1.0  0.43220  0.24340  0.09866  1.0000 -0.1522914984
C   C219      1.0  0.56780  0.24340  0.90134  1.0000 -0.1522914984
C   C220      1.0  0.43220  0.75660  0.90134  1.0000 -0.1522914984
C   C221      1.0  0.75660  0.90134  0.43220  1.0000 -0.1522914984
C   C222      1.0  0.24340  0.90134  0.56780  1.0000 -0.1522914984
C   C223      1.0  0.24340  0.09866  0.43220  1.0000 -0.1522914984
C   C224      1.0  0.75660  0.09866  0.56780  1.0000 -0.1522914984
C   C225      1.0  0.90134  0.56780  0.24340  1.0000 -0.1522914984
C   C226      1.0  0.90134  0.43220  0.75660  1.0000 -0.1522914984
C   C227      1.0  0.09866  0.56780  0.75660  1.0000 -0.1522914984
C   C228      1.0  0.09866  0.43220  0.24340  1.0000 -0.1522914984
C   C229      1.0  0.74340  0.93220  0.59866  1.0000 -0.1522914984
C   C230      1.0  0.25660  0.06780  0.59866  1.0000 -0.1522914984
C   C231      1.0  0.25660  0.93220  0.40134  1.0000 -0.1522914984
C   C232      1.0  0.74340  0.06780  0.40134  1.0000 -0.1522914984
C   C233      1.0  0.59866  0.74340  0.93220  1.0000 -0.1522914984
C   C234      1.0  0.59866  0.25660  0.06780  1.0000 -0.1522914984
C   C235      1.0  0.40134  0.25660  0.93220  1.0000 -0.1522914984
C   C236      1.0  0.40134  0.74340  0.06780  1.0000 -0.1522914984
C   C237      1.0  0.93220  0.59866  0.74340  1.0000 -0.1522914984
C   C238      1.0  0.06780  0.59866  0.25660  1.0000 -0.1522914984
C   C239      1.0  0.93220  0.40134  0.25660  1.0000 -0.1522914984
C   C240      1.0  0.06780  0.40134  0.74340  1.0000 -0.1522914984
C   C241      1.0  0.54100  0.75390  0.05990  1.0000 0.6140302624
C   C242      1.0  0.45900  0.24610  0.05990  1.0000 0.6180936172
C   C243      1.0  0.54100  0.24610  0.94010  1.0000 0.6180936172
C   C244      1.0  0.45900  0.75390  0.94010  1.0000 0.6180936172
C   C245      1.0  0.75390  0.94010  0.45900  1.0000 0.6180936172
C   C246      1.0  0.24610  0.94010  0.54100  1.0000 0.6180936172
C   C247      1.0  0.24610  0.05990  0.45900  1.0000 0.6180936172
C   C248      1.0  0.75390  0.05990  0.54100  1.0000 0.6140302624
C   C249      1.0  0.94010  0.54100  0.24610  1.0000 0.6180936172
C   C250      1.0  0.94010  0.45900  0.75390  1.0000 0.6180936172
C   C251      1.0  0.05990  0.54100  0.75390  1.0000 0.6180936172
C   C252      1.0  0.05990  0.45900  0.24610  1.0000 0.6180936172
C   C253      1.0  0.74610  0.95900  0.55990  1.0000 0.6180936172
C   C254      1.0  0.25390  0.04100  0.55990  1.0000 0.6180936172
C   C255      1.0  0.25390  0.95900  0.44010  1.0000 0.6180936172
C   C256      1.0  0.74610  0.04100  0.44010  1.0000 0.6180936172
C   C257      1.0  0.55990  0.74610  0.95900  1.0000 0.6180936172
C   C258      1.0  0.55990  0.25390  0.04100  1.0000 0.6180936172
C   C259      1.0  0.44010  0.25390  0.95900  1.0000 0.6180936172
C   C260      1.0  0.44010  0.74610  0.04100  1.0000 0.6180936172
C   C261      1.0  0.95900  0.55990  0.74610  1.0000 0.6180936172
C   C262      1.0  0.04100  0.55990  0.25390  1.0000 0.6180936172
C   C263      1.0  0.95900  0.44010  0.25390  1.0000 0.6180936172
C   C264      1.0  0.04100  0.44010  0.74610  1.0000 0.6180936172
C   C265      1.0  0.68861  0.71490  0.74812  1.0000 -0.2153962229
C   C266      1.0  0.31139  0.28510  0.74812  1.0000 -0.2153962229
C   C267      1.0  0.31139  0.71490  0.25188  1.0000 -0.2153962229
C   C268      1.0  0.68861  0.28510  0.25188  1.0000 -0.2149553274
C   C269      1.0  0.74812  0.68861  0.71490  1.0000 -0.2149553274
C   C270      1.0  0.74812  0.31139  0.28510  1.0000 -0.2149553274
C   C271      1.0  0.25188  0.31139  0.71490  1.0000 -0.2153962229
C   C272      1.0  0.25188  0.68861  0.28510  1.0000 -0.2153962229
C   C273      1.0  0.71490  0.74812  0.68861  1.0000 -0.2153962229
C   C274      1.0  0.28510  0.74812  0.31139  1.0000 -0.2153962229
C   C275      1.0  0.71490  0.25188  0.31139  1.0000 -0.2149553274
C   C276      1.0  0.28510  0.25188  0.68861  1.0000 -0.2153962229
C   C277      1.0  0.78510  0.81139  0.24812  1.0000 -0.2149553274
C   C278      1.0  0.21490  0.18861  0.24812  1.0000 -0.2153962229
C   C279      1.0  0.78510  0.18861  0.75188  1.0000 -0.2149553274
C   C280      1.0  0.21490  0.81139  0.75188  1.0000 -0.2153962229
C   C281      1.0  0.81139  0.75188  0.21490  1.0000 -0.2149553274
C   C282      1.0  0.18861  0.75188  0.78510  1.0000 -0.2153962229
C   C283      1.0  0.18861  0.24812  0.21490  1.0000 -0.2153962229
C   C284      1.0  0.81139  0.24812  0.78510  1.0000 -0.2149553274
C   C285      1.0  0.75188  0.78510  0.18861  1.0000 -0.2149553274
C   C286      1.0  0.75188  0.21490  0.81139  1.0000 -0.2153962229
C   C287      1.0  0.24812  0.78510  0.81139  1.0000 -0.2153962229
C   C288      1.0  0.24812  0.21490  0.18861  1.0000 -0.2153962229
C   C289      1.0  0.72000  0.68736  0.74570  1.0000 0.0916360472
C   C290      1.0  0.28000  0.31264  0.74570  1.0000 0.0916360472
C   C291      1.0  0.28000  0.68736  0.25430  1.0000 0.0916360472
C   C292      1.0  0.72000  0.31264  0.25430  1.0000 0.0916360472
C   C293      1.0  0.74570  0.72000  0.68736  1.0000 0.0916360472
C   C294      1.0  0.74570  0.28000  0.31264  1.0000 0.0916360472
C   C295      1.0  0.25430  0.28000  0.68736  1.0000 0.0916360472
C   C296      1.0  0.25430  0.72000  0.31264  1.0000 0.0916360472
C   C297      1.0  0.68736  0.74570  0.72000  1.0000 0.0916360472
C   C298      1.0  0.31264  0.74570  0.28000  1.0000 0.0916360472
C   C299      1.0  0.68736  0.25430  0.28000  1.0000 0.0916360472
C   C300      1.0  0.31264  0.25430  0.72000  1.0000 0.0916360472
C   C301      1.0  0.81264  0.78000  0.24570  1.0000 0.0916360472
C   C302      1.0  0.18736  0.22000  0.24570  1.0000 0.0916360472
C   C303      1.0  0.81264  0.22000  0.75430  1.0000 0.0916360472
C   C304      1.0  0.18736  0.78000  0.75430  1.0000 0.0916360472
C   C305      1.0  0.78000  0.75430  0.18736  1.0000 0.0916360472
C   C306      1.0  0.22000  0.75430  0.81264  1.0000 0.0916360472
C   C307      1.0  0.22000  0.24570  0.18736  1.0000 0.0916360472
C   C308      1.0  0.78000  0.24570  0.81264  1.0000 0.0916360472
C   C309      1.0  0.75430  0.81264  0.22000  1.0000 0.0916360472
C   C310      1.0  0.75430  0.18736  0.78000  1.0000 0.0916360472
C   C311      1.0  0.24570  0.81264  0.78000  1.0000 0.0916360472
C   C312      1.0  0.24570  0.18736  0.22000  1.0000 0.0916360472
C   C313      1.0  0.72170  0.65742  0.77966  1.0000 0.0603733386
C   C314      1.0  0.27830  0.34258  0.77966  1.0000 0.0603733386
C   C315      1.0  0.27830  0.65742  0.22034  1.0000 0.0603733386
C   C316      1.0  0.72170  0.34258  0.22034  1.0000 0.0603733386
C   C317      1.0  0.77966  0.72170  0.65742  1.0000 0.0603733386
C   C318      1.0  0.77966  0.27830  0.34258  1.0000 0.0603733386
C   C319      1.0  0.22034  0.27830  0.65742  1.0000 0.0603733386
C   C320      1.0  0.22034  0.72170  0.34258  1.0000 0.0603733386
C   C321      1.0  0.65742  0.77966  0.72170  1.0000 0.0603733386
C   C322      1.0  0.34258  0.77966  0.27830  1.0000 0.0603733386
C   C323      1.0  0.65742  0.22034  0.27830  1.0000 0.0603733386
C   C324      1.0  0.34258  0.22034  0.72170  1.0000 0.0603733386
C   C325      1.0  0.84258  0.77830  0.27966  1.0000 0.0603733386
C   C326      1.0  0.15742  0.22170  0.27966  1.0000 0.0603733386
C   C327      1.0  0.84258  0.22170  0.72034  1.0000 0.0603733386
C   C328      1.0  0.15742  0.77830  0.72034  1.0000 0.0603733386
C   C329      1.0  0.77830  0.72034  0.15742  1.0000 0.0603733386
C   C330      1.0  0.22170  0.72034  0.84258  1.0000 0.0603733386
C   C331      1.0  0.22170  0.27966  0.15742  1.0000 0.0603733386
C   C332      1.0  0.77830  0.27966  0.84258  1.0000 0.0603733386
C   C333      1.0  0.72034  0.84258  0.22170  1.0000 0.0603733386
C   C334      1.0  0.72034  0.15742  0.77830  1.0000 0.0603733386
C   C335      1.0  0.27966  0.84258  0.77830  1.0000 0.0603733386
C   C336      1.0  0.27966  0.15742  0.22170  1.0000 0.0603733386
C   C337      1.0  0.68718  0.64387  0.79880  1.0000 -0.1522914984
C   C338      1.0  0.31282  0.35613  0.79880  1.0000 -0.1522914984
C   C339      1.0  0.31282  0.64387  0.20120  1.0000 -0.1522914984
C   C340      1.0  0.68718  0.35613  0.20120  1.0000 -0.1522914984
C   C341      1.0  0.79880  0.68718  0.64387  1.0000 -0.1522914984
C   C342      1.0  0.79880  0.31282  0.35613  1.0000 -0.1522914984
C   C343      1.0  0.20120  0.31282  0.64387  1.0000 -0.1522914984
C   C344      1.0  0.20120  0.68718  0.35613  1.0000 -0.1522914984
C   C345      1.0  0.64387  0.79880  0.68718  1.0000 -0.1522914984
C   C346      1.0  0.35613  0.79880  0.31282  1.0000 -0.1522914984
C   C347      1.0  0.64387  0.20120  0.31282  1.0000 -0.1522914984
C   C348      1.0  0.35613  0.20120  0.68718  1.0000 -0.1522914984
C   C349      1.0  0.85613  0.81282  0.29880  1.0000 -0.1522914984
C   C350      1.0  0.14387  0.18718  0.29880  1.0000 -0.1522914984
C   C351      1.0  0.85613  0.18718  0.70120  1.0000 -0.1522914984
C   C352      1.0  0.14387  0.81282  0.70120  1.0000 -0.1522914984
C   C353      1.0  0.81282  0.70120  0.14387  1.0000 -0.1522914984
C   C354      1.0  0.18718  0.70120  0.85613  1.0000 -0.1522914984
C   C355      1.0  0.18718  0.29880  0.14387  1.0000 -0.1522914984
C   C356      1.0  0.81282  0.29880  0.85613  1.0000 -0.1522914984
C   C357      1.0  0.70120  0.85613  0.18718  1.0000 -0.1522914984
C   C358      1.0  0.70120  0.14387  0.81282  1.0000 -0.1522914984
C   C359      1.0  0.29880  0.85613  0.81282  1.0000 -0.1522914984
C   C360      1.0  0.29880  0.14387  0.18718  1.0000 -0.1522914984
C   C361      1.0  0.69022  0.61867  0.83189  1.0000 -0.1522914984
C   C362      1.0  0.30978  0.38133  0.83189  1.0000 -0.1522914984
C   C363      1.0  0.30978  0.61867  0.16811  1.0000 -0.1522914984
C   C364      1.0  0.69022  0.38133  0.16811  1.0000 -0.1522914984
C   C365      1.0  0.83189  0.69022  0.61867  1.0000 -0.1522914984
C   C366      1.0  0.83189  0.30978  0.38133  1.0000 -0.1522914984
C   C367      1.0  0.16811  0.30978  0.61867  1.0000 -0.1522914984
C   C368      1.0  0.16811  0.69022  0.38133  1.0000 -0.1522914984
C   C369      1.0  0.61867  0.83189  0.69022  1.0000 -0.1522914984
C   C370      1.0  0.38133  0.83189  0.30978  1.0000 -0.1522914984
C   C371      1.0  0.61867  0.16811  0.30978  1.0000 -0.1522914984
C   C372      1.0  0.38133  0.16811  0.69022  1.0000 -0.1522914984
C   C373      1.0  0.88133  0.80978  0.33189  1.0000 -0.1522914984
C   C374      1.0  0.11867  0.19022  0.33189  1.0000 -0.1522914984
C   C375      1.0  0.88133  0.19022  0.66811  1.0000 -0.1522914984
C   C376      1.0  0.11867  0.80978  0.66811  1.0000 -0.1522914984
C   C377      1.0  0.80978  0.66811  0.11867  1.0000 -0.1522914984
C   C378      1.0  0.19022  0.66811  0.88133  1.0000 -0.1522914984
C   C379      1.0  0.19022  0.33189  0.11867  1.0000 -0.1522914984
C   C380      1.0  0.80978  0.33189  0.88133  1.0000 -0.1522914984
C   C381      1.0  0.66811  0.88133  0.19022  1.0000 -0.1522914984
C   C382      1.0  0.66811  0.11867  0.80978  1.0000 -0.1522914984
C   C383      1.0  0.33189  0.88133  0.80978  1.0000 -0.1522914984
C   C384      1.0  0.33189  0.11867  0.19022  1.0000 -0.1522914984
C   C385      1.0  0.72780  0.60702  0.84585  1.0000 0.0916360472
C   C386      1.0  0.27220  0.39298  0.84585  1.0000 0.0916360472
C   C387      1.0  0.27220  0.60702  0.15415  1.0000 0.0916360472
C   C388      1.0  0.72780  0.39298  0.15415  1.0000 0.0916360472
C   C389      1.0  0.84585  0.72780  0.60702  1.0000 0.0916360472
C   C390      1.0  0.84585  0.27220  0.39298  1.0000 0.0916360472
C   C391      1.0  0.15415  0.27220  0.60702  1.0000 0.0916360472
C   C392      1.0  0.15415  0.72780  0.39298  1.0000 0.0916360472
C   C393      1.0  0.60702  0.84585  0.72780  1.0000 0.0916360472
C   C394      1.0  0.39298  0.84585  0.27220  1.0000 0.0916360472
C   C395      1.0  0.60702  0.15415  0.27220  1.0000 0.0916360472
C   C396      1.0  0.39298  0.15415  0.72780  1.0000 0.0916360472
C   C397      1.0  0.89298  0.77220  0.34585  1.0000 0.0916360472
C   C398      1.0  0.10702  0.22780  0.34585  1.0000 0.0916360472
C   C399      1.0  0.89298  0.22780  0.65415  1.0000 0.0916360472
C   C400      1.0  0.10702  0.77220  0.65415  1.0000 0.0916360472
C   C401      1.0  0.77220  0.65415  0.10702  1.0000 0.0916360472
C   C402      1.0  0.22780  0.65415  0.89298  1.0000 0.0916360472
C   C403      1.0  0.22780  0.34585  0.10702  1.0000 0.0916360472
C   C404      1.0  0.77220  0.34585  0.89298  1.0000 0.0916360472
C   C405      1.0  0.65415  0.89298  0.22780  1.0000 0.0916360472
C   C406      1.0  0.65415  0.10702  0.77220  1.0000 0.0916360472
C   C407      1.0  0.34585  0.89298  0.77220  1.0000 0.0916360472
C   C408      1.0  0.34585  0.10702  0.22780  1.0000 0.0916360472
C   C409      1.0  0.76225  0.62057  0.82670  1.0000 -0.159102795
C   C410      1.0  0.23775  0.37943  0.82670  1.0000 -0.159102795
C   C411      1.0  0.23775  0.62057  0.17330  1.0000 -0.159102795
C   C412      1.0  0.76225  0.37943  0.17330  1.0000 -0.159102795
C   C413      1.0  0.82670  0.76225  0.62057  1.0000 -0.159102795
C   C414      1.0  0.82670  0.23775  0.37943  1.0000 -0.159102795
C   C415      1.0  0.17330  0.23775  0.62057  1.0000 -0.159102795
C   C416      1.0  0.17330  0.76225  0.37943  1.0000 -0.159102795
C   C417      1.0  0.62057  0.82670  0.76225  1.0000 -0.159102795
C   C418      1.0  0.37943  0.82670  0.23775  1.0000 -0.159102795
C   C419      1.0  0.62057  0.17330  0.23775  1.0000 -0.159102795
C   C420      1.0  0.37943  0.17330  0.76225  1.0000 -0.159102795
C   C421      1.0  0.87943  0.73775  0.32670  1.0000 -0.159102795
C   C422      1.0  0.12057  0.26225  0.32670  1.0000 -0.159102795
C   C423      1.0  0.87943  0.26225  0.67330  1.0000 -0.159102795
C   C424      1.0  0.12057  0.73775  0.67330  1.0000 -0.159102795
C   C425      1.0  0.73775  0.67330  0.12057  1.0000 -0.159102795
C   C426      1.0  0.26225  0.67330  0.87943  1.0000 -0.159102795
C   C427      1.0  0.26225  0.32670  0.12057  1.0000 -0.159102795
C   C428      1.0  0.73775  0.32670  0.87943  1.0000 -0.159102795
C   C429      1.0  0.67330  0.87943  0.26225  1.0000 -0.159102795
C   C430      1.0  0.67330  0.12057  0.73775  1.0000 -0.159102795
C   C431      1.0  0.32670  0.87943  0.73775  1.0000 -0.159102795
C   C432      1.0  0.32670  0.12057  0.26225  1.0000 -0.159102795
C   C433      1.0  0.75921  0.64577  0.79363  1.0000 -0.1522914984
C   C434      1.0  0.24079  0.35423  0.79363  1.0000 -0.1522914984
C   C435      1.0  0.24079  0.64577  0.20637  1.0000 -0.1522914984
C   C436      1.0  0.75921  0.35423  0.20637  1.0000 -0.1522914984
C   C437      1.0  0.79363  0.75921  0.64577  1.0000 -0.1522914984
C   C438      1.0  0.79363  0.24079  0.35423  1.0000 -0.1522914984
C   C439      1.0  0.20637  0.24079  0.64577  1.0000 -0.1522914984
C   C440      1.0  0.20637  0.75921  0.35423  1.0000 -0.1522914984
C   C441      1.0  0.64577  0.79363  0.75921  1.0000 -0.1522914984
C   C442      1.0  0.35423  0.79363  0.24079  1.0000 -0.1522914984
C   C443      1.0  0.64577  0.20637  0.24079  1.0000 -0.1522914984
C   C444      1.0  0.35423  0.20637  0.75921  1.0000 -0.1522914984
C   C445      1.0  0.85423  0.74079  0.29363  1.0000 -0.1522914984
C   C446      1.0  0.14577  0.25921  0.29363  1.0000 -0.1522914984
C   C447      1.0  0.85423  0.25921  0.70637  1.0000 -0.1522914984
C   C448      1.0  0.14577  0.74079  0.70637  1.0000 -0.1522914984
C   C449      1.0  0.74079  0.70637  0.14577  1.0000 -0.1522914984
C   C450      1.0  0.25921  0.70637  0.85423  1.0000 -0.1522914984
C   C451      1.0  0.25921  0.29363  0.14577  1.0000 -0.1522914984
C   C452      1.0  0.74079  0.29363  0.85423  1.0000 -0.1522914984
C   C453      1.0  0.70637  0.85423  0.25921  1.0000 -0.1522914984
C   C454      1.0  0.70637  0.14577  0.74079  1.0000 -0.1522914984
C   C455      1.0  0.29363  0.85423  0.74079  1.0000 -0.1522914984
C   C456      1.0  0.29363  0.14577  0.25921  1.0000 -0.1522914984
C   C457      1.0  0.72780  0.58130  0.88270  1.0000 -0.0831121001
C   C458      1.0  0.27220  0.41870  0.88270  1.0000 -0.0831121001
C   C459      1.0  0.27220  0.58130  0.11730  1.0000 -0.0831121001
C   C460      1.0  0.72780  0.41870  0.11730  1.0000 -0.0831121001
C   C461      1.0  0.88270  0.72780  0.58130  1.0000 -0.0831121001
C   C462      1.0  0.88270  0.27220  0.41870  1.0000 -0.0831121001
C   C463      1.0  0.11730  0.27220  0.58130  1.0000 -0.0831121001
C   C464      1.0  0.11730  0.72780  0.41870  1.0000 -0.0831121001
C   C465      1.0  0.58130  0.88270  0.72780  1.0000 -0.0831121001
C   C466      1.0  0.41870  0.88270  0.27220  1.0000 -0.0831121001
C   C467      1.0  0.58130  0.11730  0.27220  1.0000 -0.0831121001
C   C468      1.0  0.41870  0.11730  0.72780  1.0000 -0.0831121001
C   C469      1.0  0.91870  0.77220  0.38270  1.0000 -0.0831121001
C   C470      1.0  0.08130  0.22780  0.38270  1.0000 -0.0831121001
C   C471      1.0  0.91870  0.22780  0.61730  1.0000 -0.0831121001
C   C472      1.0  0.08130  0.77220  0.61730  1.0000 -0.0831121001
C   C473      1.0  0.77220  0.61730  0.08130  1.0000 -0.0831121001
C   C474      1.0  0.22780  0.61730  0.91870  1.0000 -0.0831121001
C   C475      1.0  0.22780  0.38270  0.08130  1.0000 -0.0831121001
C   C476      1.0  0.77220  0.38270  0.91870  1.0000 -0.0831121001
C   C477      1.0  0.61730  0.91870  0.22780  1.0000 -0.0831121001
C   C478      1.0  0.61730  0.08130  0.77220  1.0000 -0.0831121001
C   C479      1.0  0.38270  0.91870  0.77220  1.0000 -0.0831121001
C   C480      1.0  0.38270  0.08130  0.22780  1.0000 -0.0831121001
C   C481      1.0  0.75660  0.56780  0.90134  1.0000 -0.1522914984
C   C482      1.0  0.24340  0.43220  0.90134  1.0000 -0.1522914984
C   C483      1.0  0.24340  0.56780  0.09866  1.0000 -0.1522914984
C   C484      1.0  0.75660  0.43220  0.09866  1.0000 -0.1522914984
C   C485      1.0  0.90134  0.75660  0.56780  1.0000 -0.1522914984
C   C486      1.0  0.90134  0.24340  0.43220  1.0000 -0.1522914984
C   C487      1.0  0.09866  0.24340  0.56780  1.0000 -0.1522914984
C   C488      1.0  0.09866  0.75660  0.43220  1.0000 -0.1522914984
C   C489      1.0  0.56780  0.90134  0.75660  1.0000 -0.1522914984
C   C490      1.0  0.43220  0.90134  0.24340  1.0000 -0.1522914984
C   C491      1.0  0.56780  0.09866  0.24340  1.0000 -0.1522914984
C   C492      1.0  0.43220  0.09866  0.75660  1.0000 -0.1522914984
C   C493      1.0  0.93220  0.74340  0.40134  1.0000 -0.1522914984
C   C494      1.0  0.06780  0.25660  0.40134  1.0000 -0.1522914984
C   C495      1.0  0.93220  0.25660  0.59866  1.0000 -0.1522914984
C   C496      1.0  0.06780  0.74340  0.59866  1.0000 -0.1522914984
C   C497      1.0  0.74340  0.59866  0.06780  1.0000 -0.1522914984
C   C498      1.0  0.25660  0.59866  0.93220  1.0000 -0.1522914984
C   C499      1.0  0.25660  0.40134  0.06780  1.0000 -0.1522914984
C   C500      1.0  0.74340  0.40134  0.93220  1.0000 -0.1522914984
C   C501      1.0  0.59866  0.93220  0.25660  1.0000 -0.1522914984
C   C502      1.0  0.59866  0.06780  0.74340  1.0000 -0.1522914984
C   C503      1.0  0.40134  0.93220  0.74340  1.0000 -0.1522914984
C   C504      1.0  0.40134  0.06780  0.25660  1.0000 -0.1522914984
C   C505      1.0  0.75390  0.54100  0.94010  1.0000 0.6180936172
C   C506      1.0  0.24610  0.45900  0.94010  1.0000 0.6180936172
C   C507      1.0  0.24610  0.54100  0.05990  1.0000 0.6140302624
C   C508      1.0  0.75390  0.45900  0.05990  1.0000 0.6180936172
C   C509      1.0  0.94010  0.75390  0.54100  1.0000 0.6180936172
C   C510      1.0  0.94010  0.24610  0.45900  1.0000 0.6180936172
C   C511      1.0  0.05990  0.24610  0.54100  1.0000 0.6140302624
C   C512      1.0  0.05990  0.75390  0.45900  1.0000 0.6180936172
C   C513      1.0  0.54100  0.94010  0.75390  1.0000 0.6180936172
C   C514      1.0  0.45900  0.94010  0.24610  1.0000 0.6180936172
C   C515      1.0  0.54100  0.05990  0.24610  1.0000 0.6140302624
C   C516      1.0  0.45900  0.05990  0.75390  1.0000 0.6180936172
C   C517      1.0  0.95900  0.74610  0.44010  1.0000 0.6180936172
C   C518      1.0  0.04100  0.25390  0.44010  1.0000 0.6180936172
C   C519      1.0  0.95900  0.25390  0.55990  1.0000 0.6180936172
C   C520      1.0  0.04100  0.74610  0.55990  1.0000 0.6180936172
C   C521      1.0  0.74610  0.55990  0.04100  1.0000 0.6180936172
C   C522      1.0  0.25390  0.55990  0.95900  1.0000 0.6180936172
C   C523      1.0  0.25390  0.44010  0.04100  1.0000 0.6180936172
C   C524      1.0  0.74610  0.44010  0.95900  1.0000 0.6180936172
C   C525      1.0  0.55990  0.95900  0.25390  1.0000 0.6180936172
C   C526      1.0  0.55990  0.04100  0.74610  1.0000 0.6180936172
C   C527      1.0  0.44010  0.95900  0.74610  1.0000 0.6180936172
C   C528      1.0  0.44010  0.04100  0.25390  1.0000 0.6180936172
O   O1        1.0  0.53227  0.78860  0.04790  1.0000 -0.5430226502
O   O2        1.0  0.46773  0.21140  0.04790  1.0000 -0.5430226502
O   O3        1.0  0.53227  0.21140  0.95210  1.0000 -0.5430226502
O   O4        1.0  0.46773  0.78860  0.95210  1.0000 -0.5430226502
O   O5        1.0  0.78860  0.95210  0.46773  1.0000 -0.5430226502
O   O6        1.0  0.21140  0.95210  0.53227  1.0000 -0.5430226502
O   O7        1.0  0.21140  0.04790  0.46773  1.0000 -0.5430226502
O   O8        1.0  0.78860  0.04790  0.53227  1.0000 -0.5430226502
O   O9        1.0  0.95210  0.53227  0.21140  1.0000 -0.5430226502
O   O10       1.0  0.95210  0.46773  0.78860  1.0000 -0.5430226502
O   O11       1.0  0.04790  0.53227  0.78860  1.0000 -0.5430226502
O   O12       1.0  0.04790  0.46773  0.21140  1.0000 -0.5430226502
O   O13       1.0  0.71140  0.96773  0.54790  1.0000 -0.5430226502
O   O14       1.0  0.28860  0.03227  0.54790  1.0000 -0.5460359456
O   O15       1.0  0.28860  0.96773  0.45210  1.0000 -0.5430226502
O   O16       1.0  0.71140  0.03227  0.45210  1.0000 -0.5430226502
O   O17       1.0  0.54790  0.71140  0.96773  1.0000 -0.5430226502
O   O18       1.0  0.54790  0.28860  0.03227  1.0000 -0.5460359456
O   O19       1.0  0.45210  0.28860  0.96773  1.0000 -0.5460359456
O   O20       1.0  0.45210  0.71140  0.03227  1.0000 -0.5430226502
O   O21       1.0  0.96773  0.54790  0.71140  1.0000 -0.5430226502
O   O22       1.0  0.03227  0.54790  0.28860  1.0000 -0.5460359456
O   O23       1.0  0.96773  0.45210  0.28860  1.0000 -0.5430226502
O   O24       1.0  0.03227  0.45210  0.71140  1.0000 -0.5460359456
O   O25       1.0  0.53354  0.71888  0.05001  1.0000 -0.5068439816
O   O26       1.0  0.46646  0.28112  0.05001  1.0000 -0.5068439816
O   O27       1.0  0.53354  0.28112  0.94999  1.0000 -0.5068439816
O   O28       1.0  0.46646  0.71888  0.94999  1.0000 -0.5068439816
O   O29       1.0  0.71888  0.94999  0.46646  1.0000 -0.5068439816
O   O30       1.0  0.28112  0.94999  0.53354  1.0000 -0.5068439816
O   O31       1.0  0.28112  0.05001  0.46646  1.0000 -0.5068439816
O   O32       1.0  0.71888  0.05001  0.53354  1.0000 -0.5068439816
O   O33       1.0  0.94999  0.53354  0.28112  1.0000 -0.5068439816
O   O34       1.0  0.94999  0.46646  0.71888  1.0000 -0.5068439816
O   O35       1.0  0.05001  0.53354  0.71888  1.0000 -0.5068439816
O   O36       1.0  0.05001  0.46646  0.28112  1.0000 -0.5068439816
O   O37       1.0  0.78112  0.96646  0.55001  1.0000 -0.5068439816
O   O38       1.0  0.21888  0.03354  0.55001  1.0000 -0.5068439816
O   O39       1.0  0.21888  0.96646  0.44999  1.0000 -0.5068439816
O   O40       1.0  0.78112  0.03354  0.44999  1.0000 -0.5068439816
O   O41       1.0  0.55001  0.78112  0.96646  1.0000 -0.5068439816
O   O42       1.0  0.55001  0.21888  0.03354  1.0000 -0.5068439816
O   O43       1.0  0.44999  0.21888  0.96646  1.0000 -0.5068439816
O   O44       1.0  0.44999  0.78112  0.03354  1.0000 -0.5068439816
O   O45       1.0  0.96646  0.55001  0.78112  1.0000 -0.5068439816
O   O46       1.0  0.03354  0.55001  0.21888  1.0000 -0.5068439816
O   O47       1.0  0.96646  0.44999  0.21888  1.0000 -0.5068439816
O   O48       1.0  0.03354  0.44999  0.78112  1.0000 -0.5068439816
O   O49       1.0  0.78860  0.53227  0.95210  1.0000 -0.5430226502
O   O50       1.0  0.21140  0.46773  0.95210  1.0000 -0.5430226502
O   O51       1.0  0.21140  0.53227  0.04790  1.0000 -0.5430226502
O   O52       1.0  0.78860  0.46773  0.04790  1.0000 -0.5430226502
O   O53       1.0  0.95210  0.78860  0.53227  1.0000 -0.5430226502
O   O54       1.0  0.95210  0.21140  0.46773  1.0000 -0.5430226502
O   O55       1.0  0.04790  0.21140  0.53227  1.0000 -0.5430226502
O   O56       1.0  0.04790  0.78860  0.46773  1.0000 -0.5430226502
O   O57       1.0  0.53227  0.95210  0.78860  1.0000 -0.5430226502
O   O58       1.0  0.46773  0.95210  0.21140  1.0000 -0.5430226502
O   O59       1.0  0.53227  0.04790  0.21140  1.0000 -0.5430226502
O   O60       1.0  0.46773  0.04790  0.78860  1.0000 -0.5430226502
O   O61       1.0  0.96773  0.71140  0.45210  1.0000 -0.5430226502
O   O62       1.0  0.03227  0.28860  0.45210  1.0000 -0.5460359456
O   O63       1.0  0.96773  0.28860  0.54790  1.0000 -0.5460359456
O   O64       1.0  0.03227  0.71140  0.54790  1.0000 -0.5430226502
O   O65       1.0  0.71140  0.54790  0.03227  1.0000 -0.5430226502
O   O66       1.0  0.28860  0.54790  0.96773  1.0000 -0.5460359456
O   O67       1.0  0.28860  0.45210  0.03227  1.0000 -0.5460359456
O   O68       1.0  0.71140  0.45210  0.96773  1.0000 -0.5430226502
O   O69       1.0  0.54790  0.96773  0.28860  1.0000 -0.5460359456
O   O70       1.0  0.54790  0.03227  0.71140  1.0000 -0.5430226502
O   O71       1.0  0.45210  0.96773  0.71140  1.0000 -0.5430226502
O   O72       1.0  0.45210  0.03227  0.28860  1.0000 -0.5460359456
O   O73       1.0  0.71888  0.53354  0.94999  1.0000 -0.5068439816
O   O74       1.0  0.28112  0.46646  0.94999  1.0000 -0.5068439816
O   O75       1.0  0.28112  0.53354  0.05001  1.0000 -0.5068439816
O   O76       1.0  0.71888  0.46646  0.05001  1.0000 -0.5068439816
O   O77       1.0  0.94999  0.71888  0.53354  1.0000 -0.5068439816
O   O78       1.0  0.94999  0.28112  0.46646  1.0000 -0.5068439816
O   O79       1.0  0.05001  0.28112  0.53354  1.0000 -0.5068439816
O   O80       1.0  0.05001  0.71888  0.46646  1.0000 -0.5068439816
O   O81       1.0  0.53354  0.94999  0.71888  1.0000 -0.5068439816
O   O82       1.0  0.46646  0.94999  0.28112  1.0000 -0.5068439816
O   O83       1.0  0.53354  0.05001  0.28112  1.0000 -0.5068439816
O   O84       1.0  0.46646  0.05001  0.71888  1.0000 -0.5068439816
O   O85       1.0  0.96646  0.78112  0.44999  1.0000 -0.5068439816
O   O86       1.0  0.03354  0.21888  0.44999  1.0000 -0.5068439816
O   O87       1.0  0.96646  0.21888  0.55001  1.0000 -0.5068439816
O   O88       1.0  0.03354  0.78112  0.55001  1.0000 -0.5068439816
O   O89       1.0  0.78112  0.55001  0.03354  1.0000 -0.5068439816
O   O90       1.0  0.21888  0.55001  0.96646  1.0000 -0.5068439816
O   O91       1.0  0.21888  0.44999  0.03354  1.0000 -0.5068439816
O   O92       1.0  0.78112  0.44999  0.96646  1.0000 -0.5068439816
O   O93       1.0  0.55001  0.96646  0.21888  1.0000 -0.5068439816
O   O94       1.0  0.55001  0.03354  0.78112  1.0000 -0.5068439816
O   O95       1.0  0.44999  0.96646  0.78112  1.0000 -0.5068439816
O   O96       1.0  0.44999  0.03354  0.21888  1.0000 -0.5068439816
