# DDEC6 charges by PACMAN v1.1 (https://github.com/mtap-research/PACMAN-charge/)
data_2017[Cu][nbo]3[ASR]2
_chemical_formula_sum              "Cu6 H48 C63 N6 O24"
_cell_length_a       16.5021
_cell_length_b       16.5021
_cell_length_c       16.5021
_cell_angle_alpha    68.6727
_cell_angle_beta     68.6727
_cell_angle_gamma    68.6727

_symmetry_space_group_name_H-M    "P 1"
_symmetry_Int_Tables_number       1

loop_
  _symmetry_equiv_pos_as_xyz
  'x, y, z'

loop_
  _atom_site_type_symbol
  _atom_site_label
  _atom_site_symmetry_multiplicity
  _atom_site_fract_x
  _atom_site_fract_y
  _atom_site_fract_z
  _atom_site_occupancy
  _atom_site_charge
Cu  Cu1       1.0  0.13126  0.13134  0.56149  1.0000 0.8716796217
Cu  Cu2       1.0  0.13134  0.56149  0.13126  1.0000 0.8716796217
Cu  Cu3       1.0  0.56149  0.13126  0.13134  1.0000 0.8716796217
Cu  Cu4       1.0  0.14276  0.14280  0.71253  1.0000 0.8355210203
Cu  Cu5       1.0  0.14280  0.71253  0.14276  1.0000 0.8348582167
Cu  Cu6       1.0  0.71253  0.14276  0.14280  1.0000 0.8355210203
H   H1        1.0  0.12555  0.42413  0.63709  1.0000 0.1404582998
H   H2        1.0  0.42413  0.63709  0.12555  1.0000 0.1404582998
H   H3        1.0  0.63709  0.12555  0.42413  1.0000 0.1404582998
H   H4        1.0  0.11789  0.63937  0.42567  1.0000 0.1404582998
H   H5        1.0  0.63937  0.42567  0.11789  1.0000 0.1404582998
H   H6        1.0  0.42567  0.11789  0.63937  1.0000 0.1404582998
H   H7        1.0  0.11381  0.40131  0.40425  1.0000 0.147935361
H   H8        1.0  0.40131  0.40425  0.11381  1.0000 0.147935361
H   H9        1.0  0.40425  0.11381  0.40131  1.0000 0.147935361
H   H10       1.0  0.17474  0.86231  0.86577  1.0000 0.147935361
H   H11       1.0  0.86231  0.86577  0.17474  1.0000 0.147935361
H   H12       1.0  0.86577  0.17474  0.86231  1.0000 0.147935361
H   H13       1.0  0.16261  0.85537  0.63772  1.0000 0.1404582998
H   H14       1.0  0.85537  0.63772  0.16261  1.0000 0.1404582998
H   H15       1.0  0.63772  0.16261  0.85537  1.0000 0.1404582998
H   H16       1.0  0.14693  0.64210  0.85979  1.0000 0.1404582998
H   H17       1.0  0.64210  0.85979  0.14693  1.0000 0.1404582998
H   H18       1.0  0.85979  0.14693  0.64210  1.0000 0.1404582998
H   H19       1.0  0.02208  0.59484  0.69271  1.0000 0.0970477997
H   H20       1.0  0.59484  0.69271  0.02208  1.0000 0.0970477997
H   H21       1.0  0.69271  0.02208  0.59484  1.0000 0.0970477997
H   H22       1.0  0.09887  0.50509  0.70788  1.0000 0.0930093083
H   H23       1.0  0.50509  0.70788  0.09887  1.0000 0.0930093083
H   H24       1.0  0.70788  0.09887  0.50509  1.0000 0.0930093083
H   H25       1.0  0.07148  0.61211  0.78575  1.0000 0.1103524758
H   H26       1.0  0.61211  0.78575  0.07148  1.0000 0.1103524758
H   H27       1.0  0.78575  0.07148  0.61211  1.0000 0.1103524758
H   H28       1.0  0.17046  0.56075  0.74715  1.0000 0.1103524758
H   H29       1.0  0.56075  0.74715  0.17046  1.0000 0.1103524758
H   H30       1.0  0.74715  0.17046  0.56075  1.0000 0.1103524758
H   H31       1.0  0.18463  0.71318  0.56859  1.0000 0.0930093083
H   H32       1.0  0.71318  0.56859  0.18463  1.0000 0.0930093083
H   H33       1.0  0.56859  0.18463  0.71318  1.0000 0.0930093083
H   H34       1.0  0.11509  0.86637  0.53468  1.0000 0.1103524758
H   H35       1.0  0.86637  0.53468  0.11509  1.0000 0.1103524758
H   H36       1.0  0.53468  0.11509  0.86637  1.0000 0.1103524758
H   H37       1.0  0.03558  0.83648  0.53368  1.0000 0.1103524758
H   H38       1.0  0.83648  0.53368  0.03558  1.0000 0.1103524758
H   H39       1.0  0.53368  0.03558  0.83648  1.0000 0.1103524758
H   H40       1.0  0.13234  0.80788  0.47053  1.0000 0.1103524758
H   H41       1.0  0.80788  0.47053  0.13234  1.0000 0.1103524758
H   H42       1.0  0.47053  0.13234  0.80788  1.0000 0.1103524758
H   H43       1.0  0.10014  0.70888  0.50476  1.0000 0.0930093083
H   H44       1.0  0.70888  0.50476  0.10014  1.0000 0.0970477997
H   H45       1.0  0.50476  0.10014  0.70888  1.0000 0.0930093083
H   H46       1.0  0.02448  0.69530  0.59544  1.0000 0.0970477997
H   H47       1.0  0.69530  0.59544  0.02448  1.0000 0.0970477997
H   H48       1.0  0.59544  0.02448  0.69530  1.0000 0.0970477997
C   C1        1.0  0.11630  0.29980  0.57470  1.0000 0.5684328455
C   C2        1.0  0.29980  0.57470  0.11630  1.0000 0.5684328455
C   C3        1.0  0.57470  0.11630  0.29980  1.0000 0.5684328455
C   C4        1.0  0.12430  0.54180  0.53860  1.0000 0.1875785717
C   C5        1.0  0.54180  0.53860  0.12430  1.0000 0.1875785717
C   C6        1.0  0.53860  0.12430  0.54180  1.0000 0.1875785717
C   C7        1.0  0.11790  0.40150  0.52990  1.0000 0.0174803008
C   C8        1.0  0.40150  0.52990  0.11790  1.0000 0.0174803008
C   C9        1.0  0.52990  0.11790  0.40150  1.0000 0.0174803008
C   C10       1.0  0.11640  0.52970  0.40230  1.0000 0.0174803008
C   C11       1.0  0.52970  0.40230  0.11640  1.0000 0.0174803008
C   C12       1.0  0.40230  0.11640  0.52970  1.0000 0.0174803008
C   C13       1.0  0.12290  0.45110  0.57760  1.0000 -0.2084540528
C   C14       1.0  0.45110  0.57760  0.12290  1.0000 -0.2084540528
C   C15       1.0  0.57760  0.12290  0.45110  1.0000 -0.2084540528
C   C16       1.0  0.11930  0.57870  0.45210  1.0000 -0.1932900942
C   C17       1.0  0.57870  0.45210  0.11930  1.0000 -0.1932900942
C   C18       1.0  0.45210  0.11930  0.57870  1.0000 -0.1932900942
C   C19       1.0  0.11560  0.43530  0.43750  1.0000 -0.1408414055
C   C20       1.0  0.43530  0.43750  0.11560  1.0000 -0.1408414055
C   C21       1.0  0.43750  0.11560  0.43530  1.0000 -0.1408414055
C   C22       1.0  0.11740  0.57560  0.30110  1.0000 0.5570763129
C   C23       1.0  0.57560  0.30110  0.11740  1.0000 0.5570763129
C   C24       1.0  0.30110  0.11740  0.57560  1.0000 0.5570763129
C   C25       1.0  0.16220  0.87620  0.74680  1.0000 -0.0514683813
C   C26       1.0  0.87620  0.74680  0.16220  1.0000 -0.0514683813
C   C27       1.0  0.74680  0.16220  0.87620  1.0000 -0.0514683813
C   C28       1.0  0.16700  0.83090  0.83350  1.0000 -0.1202283722
C   C29       1.0  0.83090  0.83350  0.16700  1.0000 -0.1202283722
C   C30       1.0  0.83350  0.16700  0.83090  1.0000 -0.1202283722
C   C31       1.0  0.15920  0.82730  0.69850  1.0000 -0.1738805767
C   C32       1.0  0.82730  0.69850  0.15920  1.0000 -0.1738805767
C   C33       1.0  0.69850  0.15920  0.82730  1.0000 -0.181336045
C   C34       1.0  0.15540  0.71050  0.97150  1.0000 0.5537008621
C   C35       1.0  0.71050  0.97150  0.15540  1.0000 0.5537008621
C   C36       1.0  0.97150  0.15540  0.71050  1.0000 0.5537008621
C   C37       1.0  0.15410  0.96840  0.71160  1.0000 0.5383684018
C   C38       1.0  0.96840  0.71160  0.15410  1.0000 0.5383684018
C   C39       1.0  0.71160  0.15410  0.96840  1.0000 0.5383684018
C   C40       1.0  0.15290  0.70030  0.82940  1.0000 -0.1932900942
C   C41       1.0  0.70030  0.82940  0.15290  1.0000 -0.1932900942
C   C42       1.0  0.82940  0.15290  0.70030  1.0000 -0.1932900942
C   C43       1.0  0.15150  0.73420  0.73180  1.0000 0.2202802428
C   C44       1.0  0.73420  0.73180  0.15150  1.0000 0.2202802428
C   C45       1.0  0.73180  0.15150  0.73420  1.0000 0.2202802428
C   C46       1.0  0.16190  0.74620  0.87650  1.0000 -0.0226659748
C   C47       1.0  0.74620  0.87650  0.16190  1.0000 -0.0226659748
C   C48       1.0  0.87650  0.16190  0.74620  1.0000 -0.0226659748
C   C49       1.0  0.08680  0.57000  0.68290  1.0000 -0.1501971778
C   C50       1.0  0.57000  0.68290  0.08680  1.0000 -0.1501971778
C   C51       1.0  0.68290  0.08680  0.57000  1.0000 -0.1552538347
C   C52       1.0  0.11810  0.60640  0.73010  1.0000 -0.181336045
C   C53       1.0  0.60640  0.73010  0.11810  1.0000 -0.181336045
C   C54       1.0  0.73010  0.11810  0.60640  1.0000 -0.181336045
C   C55       1.0  0.12200  0.73250  0.60310  1.0000 -0.0307419753
C   C56       1.0  0.73250  0.60310  0.12200  1.0000 -0.0226659748
C   C57       1.0  0.60310  0.12200  0.73250  1.0000 -0.0307419753
C   C58       1.0  0.09909  0.81891  0.52850  1.0000 -0.3751520735
C   C59       1.0  0.81891  0.52850  0.09909  1.0000 -0.3744395596
C   C60       1.0  0.52850  0.09909  0.81891  1.0000 -0.3751520735
C   C61       1.0  0.08920  0.68440  0.56970  1.0000 -0.2031455856
C   C62       1.0  0.68440  0.56970  0.08920  1.0000 -0.2084540528
C   C63       1.0  0.56970  0.08920  0.68440  1.0000 -0.2084540528
N   N1        1.0  0.12890  0.58960  0.58880  1.0000 -0.1501971778
N   N2        1.0  0.58960  0.58880  0.12890  1.0000 -0.1501971778
N   N3        1.0  0.58880  0.12890  0.58960  1.0000 -0.1408414055
N   N4        1.0  0.14260  0.69080  0.68960  1.0000 -0.0514683813
N   N5        1.0  0.69080  0.68960  0.14260  1.0000 -0.0514683813
N   N6        1.0  0.68960  0.14260  0.69080  1.0000 -0.0514683813
O   O1        1.0  0.12730  0.26860  0.65190  1.0000 -0.5210899832
O   O2        1.0  0.26860  0.65190  0.12730  1.0000 -0.5210899832
O   O3        1.0  0.65190  0.12730  0.26860  1.0000 -0.5210899832
O   O4        1.0  0.11460  0.26070  0.52130  1.0000 -0.5210899832
O   O5        1.0  0.26070  0.52130  0.11460  1.0000 -0.5210899832
O   O6        1.0  0.52130  0.11460  0.26070  1.0000 -0.5210899832
O   O7        1.0  0.11380  0.52200  0.26140  1.0000 -0.544075233
O   O8        1.0  0.52200  0.26140  0.11380  1.0000 -0.544075233
O   O9        1.0  0.26140  0.11380  0.52200  1.0000 -0.544075233
O   O10       1.0  0.12460  0.65190  0.26980  1.0000 -0.4876944047
O   O11       1.0  0.65190  0.26980  0.12460  1.0000 -0.4876944047
O   O12       1.0  0.26980  0.12460  0.65190  1.0000 -0.4876944047
O   O13       1.0  0.15850  0.01250  0.75130  1.0000 -0.4368789119
O   O14       1.0  0.01250  0.75130  0.15850  1.0000 -0.4368789119
O   O15       1.0  0.75130  0.15850  0.01250  1.0000 -0.4368789119
O   O16       1.0  0.15900  0.75110  0.01370  1.0000 -0.4155194185
O   O17       1.0  0.75110  0.01370  0.15900  1.0000 -0.4155194185
O   O18       1.0  0.01370  0.15900  0.75110  1.0000 -0.4155194185
O   O19       1.0  0.15190  0.00040  0.62780  1.0000 -0.5299874367
O   O20       1.0  0.00040  0.62780  0.15190  1.0000 -0.5299874367
O   O21       1.0  0.62780  0.15190  0.00040  1.0000 -0.5299874367
O   O22       1.0  0.14790  0.62740  0.00240  1.0000 -0.5469592037
O   O23       1.0  0.62740  0.00240  0.14790  1.0000 -0.5469592037
O   O24       1.0  0.00240  0.14790  0.62740  1.0000 -0.5469592037
