# DDEC6 charges by PACMAN v1.1 (https://github.com/mtap-research/PACMAN-charge/)
data_2017[Zn][nan]3[ASR]16
_chemical_formula_sum              "Zn12 H144 C264 N72 O50"
_cell_length_a       24.078
_cell_length_b       24.078
_cell_length_c       37.65
_cell_angle_alpha    90
_cell_angle_beta     90
_cell_angle_gamma    103.782

_symmetry_space_group_name_H-M    "P 1"
_symmetry_Int_Tables_number       1

loop_
  _symmetry_equiv_pos_as_xyz
  'x, y, z'

loop_
  _atom_site_type_symbol
  _atom_site_label
  _atom_site_symmetry_multiplicity
  _atom_site_fract_x
  _atom_site_fract_y
  _atom_site_fract_z
  _atom_site_occupancy
  _atom_site_charge
Zn  Zn1       1.0  0.86770  0.20592  0.78633  1.0000 1.0230842232
Zn  Zn2       1.0  0.13230  0.79408  0.28633  1.0000 1.0230842232
Zn  Zn3       1.0  0.79408  0.13230  0.71367  1.0000 1.0230842232
Zn  Zn4       1.0  0.20592  0.86770  0.21367  1.0000 1.0230842232
Zn  Zn5       1.0  0.99053  0.22343  0.84238  1.0000 1.0550440251
Zn  Zn6       1.0  0.00947  0.77657  0.34238  1.0000 1.0536617338
Zn  Zn7       1.0  0.77657  0.00947  0.65762  1.0000 1.0536617338
Zn  Zn8       1.0  0.22343  0.99053  0.15762  1.0000 1.0550440251
Zn  Zn9       1.0  0.11353  0.24161  0.89820  1.0000 0.9692010879
Zn  Zn10      1.0  0.88647  0.75839  0.39820  1.0000 0.9692010879
Zn  Zn11      1.0  0.75839  0.88647  0.60180  1.0000 0.9692010879
Zn  Zn12      1.0  0.24161  0.11353  0.10180  1.0000 0.9692010879
H   H1        1.0  0.76090  0.13650  0.87630  1.0000 0.1303484121
H   H2        1.0  0.23910  0.86350  0.37630  1.0000 0.1303484121
H   H3        1.0  0.86350  0.23910  0.62370  1.0000 0.1303484121
H   H4        1.0  0.13650  0.76090  0.12370  1.0000 0.1303484121
H   H5        1.0  0.71860  0.08940  0.92670  1.0000 0.1303484121
H   H6        1.0  0.28140  0.91060  0.42670  1.0000 0.1303484121
H   H7        1.0  0.91060  0.28140  0.57330  1.0000 0.1303484121
H   H8        1.0  0.08940  0.71860  0.07330  1.0000 0.1303484121
H   H9        1.0  0.86420  0.04260  0.94930  1.0000 0.1303484121
H   H10       1.0  0.13580  0.95740  0.44930  1.0000 0.1303484121
H   H11       1.0  0.95740  0.13580  0.55070  1.0000 0.1303484121
H   H12       1.0  0.04260  0.86420  0.05070  1.0000 0.1303484121
H   H13       1.0  0.90650  0.08970  0.89880  1.0000 0.1303484121
H   H14       1.0  0.09350  0.91030  0.39880  1.0000 0.1303484121
H   H15       1.0  0.91030  0.09350  0.60120  1.0000 0.1303484121
H   H16       1.0  0.08970  0.90650  0.10120  1.0000 0.1303484121
H   H17       1.0  0.82340  0.02340  0.00960  1.0000 0.1390900259
H   H18       1.0  0.17660  0.97660  0.50960  1.0000 0.1390900259
H   H19       1.0  0.97660  0.17660  0.49040  1.0000 0.1390900259
H   H20       1.0  0.02340  0.82340  0.99040  1.0000 0.1390900259
H   H21       1.0  0.81920  0.96360  0.06230  1.0000 0.1209250516
H   H22       1.0  0.18080  0.03640  0.56230  1.0000 0.1209250516
H   H23       1.0  0.03640  0.18080  0.43770  1.0000 0.1209250516
H   H24       1.0  0.96360  0.81920  0.93770  1.0000 0.1209250516
H   H25       1.0  0.72960  0.91160  0.15120  1.0000 0.1209250516
H   H26       1.0  0.27040  0.08840  0.65120  1.0000 0.1209250516
H   H27       1.0  0.08840  0.27040  0.34880  1.0000 0.1209250516
H   H28       1.0  0.91160  0.72960  0.84880  1.0000 0.1209250516
H   H29       1.0  0.65600  0.97560  0.07010  1.0000 0.1209250516
H   H30       1.0  0.34400  0.02440  0.57010  1.0000 0.1209250516
H   H31       1.0  0.02440  0.34400  0.42990  1.0000 0.1209250516
H   H32       1.0  0.97560  0.65600  0.92990  1.0000 0.1209250516
H   H33       1.0  0.81780  0.88580  0.17490  1.0000 0.1303484121
H   H34       1.0  0.18220  0.11420  0.67490  1.0000 0.1303484121
H   H35       1.0  0.11420  0.18220  0.32510  1.0000 0.1303484121
H   H36       1.0  0.88580  0.81780  0.82510  1.0000 0.1303484121
H   H37       1.0  0.00740  0.91140  0.16440  1.0000 0.1390900259
H   H38       1.0  0.99260  0.08860  0.66440  1.0000 0.1390900259
H   H39       1.0  0.08860  0.99260  0.33560  1.0000 0.1390900259
H   H40       1.0  0.91140  0.00740  0.83560  1.0000 0.1390900259
H   H41       1.0  0.05880  0.87660  0.20760  1.0000 0.1390900259
H   H42       1.0  0.94120  0.12340  0.70760  1.0000 0.1390900259
H   H43       1.0  0.12340  0.94120  0.29240  1.0000 0.1390900259
H   H44       1.0  0.87660  0.05880  0.79240  1.0000 0.1390900259
H   H45       1.0  0.91190  0.78930  0.25180  1.0000 0.1303484121
H   H46       1.0  0.08810  0.21070  0.75180  1.0000 0.1303484121
H   H47       1.0  0.21070  0.08810  0.24820  1.0000 0.1303484121
H   H48       1.0  0.78930  0.91190  0.74820  1.0000 0.1303484121
H   H49       1.0  0.86050  0.82410  0.20850  1.0000 0.1303484121
H   H50       1.0  0.13950  0.17590  0.70850  1.0000 0.1303484121
H   H51       1.0  0.17590  0.13950  0.29150  1.0000 0.1303484121
H   H52       1.0  0.82410  0.86050  0.79150  1.0000 0.1303484121
H   H53       1.0  0.56740  0.95880  0.10760  1.0000 0.1390900259
H   H54       1.0  0.43260  0.04120  0.60760  1.0000 0.1390900259
H   H55       1.0  0.04120  0.43260  0.39240  1.0000 0.1390900259
H   H56       1.0  0.95880  0.56740  0.89240  1.0000 0.1390900259
H   H57       1.0  0.48330  0.88430  0.20950  1.0000 0.1303484121
H   H58       1.0  0.51670  0.11570  0.70950  1.0000 0.1303484121
H   H59       1.0  0.11570  0.51670  0.29050  1.0000 0.1303484121
H   H60       1.0  0.88430  0.48330  0.79050  1.0000 0.1303484121
H   H61       1.0  0.38810  0.88250  0.22050  1.0000 0.1303484121
H   H62       1.0  0.61190  0.11750  0.72050  1.0000 0.1303484121
H   H63       1.0  0.11750  0.61190  0.27950  1.0000 0.1303484121
H   H64       1.0  0.88250  0.38810  0.77950  1.0000 0.1303484121
H   H65       1.0  0.37830  0.95910  0.12670  1.0000 0.1303484121
H   H66       1.0  0.62170  0.04090  0.62670  1.0000 0.1303484121
H   H67       1.0  0.04090  0.62170  0.37330  1.0000 0.1303484121
H   H68       1.0  0.95910  0.37830  0.87330  1.0000 0.1303484121
H   H69       1.0  0.47360  0.96100  0.11570  1.0000 0.1303484121
H   H70       1.0  0.52640  0.03900  0.61570  1.0000 0.1303484121
H   H71       1.0  0.03900  0.52640  0.38430  1.0000 0.1303484121
H   H72       1.0  0.96100  0.47360  0.88430  1.0000 0.1303484121
H   H73       1.0  0.18640  0.15220  0.81800  1.0000 0.1303484121
H   H74       1.0  0.81360  0.84780  0.31800  1.0000 0.1303484121
H   H75       1.0  0.84780  0.81360  0.68200  1.0000 0.1303484121
H   H76       1.0  0.15220  0.18640  0.18200  1.0000 0.1303484121
H   H77       1.0  0.20590  0.09730  0.77110  1.0000 0.1303484121
H   H78       1.0  0.79410  0.90270  0.27110  1.0000 0.1303484121
H   H79       1.0  0.90270  0.79410  0.72890  1.0000 0.1303484121
H   H80       1.0  0.09730  0.20590  0.22890  1.0000 0.1303484121
H   H81       1.0  0.03840  0.02320  0.76190  1.0000 0.1303484121
H   H82       1.0  0.96160  0.97680  0.26190  1.0000 0.1303484121
H   H83       1.0  0.97680  0.96160  0.73810  1.0000 0.1303484121
H   H84       1.0  0.02320  0.03840  0.23810  1.0000 0.1303484121
H   H85       1.0  0.01890  0.07790  0.80890  1.0000 0.1303484121
H   H86       1.0  0.98110  0.92210  0.30890  1.0000 0.1303484121
H   H87       1.0  0.92210  0.98110  0.69110  1.0000 0.1303484121
H   H88       1.0  0.07790  0.01890  0.19110  1.0000 0.1303484121
H   H89       1.0  0.22100  0.01740  0.73420  1.0000 0.1390900259
H   H90       1.0  0.77900  0.98260  0.23420  1.0000 0.1390900259
H   H91       1.0  0.98260  0.77900  0.76580  1.0000 0.1390900259
H   H92       1.0  0.01740  0.22100  0.26580  1.0000 0.1390900259
H   H93       1.0  0.27580  0.96040  0.70740  1.0000 0.1303484121
H   H94       1.0  0.72420  0.03960  0.20740  1.0000 0.1303484121
H   H95       1.0  0.03960  0.72420  0.79260  1.0000 0.1303484121
H   H96       1.0  0.96040  0.27580  0.29260  1.0000 0.1303484121
H   H97       1.0  0.29930  0.87990  0.61720  1.0000 0.1209250516
H   H98       1.0  0.70070  0.12010  0.11720  1.0000 0.1209250516
H   H99       1.0  0.12010  0.70070  0.88280  1.0000 0.1209250516
H   H100      1.0  0.87990  0.29930  0.38280  1.0000 0.1209250516
H   H101      1.0  0.15040  0.92320  0.63460  1.0000 0.1303484121
H   H102      1.0  0.84960  0.07680  0.13460  1.0000 0.1303484121
H   H103      1.0  0.07680  0.84960  0.86540  1.0000 0.1303484121
H   H104      1.0  0.92320  0.15040  0.36540  1.0000 0.1303484121
H   H105      1.0  0.39890  0.90050  0.62990  1.0000 0.1390900259
H   H106      1.0  0.60110  0.09950  0.12990  1.0000 0.1390900259
H   H107      1.0  0.09950  0.60110  0.87010  1.0000 0.1390900259
H   H108      1.0  0.90050  0.39890  0.37010  1.0000 0.1390900259
H   H109      1.0  0.48840  0.87240  0.61920  1.0000 0.1303484121
H   H110      1.0  0.51160  0.12760  0.11920  1.0000 0.1303484121
H   H111      1.0  0.12760  0.51160  0.88080  1.0000 0.1303484121
H   H112      1.0  0.87240  0.48840  0.38080  1.0000 0.1303484121
H   H113      1.0  0.58380  0.87620  0.60710  1.0000 0.1303484121
H   H114      1.0  0.41620  0.12380  0.10710  1.0000 0.1303484121
H   H115      1.0  0.12380  0.41620  0.89290  1.0000 0.1303484121
H   H116      1.0  0.87620  0.58380  0.39290  1.0000 0.1303484121
H   H117      1.0  0.62820  0.94860  0.70230  1.0000 0.1390900259
H   H118      1.0  0.37180  0.05140  0.20230  1.0000 0.1390900259
H   H119      1.0  0.05140  0.37180  0.79770  1.0000 0.1390900259
H   H120      1.0  0.94860  0.62820  0.29770  1.0000 0.1390900259
H   H121      1.0  0.53280  0.94480  0.71440  1.0000 0.1303484121
H   H122      1.0  0.46720  0.05520  0.21440  1.0000 0.1303484121
H   H123      1.0  0.05520  0.46720  0.78560  1.0000 0.1303484121
H   H124      1.0  0.94480  0.53280  0.28560  1.0000 0.1303484121
H   H125      1.0  0.12460  0.88480  0.57540  1.0000 0.1390900259
H   H126      1.0  0.87540  0.11520  0.07540  1.0000 0.1390900259
H   H127      1.0  0.11520  0.87540  0.92460  1.0000 0.1390900259
H   H128      1.0  0.88480  0.12460  0.42460  1.0000 0.1390900259
H   H129      1.0  0.16930  0.79310  0.47810  1.0000 0.1303484121
H   H130      1.0  0.83070  0.20690  0.97810  1.0000 0.1303484121
H   H131      1.0  0.20690  0.83070  0.02190  1.0000 0.1303484121
H   H132      1.0  0.79310  0.16930  0.52190  1.0000 0.1303484121
H   H133      1.0  0.10430  0.76630  0.43210  1.0000 0.1303484121
H   H134      1.0  0.89570  0.23370  0.93210  1.0000 0.1303484121
H   H135      1.0  0.23370  0.89570  0.06790  1.0000 0.1303484121
H   H136      1.0  0.76630  0.10430  0.56790  1.0000 0.1303484121
H   H137      1.0  0.98950  0.83090  0.48550  1.0000 0.1209250516
H   H138      1.0  0.01050  0.16910  0.98550  1.0000 0.1209250516
H   H139      1.0  0.16910  0.01050  0.01450  1.0000 0.1209250516
H   H140      1.0  0.83090  0.98950  0.51450  1.0000 0.1209250516
H   H141      1.0  0.05450  0.85750  0.53150  1.0000 0.1303484121
H   H142      1.0  0.94550  0.14250  0.03150  1.0000 0.1303484121
H   H143      1.0  0.14250  0.94550  0.96850  1.0000 0.1303484121
H   H144      1.0  0.85750  0.05450  0.46850  1.0000 0.1303484121
C   C1        1.0  0.86620  0.14860  0.85120  1.0000 0.5897845923
C   C2        1.0  0.13380  0.85140  0.35120  1.0000 0.5897845923
C   C3        1.0  0.85140  0.13380  0.64880  1.0000 0.5897845923
C   C4        1.0  0.14860  0.86620  0.14880  1.0000 0.5897845923
C   C5        1.0  0.83780  0.11780  0.88256  1.0000 -0.0510455727
C   C6        1.0  0.16220  0.88220  0.38256  1.0000 -0.0510455727
C   C7        1.0  0.88220  0.16220  0.61744  1.0000 -0.0510455727
C   C8        1.0  0.11780  0.83780  0.11744  1.0000 -0.0510455727
C   C9        1.0  0.78160  0.11760  0.89092  1.0000 -0.0705963165
C   C10       1.0  0.21840  0.88240  0.39092  1.0000 -0.0705963165
C   C11       1.0  0.88240  0.21840  0.60908  1.0000 -0.0705963165
C   C12       1.0  0.11760  0.78160  0.10908  1.0000 -0.0705963165
C   C13       1.0  0.75617  0.08943  0.92110  1.0000 -0.1800729856
C   C14       1.0  0.24383  0.91057  0.42110  1.0000 -0.1800729856
C   C15       1.0  0.91057  0.24383  0.57890  1.0000 -0.1800729856
C   C16       1.0  0.08943  0.75617  0.07890  1.0000 -0.1800729856
C   C17       1.0  0.78720  0.06120  0.94301  1.0000 0.150164834
C   C18       1.0  0.21280  0.93880  0.44301  1.0000 0.150164834
C   C19       1.0  0.93880  0.21280  0.55699  1.0000 0.150164834
C   C20       1.0  0.06120  0.78720  0.05699  1.0000 0.150164834
C   C21       1.0  0.84340  0.06140  0.93460  1.0000 -0.1882068059
C   C22       1.0  0.15660  0.93860  0.43460  1.0000 -0.1882068059
C   C23       1.0  0.93860  0.15660  0.56540  1.0000 -0.1882068059
C   C24       1.0  0.06140  0.84340  0.06540  1.0000 -0.1882068059
C   C25       1.0  0.86880  0.08960  0.90440  1.0000 -0.0705963165
C   C26       1.0  0.13120  0.91040  0.40440  1.0000 -0.0705963165
C   C27       1.0  0.91040  0.13120  0.59560  1.0000 -0.0705963165
C   C28       1.0  0.08960  0.86880  0.09560  1.0000 -0.0705963165
C   C29       1.0  0.78490  0.01930  0.00440  1.0000 -0.1544542946
C   C30       1.0  0.21510  0.98070  0.50440  1.0000 -0.1544542946
C   C31       1.0  0.98070  0.21510  0.49560  1.0000 -0.1544542946
C   C32       1.0  0.01930  0.78490  0.99560  1.0000 -0.1544542946
C   C33       1.0  0.74080  0.99880  0.02650  1.0000 0.1009965322
C   C34       1.0  0.25920  0.00120  0.52650  1.0000 0.1009965322
C   C35       1.0  0.00120  0.25920  0.47350  1.0000 0.1009965322
C   C36       1.0  0.99880  0.74080  0.97350  1.0000 0.1009965322
C   C37       1.0  0.73810  0.97350  0.06061  1.0000 0.0697831548
C   C38       1.0  0.26190  0.02650  0.56061  1.0000 0.0697831548
C   C39       1.0  0.02650  0.26190  0.43939  1.0000 0.0697831548
C   C40       1.0  0.97350  0.73810  0.93939  1.0000 0.0697831548
C   C41       1.0  0.78540  0.95820  0.07520  1.0000 -0.1958290292
C   C42       1.0  0.21460  0.04180  0.57520  1.0000 -0.1882068059
C   C43       1.0  0.04180  0.21460  0.42480  1.0000 -0.1882068059
C   C44       1.0  0.95820  0.78540  0.92480  1.0000 -0.1882068059
C   C45       1.0  0.78220  0.93500  0.10920  1.0000 0.0893748477
C   C46       1.0  0.21780  0.06500  0.60920  1.0000 0.0893748477
C   C47       1.0  0.06500  0.21780  0.39080  1.0000 0.0893748477
C   C48       1.0  0.93500  0.78220  0.89080  1.0000 0.0893748477
C   C49       1.0  0.73170  0.92710  0.12851  1.0000 -0.1882068059
C   C50       1.0  0.26830  0.07290  0.62851  1.0000 -0.1882068059
C   C51       1.0  0.07290  0.26830  0.37149  1.0000 -0.1882068059
C   C52       1.0  0.92710  0.73170  0.87149  1.0000 -0.1882068059
C   C53       1.0  0.68440  0.94220  0.11390  1.0000 0.0893748477
C   C54       1.0  0.31560  0.05780  0.61390  1.0000 0.0893748477
C   C55       1.0  0.05780  0.31560  0.38610  1.0000 0.0893748477
C   C56       1.0  0.94220  0.68440  0.88610  1.0000 0.0893748477
C   C57       1.0  0.68760  0.96540  0.07990  1.0000 -0.1882068059
C   C58       1.0  0.31240  0.03460  0.57990  1.0000 -0.1882068059
C   C59       1.0  0.03460  0.31240  0.42010  1.0000 -0.1882068059
C   C60       1.0  0.96540  0.68760  0.92010  1.0000 -0.1882068059
C   C61       1.0  0.83310  0.91490  0.12400  1.0000 0.1209250516
C   C62       1.0  0.16690  0.08510  0.62400  1.0000 0.1209250516
C   C63       1.0  0.08510  0.16690  0.37600  1.0000 0.1209250516
C   C64       1.0  0.91490  0.83310  0.87600  1.0000 0.1209250516
C   C65       1.0  0.84380  0.89540  0.15640  1.0000 -0.1699870459
C   C66       1.0  0.15620  0.10460  0.65640  1.0000 -0.1699870459
C   C67       1.0  0.10460  0.15620  0.34360  1.0000 -0.1699870459
C   C68       1.0  0.89540  0.84380  0.84360  1.0000 -0.1699870459
C   C69       1.0  0.92880  0.87120  0.18214  1.0000 0.1615235209
C   C70       1.0  0.07120  0.12880  0.68214  1.0000 0.1615235209
C   C71       1.0  0.12880  0.07120  0.31786  1.0000 0.1615235209
C   C72       1.0  0.87120  0.92880  0.81786  1.0000 0.1615235209
C   C73       1.0  0.98830  0.88690  0.18188  1.0000 -0.1800729856
C   C74       1.0  0.01170  0.11310  0.68188  1.0000 -0.1800729856
C   C75       1.0  0.11310  0.01170  0.31812  1.0000 -0.1800729856
C   C76       1.0  0.88690  0.98830  0.81812  1.0000 -0.1800729856
C   C77       1.0  0.01900  0.86600  0.20780  1.0000 -0.0617952468
C   C78       1.0  0.98100  0.13400  0.70780  1.0000 -0.0617952468
C   C79       1.0  0.13400  0.98100  0.29220  1.0000 -0.0617952468
C   C80       1.0  0.86600  0.01900  0.79220  1.0000 -0.0617952468
C   C81       1.0  0.99050  0.82950  0.23400  1.0000 -0.0510455727
C   C82       1.0  0.00950  0.17050  0.73400  1.0000 -0.0510455727
C   C83       1.0  0.17050  0.00950  0.26600  1.0000 -0.0510455727
C   C84       1.0  0.82950  0.99050  0.76600  1.0000 -0.0510455727
C   C85       1.0  0.93100  0.81380  0.23420  1.0000 -0.0705963165
C   C86       1.0  0.06900  0.18620  0.73420  1.0000 -0.0705963165
C   C87       1.0  0.18620  0.06900  0.26580  1.0000 -0.0705963165
C   C88       1.0  0.81380  0.93100  0.76580  1.0000 -0.0705963165
C   C89       1.0  0.90020  0.83460  0.20830  1.0000 -0.1882068059
C   C90       1.0  0.09980  0.16540  0.70830  1.0000 -0.1882068059
C   C91       1.0  0.16540  0.09980  0.29170  1.0000 -0.1882068059
C   C92       1.0  0.83460  0.90020  0.79170  1.0000 -0.1882068059
C   C93       1.0  0.02290  0.81150  0.26290  1.0000 0.5897845923
C   C94       1.0  0.97710  0.18850  0.76290  1.0000 0.5897845923
C   C95       1.0  0.18850  0.97710  0.23710  1.0000 0.5897845923
C   C96       1.0  0.81150  0.02290  0.73710  1.0000 0.5897845923
C   C97       1.0  0.63160  0.93360  0.13500  1.0000 0.1209250516
C   C98       1.0  0.36840  0.06640  0.63500  1.0000 0.1209250516
C   C99       1.0  0.06640  0.36840  0.36500  1.0000 0.1209250516
C   C100      1.0  0.93360  0.63160  0.86500  1.0000 0.1209250516
C   C101      1.0  0.57820  0.94260  0.12810  1.0000 -0.1800729856
C   C102      1.0  0.42180  0.05740  0.62810  1.0000 -0.1800729856
C   C103      1.0  0.05740  0.42180  0.37190  1.0000 -0.1800729856
C   C104      1.0  0.94260  0.57820  0.87190  1.0000 -0.1800729856
C   C105      1.0  0.48790  0.92290  0.16150  1.0000 0.1615235209
C   C106      1.0  0.51210  0.07710  0.66150  1.0000 0.1615235209
C   C107      1.0  0.07710  0.51210  0.33850  1.0000 0.1615235209
C   C108      1.0  0.92290  0.48790  0.83850  1.0000 0.1615235209
C   C109      1.0  0.46230  0.89930  0.19290  1.0000 -0.1699870459
C   C110      1.0  0.53770  0.10070  0.69290  1.0000 -0.1699870459
C   C111      1.0  0.10070  0.53770  0.30710  1.0000 -0.1699870459
C   C112      1.0  0.89930  0.46230  0.80710  1.0000 -0.1699870459
C   C113      1.0  0.40520  0.89820  0.19950  1.0000 -0.0705963165
C   C114      1.0  0.59480  0.10180  0.69950  1.0000 -0.0782138296
C   C115      1.0  0.10180  0.59480  0.30050  1.0000 -0.0705963165
C   C116      1.0  0.89820  0.40520  0.80050  1.0000 -0.0782138296
C   C117      1.0  0.37380  0.92060  0.17470  1.0000 -0.0510455727
C   C118      1.0  0.62620  0.07940  0.67470  1.0000 -0.0449589827
C   C119      1.0  0.07940  0.62620  0.32530  1.0000 -0.0510455727
C   C120      1.0  0.92060  0.37380  0.82530  1.0000 -0.0510455727
C   C121      1.0  0.39930  0.94410  0.14330  1.0000 -0.0705963165
C   C122      1.0  0.60070  0.05590  0.64330  1.0000 -0.0782138296
C   C123      1.0  0.05590  0.60070  0.35670  1.0000 -0.0705963165
C   C124      1.0  0.94410  0.39930  0.85670  1.0000 -0.0782138296
C   C125      1.0  0.45640  0.94520  0.13670  1.0000 -0.1958290292
C   C126      1.0  0.54360  0.05480  0.63670  1.0000 -0.1958290292
C   C127      1.0  0.05480  0.54360  0.36330  1.0000 -0.1958290292
C   C128      1.0  0.94520  0.45640  0.86330  1.0000 -0.1958290292
C   C129      1.0  0.31150  0.91730  0.17850  1.0000 0.5982463022
C   C130      1.0  0.68850  0.08270  0.67850  1.0000 0.5982463022
C   C131      1.0  0.08270  0.68850  0.32150  1.0000 0.5982463022
C   C132      1.0  0.91730  0.31150  0.82150  1.0000 0.5982463022
C   C133      1.0  0.08790  0.15850  0.84620  1.0000 0.5982463022
C   C134      1.0  0.91210  0.84150  0.34620  1.0000 0.5982463022
C   C135      1.0  0.84150  0.91210  0.65380  1.0000 0.5982463022
C   C136      1.0  0.15850  0.08790  0.15380  1.0000 0.5982463022
C   C137      1.0  0.10070  0.12050  0.81810  1.0000 -0.0510455727
C   C138      1.0  0.89930  0.87950  0.31810  1.0000 -0.0510455727
C   C139      1.0  0.87950  0.89930  0.68190  1.0000 -0.0510455727
C   C140      1.0  0.12050  0.10070  0.18190  1.0000 -0.0510455727
C   C141      1.0  0.15670  0.12630  0.80680  1.0000 -0.0617952468
C   C142      1.0  0.84330  0.87370  0.30680  1.0000 -0.0617952468
C   C143      1.0  0.87370  0.84330  0.69320  1.0000 -0.0617952468
C   C144      1.0  0.12630  0.15670  0.19320  1.0000 -0.0617952468
C   C145      1.0  0.16840  0.09340  0.77860  1.0000 -0.1800729856
C   C146      1.0  0.83160  0.90660  0.27860  1.0000 -0.1800729856
C   C147      1.0  0.90660  0.83160  0.72140  1.0000 -0.1800729856
C   C148      1.0  0.09340  0.16840  0.22140  1.0000 -0.1800729856
C   C149      1.0  0.12410  0.05470  0.76180  1.0000 0.1390900259
C   C150      1.0  0.87590  0.94530  0.26180  1.0000 0.1390900259
C   C151      1.0  0.94530  0.87590  0.73820  1.0000 0.1390900259
C   C152      1.0  0.05470  0.12410  0.23820  1.0000 0.1390900259
C   C153      1.0  0.06800  0.04900  0.77320  1.0000 -0.1699870459
C   C154      1.0  0.93200  0.95100  0.27320  1.0000 -0.1699870459
C   C155      1.0  0.95100  0.93200  0.72680  1.0000 -0.1699870459
C   C156      1.0  0.04900  0.06800  0.22680  1.0000 -0.1699870459
C   C157      1.0  0.05640  0.08180  0.80130  1.0000 -0.0705963165
C   C158      1.0  0.94360  0.91820  0.30130  1.0000 -0.0705963165
C   C159      1.0  0.91820  0.94360  0.69870  1.0000 -0.0705963165
C   C160      1.0  0.08180  0.05640  0.19870  1.0000 -0.0705963165
C   C161      1.0  0.18500  0.00620  0.72400  1.0000 -0.1360954792
C   C162      1.0  0.81500  0.99380  0.22400  1.0000 -0.1360954792
C   C163      1.0  0.99380  0.81500  0.77600  1.0000 -0.1360954792
C   C164      1.0  0.00620  0.18500  0.27600  1.0000 -0.1360954792
C   C165      1.0  0.17170  0.97370  0.69590  1.0000 0.1009965322
C   C166      1.0  0.82830  0.02630  0.19590  1.0000 0.1009965322
C   C167      1.0  0.02630  0.82830  0.80410  1.0000 0.1009965322
C   C168      1.0  0.97370  0.17170  0.30410  1.0000 0.1009965322
C   C169      1.0  0.20740  0.94600  0.67460  1.0000 0.0821253768
C   C170      1.0  0.79260  0.05400  0.17460  1.0000 0.0821253768
C   C171      1.0  0.05400  0.79260  0.82540  1.0000 0.0821253768
C   C172      1.0  0.94600  0.20740  0.32540  1.0000 0.0821253768
C   C173      1.0  0.26210  0.94470  0.68560  1.0000 -0.1800729856
C   C174      1.0  0.73790  0.05530  0.18560  1.0000 -0.1800729856
C   C175      1.0  0.05530  0.73790  0.81440  1.0000 -0.1800729856
C   C176      1.0  0.94470  0.26210  0.31440  1.0000 -0.1800729856
C   C177      1.0  0.29660  0.92000  0.66420  1.0000 0.0893748477
C   C178      1.0  0.70340  0.08000  0.16420  1.0000 0.0893748477
C   C179      1.0  0.08000  0.70340  0.83580  1.0000 0.0893748477
C   C180      1.0  0.92000  0.29660  0.33580  1.0000 0.0893748477
C   C181      1.0  0.27620  0.89640  0.63160  1.0000 -0.1882068059
C   C182      1.0  0.72380  0.10360  0.13160  1.0000 -0.1882068059
C   C183      1.0  0.10360  0.72380  0.86840  1.0000 -0.1882068059
C   C184      1.0  0.89640  0.27620  0.36840  1.0000 -0.1882068059
C   C185      1.0  0.22150  0.89770  0.62050  1.0000 0.0821253768
C   C186      1.0  0.77850  0.10230  0.12050  1.0000 0.0821253768
C   C187      1.0  0.10230  0.77850  0.87950  1.0000 0.0821253768
C   C188      1.0  0.89770  0.22150  0.37950  1.0000 0.0821253768
C   C189      1.0  0.18700  0.92240  0.64200  1.0000 -0.1882068059
C   C190      1.0  0.81300  0.07760  0.14200  1.0000 -0.1882068059
C   C191      1.0  0.07760  0.81300  0.85800  1.0000 -0.1882068059
C   C192      1.0  0.92240  0.18700  0.35800  1.0000 -0.1882068059
C   C193      1.0  0.40110  0.91190  0.65350  1.0000 -0.1699870459
C   C194      1.0  0.59890  0.08810  0.15350  1.0000 -0.1699870459
C   C195      1.0  0.08810  0.59890  0.84650  1.0000 -0.1699870459
C   C196      1.0  0.91190  0.40110  0.34650  1.0000 -0.1699870459
C   C197      1.0  0.35750  0.92290  0.67330  1.0000 0.1209250516
C   C198      1.0  0.64250  0.07710  0.17330  1.0000 0.1209250516
C   C199      1.0  0.07710  0.64250  0.82670  1.0000 0.1209250516
C   C200      1.0  0.92290  0.35750  0.32670  1.0000 0.1209250516
C   C201      1.0  0.50120  0.90820  0.66800  1.0000 0.1615235209
C   C202      1.0  0.49880  0.09180  0.16800  1.0000 0.150164834
C   C203      1.0  0.09180  0.49880  0.83200  1.0000 0.150164834
C   C204      1.0  0.90820  0.50120  0.33200  1.0000 0.1615235209
C   C205      1.0  0.51650  0.88770  0.63590  1.0000 -0.1882068059
C   C206      1.0  0.48350  0.11230  0.13590  1.0000 -0.1882068059
C   C207      1.0  0.11230  0.48350  0.86410  1.0000 -0.1882068059
C   C208      1.0  0.88770  0.51650  0.36410  1.0000 -0.1882068059
C   C209      1.0  0.57350  0.88990  0.62860  1.0000 -0.0782138296
C   C210      1.0  0.42650  0.11010  0.12860  1.0000 -0.0782138296
C   C211      1.0  0.11010  0.42650  0.87140  1.0000 -0.0782138296
C   C212      1.0  0.88990  0.57350  0.37140  1.0000 -0.0782138296
C   C213      1.0  0.61550  0.91270  0.65350  1.0000 -0.0510455727
C   C214      1.0  0.38450  0.08730  0.15350  1.0000 -0.0510455727
C   C215      1.0  0.08730  0.38450  0.84650  1.0000 -0.0510455727
C   C216      1.0  0.91270  0.61550  0.34650  1.0000 -0.0510455727
C   C217      1.0  0.60007  0.93333  0.68570  1.0000 -0.0617952468
C   C218      1.0  0.39993  0.06667  0.18570  1.0000 -0.0617952468
C   C219      1.0  0.06667  0.39993  0.81430  1.0000 -0.0617952468
C   C220      1.0  0.93333  0.60007  0.31430  1.0000 -0.0617952468
C   C221      1.0  0.54310  0.93110  0.69290  1.0000 -0.1699870459
C   C222      1.0  0.45690  0.06890  0.19290  1.0000 -0.1699870459
C   C223      1.0  0.06890  0.45690  0.80710  1.0000 -0.1699870459
C   C224      1.0  0.93110  0.54310  0.30710  1.0000 -0.1699870459
C   C225      1.0  0.67260  0.90440  0.64530  1.0000 0.5982463022
C   C226      1.0  0.32740  0.09560  0.14530  1.0000 0.5982463022
C   C227      1.0  0.09560  0.32740  0.85470  1.0000 0.5982463022
C   C228      1.0  0.90440  0.67260  0.35470  1.0000 0.5982463022
C   C229      1.0  0.20170  0.87250  0.58420  1.0000 0.1009965322
C   C230      1.0  0.79830  0.12750  0.08420  1.0000 0.1009965322
C   C231      1.0  0.12750  0.79830  0.91580  1.0000 0.1009965322
C   C232      1.0  0.87250  0.20170  0.41580  1.0000 0.1052425354
C   C233      1.0  0.15490  0.87030  0.56750  1.0000 -0.108597979
C   C234      1.0  0.84510  0.12970  0.06750  1.0000 -0.108597979
C   C235      1.0  0.12970  0.84510  0.93250  1.0000 -0.108597979
C   C236      1.0  0.87030  0.15490  0.43250  1.0000 -0.108597979
C   C237      1.0  0.11830  0.82790  0.50940  1.0000 0.1303484121
C   C238      1.0  0.88170  0.17210  0.00940  1.0000 0.1303484121
C   C239      1.0  0.17210  0.88170  0.99060  1.0000 0.1303484121
C   C240      1.0  0.82790  0.11830  0.49060  1.0000 0.1303484121
C   C241      1.0  0.13320  0.80060  0.47960  1.0000 -0.1800729856
C   C242      1.0  0.86680  0.19940  0.97960  1.0000 -0.1800729856
C   C243      1.0  0.19940  0.86680  0.02040  1.0000 -0.1800729856
C   C244      1.0  0.80060  0.13320  0.52040  1.0000 -0.1800729856
C   C245      1.0  0.09440  0.78460  0.45200  1.0000 -0.0617952468
C   C246      1.0  0.90560  0.21540  0.95200  1.0000 -0.0617952468
C   C247      1.0  0.21540  0.90560  0.04800  1.0000 -0.0617952468
C   C248      1.0  0.78460  0.09440  0.54800  1.0000 -0.0617952468
C   C249      1.0  0.04050  0.79590  0.45420  1.0000 -0.0782138296
C   C250      1.0  0.95950  0.20410  0.95420  1.0000 -0.0782138296
C   C251      1.0  0.20410  0.95950  0.04580  1.0000 -0.0782138296
C   C252      1.0  0.79590  0.04050  0.54580  1.0000 -0.0782138296
C   C253      1.0  0.02550  0.82330  0.48400  1.0000 -0.0617952468
C   C254      1.0  0.97450  0.17670  0.98400  1.0000 -0.0617952468
C   C255      1.0  0.17670  0.97450  0.01600  1.0000 -0.0617952468
C   C256      1.0  0.82330  0.02550  0.51600  1.0000 -0.0617952468
C   C257      1.0  0.06450  0.83930  0.51160  1.0000 -0.1958290292
C   C258      1.0  0.93550  0.16070  0.01160  1.0000 -0.1958290292
C   C259      1.0  0.16070  0.93550  0.98840  1.0000 -0.1958290292
C   C260      1.0  0.83930  0.06450  0.48840  1.0000 -0.1958290292
C   C261      1.0  0.00050  0.78290  0.42490  1.0000 0.5982463022
C   C262      1.0  0.99950  0.21710  0.92490  1.0000 0.5982463022
C   C263      1.0  0.21710  0.99950  0.07510  1.0000 0.5897845923
C   C264      1.0  0.78290  0.00050  0.57510  1.0000 0.5982463022
N   N1        1.0  0.76340  0.03280  0.97338  1.0000 0.1390900259
N   N2        1.0  0.23660  0.96720  0.47338  1.0000 0.1390900259
N   N3        1.0  0.96720  0.23660  0.52662  1.0000 0.1390900259
N   N4        1.0  0.03280  0.76340  0.02662  1.0000 0.1390900259
N   N5        1.0  0.69200  0.99980  0.00920  1.0000 -0.1882068059
N   N6        1.0  0.30800  0.00020  0.50920  1.0000 -0.1958290292
N   N7        1.0  0.00020  0.30800  0.49080  1.0000 -0.1958290292
N   N8        1.0  0.99980  0.69200  0.99080  1.0000 -0.1958290292
N   N9        1.0  0.70600  0.02060  0.97640  1.0000 -0.108597979
N   N10       1.0  0.29400  0.97940  0.47640  1.0000 -0.108597979
N   N11       1.0  0.97940  0.29400  0.52360  1.0000 -0.108597979
N   N12       1.0  0.02060  0.70600  0.02360  1.0000 -0.108597979
N   N13       1.0  0.88180  0.92380  0.10470  1.0000 -0.2325957604
N   N14       1.0  0.11820  0.07620  0.60470  1.0000 -0.2325957604
N   N15       1.0  0.07620  0.11820  0.39530  1.0000 -0.2325957604
N   N16       1.0  0.92380  0.88180  0.89530  1.0000 -0.2355086655
N   N17       1.0  0.92270  0.90990  0.12510  1.0000 -0.1287838618
N   N18       1.0  0.07730  0.09010  0.62510  1.0000 -0.1287838618
N   N19       1.0  0.09010  0.07730  0.37490  1.0000 -0.1287838618
N   N20       1.0  0.90990  0.92270  0.87490  1.0000 -0.1287838618
N   N21       1.0  0.89920  0.89240  0.15710  1.0000 0.1390900259
N   N22       1.0  0.10080  0.10760  0.65710  1.0000 0.1390900259
N   N23       1.0  0.10760  0.10080  0.34290  1.0000 0.1390900259
N   N24       1.0  0.89240  0.89920  0.84290  1.0000 0.1390900259
N   N25       1.0  0.54370  0.92310  0.15690  1.0000 0.1303484121
N   N26       1.0  0.45630  0.07690  0.65690  1.0000 0.1303484121
N   N27       1.0  0.07690  0.45630  0.34310  1.0000 0.1303484121
N   N28       1.0  0.92310  0.54370  0.84310  1.0000 0.1303484121
N   N29       1.0  0.57570  0.90210  0.18140  1.0000 -0.1287838618
N   N30       1.0  0.42430  0.09790  0.68140  1.0000 -0.1287838618
N   N31       1.0  0.09790  0.42430  0.31860  1.0000 -0.1287838618
N   N32       1.0  0.90210  0.57570  0.81860  1.0000 -0.1287838618
N   N33       1.0  0.63000  0.90860  0.16800  1.0000 -0.2501676604
N   N34       1.0  0.37000  0.09140  0.66800  1.0000 -0.2501676604
N   N35       1.0  0.09140  0.37000  0.33200  1.0000 -0.2501676604
N   N36       1.0  0.90860  0.63000  0.83200  1.0000 -0.2501676604
N   N37       1.0  0.13850  0.02010  0.73510  1.0000 0.150164834
N   N38       1.0  0.86150  0.97990  0.23510  1.0000 0.150164834
N   N39       1.0  0.97990  0.86150  0.76490  1.0000 0.150164834
N   N40       1.0  0.02010  0.13850  0.26490  1.0000 0.150164834
N   N41       1.0  0.11700  0.96740  0.68960  1.0000 -0.1958290292
N   N42       1.0  0.88300  0.03260  0.18960  1.0000 -0.1958290292
N   N43       1.0  0.03260  0.88300  0.81040  1.0000 -0.1958290292
N   N44       1.0  0.96740  0.11700  0.31040  1.0000 -0.1958290292
N   N45       1.0  0.09630  0.99610  0.71390  1.0000 -0.108597979
N   N46       1.0  0.90370  0.00390  0.21390  1.0000 -0.108597979
N   N47       1.0  0.00390  0.90370  0.78610  1.0000 -0.108597979
N   N48       1.0  0.99610  0.09630  0.28610  1.0000 -0.108597979
N   N49       1.0  0.37790  0.93830  0.70650  1.0000 -0.2244621962
N   N50       1.0  0.62210  0.06170  0.20650  1.0000 -0.2244621962
N   N51       1.0  0.06170  0.62210  0.79350  1.0000 -0.2325957604
N   N52       1.0  0.93830  0.37790  0.29350  1.0000 -0.2244621962
N   N53       1.0  0.43420  0.93700  0.70720  1.0000 -0.1287838618
N   N54       1.0  0.56580  0.06300  0.20720  1.0000 -0.1287838618
N   N55       1.0  0.06300  0.56580  0.79280  1.0000 -0.1287838618
N   N56       1.0  0.93700  0.43420  0.29280  1.0000 -0.1287838618
N   N57       1.0  0.44840  0.92060  0.67450  1.0000 0.1303484121
N   N58       1.0  0.55160  0.07940  0.17450  1.0000 0.1303484121
N   N59       1.0  0.07940  0.55160  0.82550  1.0000 0.1303484121
N   N60       1.0  0.92060  0.44840  0.32550  1.0000 0.1303484121
N   N61       1.0  0.15720  0.84440  0.53800  1.0000 0.150164834
N   N62       1.0  0.84280  0.15560  0.03800  1.0000 0.150164834
N   N63       1.0  0.15560  0.84280  0.96200  1.0000 0.150164834
N   N64       1.0  0.84440  0.15720  0.46200  1.0000 0.150164834
N   N65       1.0  0.20530  0.83050  0.53650  1.0000 -0.0705963165
N   N66       1.0  0.79470  0.16950  0.03650  1.0000 -0.0705963165
N   N67       1.0  0.16950  0.79470  0.96350  1.0000 -0.0705963165
N   N68       1.0  0.83050  0.20530  0.46350  1.0000 -0.0705963165
N   N69       1.0  0.23290  0.84810  0.56510  1.0000 -0.1699870459
N   N70       1.0  0.76710  0.15190  0.06510  1.0000 -0.1699870459
N   N71       1.0  0.15190  0.76710  0.93490  1.0000 -0.1699870459
N   N72       1.0  0.84810  0.23290  0.43490  1.0000 -0.1699870459
O   O1        1.0  0.80240  0.19760  0.75000  1.0000 -0.7225953043
O   O2        1.0  0.19760  0.80240  0.25000  1.0000 -0.7225953043
O   O3        1.0  0.99820  0.78540  0.28860  1.0000 -0.5265854233
O   O4        1.0  0.00180  0.21460  0.78860  1.0000 -0.5265854233
O   O5        1.0  0.21460  0.00180  0.21140  1.0000 -0.5265854233
O   O6        1.0  0.78540  0.99820  0.71140  1.0000 -0.5265854233
O   O7        1.0  0.91880  0.15300  0.84510  1.0000 -0.5785782189
O   O8        1.0  0.08120  0.84700  0.34510  1.0000 -0.5785782189
O   O9        1.0  0.84700  0.08120  0.65490  1.0000 -0.5785782189
O   O10       1.0  0.15300  0.91880  0.15490  1.0000 -0.5785782189
O   O11       1.0  0.28610  0.94570  0.15780  1.0000 -0.5785782189
O   O12       1.0  0.71390  0.05430  0.65780  1.0000 -0.5785782189
O   O13       1.0  0.05430  0.71390  0.34220  1.0000 -0.5785782189
O   O14       1.0  0.94570  0.28610  0.84220  1.0000 -0.5785782189
O   O15       1.0  0.01290  0.76130  0.39740  1.0000 -0.5220962736
O   O16       1.0  0.98710  0.23870  0.89740  1.0000 -0.5220962736
O   O17       1.0  0.23870  0.98710  0.10260  1.0000 -0.5265854233
O   O18       1.0  0.76130  0.01290  0.60260  1.0000 -0.5220962736
O   O19       1.0  0.71230  0.93710  0.66140  1.0000 -0.548625006
O   O20       1.0  0.28770  0.06290  0.16140  1.0000 -0.548625006
O   O21       1.0  0.06290  0.28770  0.83860  1.0000 -0.548625006
O   O22       1.0  0.93710  0.71230  0.33860  1.0000 -0.548625006
O   O23       1.0  0.83550  0.16690  0.82881  1.0000 -0.5220962736
O   O24       1.0  0.16450  0.83310  0.32881  1.0000 -0.5220962736
O   O25       1.0  0.83310  0.16450  0.67119  1.0000 -0.5220962736
O   O26       1.0  0.16690  0.83550  0.17119  1.0000 -0.5220962736
O   O27       1.0  0.94900  0.78540  0.43260  1.0000 -0.5579259933
O   O28       1.0  0.05100  0.21460  0.93260  1.0000 -0.5579259933
O   O29       1.0  0.21460  0.05100  0.06740  1.0000 -0.5579259933
O   O30       1.0  0.78540  0.94900  0.56740  1.0000 -0.5579259933
O   O31       1.0  0.03770  0.16270  0.85170  1.0000 -0.5710444153
O   O32       1.0  0.96230  0.83730  0.35170  1.0000 -0.5710444153
O   O33       1.0  0.83730  0.96230  0.64830  1.0000 -0.5710444153
O   O34       1.0  0.16270  0.03770  0.14830  1.0000 -0.5710444153
O   O35       1.0  0.13120  0.18880  0.86210  1.0000 -0.5579259933
O   O36       1.0  0.86880  0.81120  0.36210  1.0000 -0.548625006
O   O37       1.0  0.81120  0.86880  0.63790  1.0000 -0.548625006
O   O38       1.0  0.18880  0.13120  0.13790  1.0000 -0.548625006
O   O39       1.0  0.07760  0.82160  0.25768  1.0000 -0.548625006
O   O40       1.0  0.92240  0.17840  0.75768  1.0000 -0.548625006
O   O41       1.0  0.17840  0.92240  0.24232  1.0000 -0.548625006
O   O42       1.0  0.82160  0.07760  0.74232  1.0000 -0.548625006
O   O43       1.0  0.28760  0.88980  0.20460  1.0000 -0.5220962736
O   O44       1.0  0.71240  0.11020  0.70460  1.0000 -0.5220962736
O   O45       1.0  0.11020  0.71240  0.29540  1.0000 -0.5220962736
O   O46       1.0  0.88980  0.28760  0.79540  1.0000 -0.5220962736
O   O47       1.0  0.67900  0.88640  0.61500  1.0000 -0.5265854233
O   O48       1.0  0.32100  0.11360  0.11500  1.0000 -0.5265854233
O   O49       1.0  0.11360  0.32100  0.88500  1.0000 -0.5265854233
O   O50       1.0  0.88640  0.67900  0.38500  1.0000 -0.5265854233
