# DDEC6 charges by PACMAN v1.1 (https://github.com/mtap-research/PACMAN-charge/)
data_2017[Pr][nan]3[ASR]2
_chemical_formula_sum              "Pr4 H60 C96 N4 O32"
_cell_length_a       15.837
_cell_length_b       10.568
_cell_length_c       21.099
_cell_angle_alpha    90
_cell_angle_beta     107.098
_cell_angle_gamma    90

_symmetry_space_group_name_H-M    "P 1"
_symmetry_Int_Tables_number       1

loop_
  _symmetry_equiv_pos_as_xyz
  'x, y, z'

loop_
  _atom_site_type_symbol
  _atom_site_label
  _atom_site_symmetry_multiplicity
  _atom_site_fract_x
  _atom_site_fract_y
  _atom_site_fract_z
  _atom_site_occupancy
  _atom_site_charge
Pr  Pr1       1.0  0.60081  0.91882  0.45303  1.0000 2.1446183671
Pr  Pr2       1.0  0.39919  0.91882  0.04697  1.0000 2.1451214303
Pr  Pr3       1.0  0.39919  0.08118  0.54697  1.0000 2.1446183671
Pr  Pr4       1.0  0.60081  0.08118  0.95303  1.0000 2.1446183671
H   H1        1.0  0.29310  0.29680  0.34390  1.0000 0.1300358449
H   H2        1.0  0.70690  0.29680  0.15610  1.0000 0.1300358449
H   H3        1.0  0.70690  0.70320  0.65610  1.0000 0.1300358449
H   H4        1.0  0.29310  0.70320  0.84390  1.0000 0.1300358449
H   H5        1.0  0.43040  0.02860  0.28220  1.0000 0.1453422208
H   H6        1.0  0.56960  0.02860  0.21780  1.0000 0.1453422208
H   H7        1.0  0.56960  0.97140  0.71780  1.0000 0.1453422208
H   H8        1.0  0.43040  0.97140  0.78220  1.0000 0.1453422208
H   H9        1.0  0.23330  0.21560  0.15210  1.0000 0.1300358449
H   H10       1.0  0.76670  0.21560  0.34790  1.0000 0.1300358449
H   H11       1.0  0.76670  0.78440  0.84790  1.0000 0.1300358449
H   H12       1.0  0.23330  0.78440  0.65210  1.0000 0.1300358449
H   H13       1.0  0.11890  0.48930  0.16480  1.0000 0.120884794
H   H14       1.0  0.88110  0.48930  0.33520  1.0000 0.120884794
H   H15       1.0  0.88110  0.51070  0.83520  1.0000 0.120884794
H   H16       1.0  0.11890  0.51070  0.66480  1.0000 0.120884794
H   H17       1.0  0.17080  0.38910  0.13620  1.0000 0.1300358449
H   H18       1.0  0.82920  0.38910  0.36380  1.0000 0.1300358449
H   H19       1.0  0.82920  0.61090  0.86380  1.0000 0.1300358449
H   H20       1.0  0.17080  0.61090  0.63620  1.0000 0.1300358449
H   H21       1.0  0.15910  0.36000  0.31870  1.0000 0.120884794
H   H22       1.0  0.84090  0.36000  0.18130  1.0000 0.120884794
H   H23       1.0  0.84090  0.64000  0.68130  1.0000 0.120884794
H   H24       1.0  0.15910  0.64000  0.81870  1.0000 0.120884794
H   H25       1.0  0.09840  0.45380  0.26770  1.0000 0.120884794
H   H26       1.0  0.90160  0.45380  0.23230  1.0000 0.120884794
H   H27       1.0  0.90160  0.54620  0.73230  1.0000 0.120884794
H   H28       1.0  0.09840  0.54620  0.76770  1.0000 0.120884794
H   H29       1.0  0.07800  0.19200  0.21200  1.0000 0.120884794
H   H30       1.0  0.92200  0.19200  0.28800  1.0000 0.120884794
H   H31       1.0  0.92200  0.80800  0.78800  1.0000 0.120884794
H   H32       1.0  0.07800  0.80800  0.71200  1.0000 0.120884794
H   H33       1.0  0.99620  0.43370  0.06130  1.0000 0.120884794
H   H34       1.0  0.00380  0.43370  0.43870  1.0000 0.120884794
H   H35       1.0  0.00380  0.56630  0.93870  1.0000 0.120884794
H   H36       1.0  0.99620  0.56630  0.56130  1.0000 0.120884794
H   H37       1.0  0.31160  0.52400  0.27740  1.0000 0.120884794
H   H38       1.0  0.68840  0.52400  0.22260  1.0000 0.120884794
H   H39       1.0  0.68840  0.47600  0.72260  1.0000 0.120884794
H   H40       1.0  0.31160  0.47600  0.77740  1.0000 0.120884794
H   H41       1.0  0.13410  0.58410  0.37360  1.0000 0.120884794
H   H42       1.0  0.86590  0.58410  0.12640  1.0000 0.120884794
H   H43       1.0  0.86590  0.41590  0.62640  1.0000 0.120884794
H   H44       1.0  0.13410  0.41590  0.87360  1.0000 0.120884794
H   H45       1.0  0.95110  0.07340  0.17110  1.0000 0.120884794
H   H46       1.0  0.04890  0.07340  0.32890  1.0000 0.120884794
H   H47       1.0  0.04890  0.92660  0.82890  1.0000 0.120884794
H   H48       1.0  0.95110  0.92660  0.67110  1.0000 0.120884794
H   H49       1.0  0.86890  0.31860  0.02040  1.0000 0.1300358449
H   H50       1.0  0.13110  0.31860  0.47960  1.0000 0.1300358449
H   H51       1.0  0.13110  0.68140  0.97960  1.0000 0.1300358449
H   H52       1.0  0.86890  0.68140  0.52040  1.0000 0.1300358449
H   H53       1.0  0.39770  0.68820  0.33540  1.0000 0.1300358449
H   H54       1.0  0.60230  0.68820  0.16460  1.0000 0.1300358449
H   H55       1.0  0.60230  0.31180  0.66460  1.0000 0.1300358449
H   H56       1.0  0.39770  0.31180  0.83540  1.0000 0.1300358449
H   H57       1.0  0.22000  0.74540  0.43360  1.0000 0.1384614159
H   H58       1.0  0.78000  0.74540  0.06640  1.0000 0.1384614159
H   H59       1.0  0.78000  0.25460  0.56640  1.0000 0.1384614159
H   H60       1.0  0.22000  0.25460  0.93360  1.0000 0.1384614159
C   C1        1.0  0.42150  0.13500  0.39580  1.0000 0.6505831231
C   C2        1.0  0.57850  0.13500  0.10420  1.0000 0.6505831231
C   C3        1.0  0.57850  0.86500  0.60420  1.0000 0.6505831231
C   C4        1.0  0.42150  0.86500  0.89580  1.0000 0.6505831231
C   C5        1.0  0.36890  0.15720  0.32410  1.0000 0.0070583162
C   C6        1.0  0.63110  0.15720  0.17590  1.0000 0.0070583162
C   C7        1.0  0.63110  0.84280  0.67590  1.0000 0.0070583162
C   C8        1.0  0.36890  0.84280  0.82410  1.0000 0.0070583162
C   C9        1.0  0.30270  0.24990  0.30940  1.0000 -0.1912498052
C   C10       1.0  0.69730  0.24990  0.19060  1.0000 -0.1912498052
C   C11       1.0  0.69730  0.75010  0.69060  1.0000 -0.1912498052
C   C12       1.0  0.30270  0.75010  0.80940  1.0000 -0.1912498052
C   C13       1.0  0.38530  0.08830  0.27340  1.0000 -0.110944743
C   C14       1.0  0.61470  0.08830  0.22660  1.0000 -0.110944743
C   C15       1.0  0.61470  0.91170  0.72660  1.0000 -0.110944743
C   C16       1.0  0.38530  0.91170  0.77340  1.0000 -0.110944743
C   C17       1.0  0.25160  0.27380  0.24590  1.0000 0.1647402693
C   C18       1.0  0.74840  0.27380  0.25410  1.0000 0.1647402693
C   C19       1.0  0.74840  0.72620  0.75410  1.0000 0.1647402693
C   C20       1.0  0.25160  0.72620  0.74590  1.0000 0.1647402693
C   C21       1.0  0.33280  0.11040  0.20870  1.0000 0.0223468703
C   C22       1.0  0.66720  0.11040  0.29130  1.0000 0.0223468703
C   C23       1.0  0.66720  0.88960  0.79130  1.0000 0.0223468703
C   C24       1.0  0.33280  0.88960  0.70870  1.0000 0.0223468703
C   C25       1.0  0.26740  0.20200  0.19560  1.0000 -0.1912498052
C   C26       1.0  0.73260  0.20200  0.30440  1.0000 -0.1912498052
C   C27       1.0  0.73260  0.79800  0.80440  1.0000 -0.1912498052
C   C28       1.0  0.26740  0.79800  0.69560  1.0000 -0.1912498052
C   C29       1.0  0.34650  0.03410  0.15250  1.0000 0.5690942754
C   C30       1.0  0.65350  0.03410  0.34750  1.0000 0.5690942754
C   C31       1.0  0.65350  0.96590  0.84750  1.0000 0.5690942754
C   C32       1.0  0.34650  0.96590  0.65250  1.0000 0.5690942754
C   C33       1.0  0.13500  0.40060  0.16610  1.0000 -0.1794354922
C   C34       1.0  0.86500  0.40060  0.33390  1.0000 -0.1794354922
C   C35       1.0  0.86500  0.59940  0.83390  1.0000 -0.1794354922
C   C36       1.0  0.13500  0.59940  0.66610  1.0000 -0.1794354922
C   C37       1.0  0.15880  0.42480  0.28600  1.0000 -0.1681095611
C   C38       1.0  0.84120  0.42480  0.21400  1.0000 -0.1681095611
C   C39       1.0  0.84120  0.57520  0.71400  1.0000 -0.1681095611
C   C40       1.0  0.15880  0.57520  0.78600  1.0000 -0.1681095611
C   C41       1.0  0.05210  0.32320  0.14110  1.0000 0.1073445652
C   C42       1.0  0.94790  0.32320  0.35890  1.0000 0.1073445652
C   C43       1.0  0.94790  0.67680  0.85890  1.0000 0.1073445652
C   C44       1.0  0.05210  0.67680  0.64110  1.0000 0.1073445652
C   C45       1.0  0.21570  0.53570  0.32080  1.0000 0.1010676913
C   C46       1.0  0.78430  0.53570  0.17920  1.0000 0.1010676913
C   C47       1.0  0.78430  0.46430  0.67920  1.0000 0.1010676913
C   C48       1.0  0.21570  0.46430  0.82080  1.0000 0.1010676913
C   C49       1.0  0.03640  0.21700  0.17290  1.0000 -0.1605432469
C   C50       1.0  0.96360  0.21700  0.32710  1.0000 -0.1605432469
C   C51       1.0  0.96360  0.78300  0.82710  1.0000 -0.1605432469
C   C52       1.0  0.03640  0.78300  0.67290  1.0000 -0.1605432469
C   C53       1.0  0.98750  0.36080  0.08340  1.0000 -0.1794354922
C   C54       1.0  0.01250  0.36080  0.41660  1.0000 -0.1794354922
C   C55       1.0  0.01250  0.63920  0.91660  1.0000 -0.1794354922
C   C56       1.0  0.98750  0.63920  0.58340  1.0000 -0.1794354922
C   C57       1.0  0.29310  0.56810  0.30920  1.0000 -0.1475723784
C   C58       1.0  0.70690  0.56810  0.19080  1.0000 -0.1475723784
C   C59       1.0  0.70690  0.43190  0.69080  1.0000 -0.1475723784
C   C60       1.0  0.29310  0.43190  0.80920  1.0000 -0.1475723784
C   C61       1.0  0.18790  0.60360  0.36650  1.0000 -0.1605432469
C   C62       1.0  0.81210  0.60360  0.13350  1.0000 -0.1605432469
C   C63       1.0  0.81210  0.39640  0.63350  1.0000 -0.1605432469
C   C64       1.0  0.18790  0.39640  0.86650  1.0000 -0.1605432469
C   C65       1.0  0.96010  0.14550  0.14860  1.0000 -0.0812271821
C   C66       1.0  0.03990  0.14550  0.35140  1.0000 -0.0812271821
C   C67       1.0  0.03990  0.85450  0.85140  1.0000 -0.0812271821
C   C68       1.0  0.96010  0.85450  0.64860  1.0000 -0.0812271821
C   C69       1.0  0.91130  0.29190  0.05870  1.0000 -0.0888727705
C   C70       1.0  0.08870  0.29190  0.44130  1.0000 -0.0888727705
C   C71       1.0  0.08870  0.70810  0.94130  1.0000 -0.0888727705
C   C72       1.0  0.91130  0.70810  0.55870  1.0000 -0.0888727705
C   C73       1.0  0.34530  0.66680  0.34420  1.0000 -0.0812271821
C   C74       1.0  0.65470  0.66680  0.15580  1.0000 -0.0812271821
C   C75       1.0  0.65470  0.33320  0.65580  1.0000 -0.0812271821
C   C76       1.0  0.34530  0.33320  0.84420  1.0000 -0.0812271821
C   C77       1.0  0.23920  0.70100  0.40240  1.0000 -0.0628226052
C   C78       1.0  0.76080  0.70100  0.09760  1.0000 -0.0628226052
C   C79       1.0  0.76080  0.29900  0.59760  1.0000 -0.0628226052
C   C80       1.0  0.23920  0.29900  0.90240  1.0000 -0.0628226052
C   C81       1.0  0.89730  0.18270  0.09060  1.0000 -0.0416569214
C   C82       1.0  0.10270  0.18270  0.40940  1.0000 -0.0416569214
C   C83       1.0  0.10270  0.81730  0.90940  1.0000 -0.0416569214
C   C84       1.0  0.89730  0.81730  0.59060  1.0000 -0.0416569214
C   C85       1.0  0.31910  0.73210  0.39170  1.0000 -0.0228944297
C   C86       1.0  0.68090  0.73210  0.10830  1.0000 -0.0228944297
C   C87       1.0  0.68090  0.26790  0.60830  1.0000 -0.0228944297
C   C88       1.0  0.31910  0.26790  0.89170  1.0000 -0.0228944297
C   C89       1.0  0.81580  0.10900  0.06290  1.0000 0.5979709675
C   C90       1.0  0.18420  0.10900  0.43710  1.0000 0.5979709675
C   C91       1.0  0.18420  0.89100  0.93710  1.0000 0.5979709675
C   C92       1.0  0.81580  0.89100  0.56290  1.0000 0.5979709675
C   C93       1.0  0.37780  0.83110  0.43220  1.0000 0.6571561594
C   C94       1.0  0.62220  0.83110  0.06780  1.0000 0.6571561594
C   C95       1.0  0.62220  0.16890  0.56780  1.0000 0.6571561594
C   C96       1.0  0.37780  0.16890  0.93220  1.0000 0.6571561594
N   N1        1.0  0.18820  0.36900  0.23320  1.0000 -0.0727409746
N   N2        1.0  0.81180  0.36900  0.26680  1.0000 -0.0727409746
N   N3        1.0  0.81180  0.63100  0.76680  1.0000 -0.0727409746
N   N4        1.0  0.18820  0.63100  0.73320  1.0000 -0.0727409746
O   O1        1.0  0.45720  0.82780  0.43540  1.0000 -0.6754420649
O   O2        1.0  0.54280  0.82780  0.06460  1.0000 -0.6754420649
O   O3        1.0  0.54280  0.17220  0.56460  1.0000 -0.6754420649
O   O4        1.0  0.45720  0.17220  0.93540  1.0000 -0.6754420649
O   O5        1.0  0.49470  0.07820  0.40720  1.0000 -0.6885265361
O   O6        1.0  0.50530  0.07820  0.09280  1.0000 -0.6885265361
O   O7        1.0  0.50530  0.92180  0.59280  1.0000 -0.6885265361
O   O8        1.0  0.49470  0.92180  0.90720  1.0000 -0.6885265361
O   O9        1.0  0.60990  0.82730  0.56040  1.0000 -0.6273504149
O   O10       1.0  0.39010  0.82730  0.93960  1.0000 -0.6273504149
O   O11       1.0  0.39010  0.17270  0.43960  1.0000 -0.6273504149
O   O12       1.0  0.60990  0.17270  0.06040  1.0000 -0.6273504149
O   O13       1.0  0.76200  0.86380  0.51070  1.0000 -0.5778362702
O   O14       1.0  0.23800  0.86380  0.98930  1.0000 -0.5778362702
O   O15       1.0  0.23800  0.13620  0.48930  1.0000 -0.5778362702
O   O16       1.0  0.76200  0.13620  0.01070  1.0000 -0.5778362702
O   O17       1.0  0.65560  0.08730  0.53870  1.0000 -0.6115930925
O   O18       1.0  0.34440  0.08730  0.96130  1.0000 -0.6115930925
O   O19       1.0  0.34440  0.91270  0.46130  1.0000 -0.6115930925
O   O20       1.0  0.65560  0.91270  0.03870  1.0000 -0.6115930925
O   O21       1.0  0.60690  0.93560  0.33620  1.0000 -0.6378513228
O   O22       1.0  0.39310  0.93560  0.16380  1.0000 -0.6378513228
O   O23       1.0  0.39310  0.06440  0.66380  1.0000 -0.6378513228
O   O24       1.0  0.60690  0.06440  0.83620  1.0000 -0.6378513228
O   O25       1.0  0.69020  0.07100  0.40600  1.0000 -0.6115930925
O   O26       1.0  0.30980  0.07100  0.09400  1.0000 -0.6115930925
O   O27       1.0  0.30980  0.92900  0.59400  1.0000 -0.6115930925
O   O28       1.0  0.69020  0.92900  0.90600  1.0000 -0.6115930925
O   O29       1.0  0.80680  0.01150  0.09920  1.0000 -0.5524489533
O   O30       1.0  0.19320  0.01150  0.40080  1.0000 -0.5524489533
O   O31       1.0  0.19320  0.98850  0.90080  1.0000 -0.5524489533
O   O32       1.0  0.80680  0.98850  0.59920  1.0000 -0.5524489533
