# DDEC6 charges by PACMAN v1.1 (https://github.com/mtap-research/PACMAN-charge/)
data_2017[Zn][dia]3[ASR]15
_chemical_formula_sum              "Zn4 H80 C104 N24 O24"
_cell_length_a       11.6025
_cell_length_b       16.398
_cell_length_c       16.796
_cell_angle_alpha    90
_cell_angle_beta     109.3
_cell_angle_gamma    90

_symmetry_space_group_name_H-M    "P 1"
_symmetry_Int_Tables_number       1

loop_
  _symmetry_equiv_pos_as_xyz
  'x, y, z'

loop_
  _atom_site_type_symbol
  _atom_site_label
  _atom_site_symmetry_multiplicity
  _atom_site_fract_x
  _atom_site_fract_y
  _atom_site_fract_z
  _atom_site_occupancy
  _atom_site_charge
Zn  Zn1       1.0  0.33270  0.00914  0.72535  1.0000 0.739849038
Zn  Zn2       1.0  0.33270  0.49086  0.22535  1.0000 0.739849038
Zn  Zn3       1.0  0.66730  0.50914  0.77465  1.0000 0.739849038
Zn  Zn4       1.0  0.66730  0.99086  0.27465  1.0000 0.739849038
H   H1        1.0  0.73270  0.19210  0.31970  1.0000 0.2996943068
H   H2        1.0  0.73270  0.30790  0.81970  1.0000 0.2996943068
H   H3        1.0  0.07720  0.07600  0.42750  1.0000 0.1449445259
H   H4        1.0  0.07720  0.42400  0.92750  1.0000 0.1449445259
H   H5        1.0  0.89260  0.14090  0.38650  1.0000 0.2942907881
H   H6        1.0  0.89260  0.35910  0.88650  1.0000 0.2942907881
H   H7        1.0  0.88100  0.70830  0.63360  1.0000 0.2735217881
H   H8        1.0  0.88100  0.79170  0.13360  1.0000 0.2735217881
H   H9        1.0  0.97220  0.63830  0.57480  1.0000 0.2735217881
H   H10       1.0  0.97220  0.86170  0.07480  1.0000 0.2735217881
H   H11       1.0  0.65700  0.82650  0.48730  1.0000 0.1191835466
H   H12       1.0  0.65700  0.67350  0.98730  1.0000 0.1191835466
H   H13       1.0  0.23840  0.02310  0.53380  1.0000 0.1191835466
H   H14       1.0  0.23840  0.47690  0.03380  1.0000 0.1191835466
H   H15       1.0  0.52060  0.91040  0.52550  1.0000 0.1263717521
H   H16       1.0  0.52060  0.58960  0.02550  1.0000 0.1263717521
H   H17       1.0  0.64700  0.82590  0.76240  1.0000 0.1191835466
H   H18       1.0  0.64700  0.67410  0.26240  1.0000 0.1191835466
H   H19       1.0  0.21690  0.52010  0.45470  1.0000 0.1099325067
H   H20       1.0  0.21690  0.97990  0.95470  1.0000 0.1099325067
H   H21       1.0  0.93950  0.15840  0.60310  1.0000 0.1478982937
H   H22       1.0  0.93950  0.34160  0.10310  1.0000 0.1478982937
H   H23       1.0  0.88720  0.69900  0.36280  1.0000 0.1191835466
H   H24       1.0  0.88720  0.80100  0.86280  1.0000 0.1191835466
H   H25       1.0  0.11210  0.55700  0.54460  1.0000 0.1263717521
H   H26       1.0  0.11210  0.94300  0.04460  1.0000 0.1263717521
H   H27       1.0  0.78470  0.74450  0.72680  1.0000 0.1191835466
H   H28       1.0  0.78470  0.75550  0.22680  1.0000 0.1191835466
H   H29       1.0  0.99770  0.66710  0.27540  1.0000 0.1099325067
H   H30       1.0  0.99770  0.83290  0.77540  1.0000 0.1099325067
H   H31       1.0  0.57820  0.24730  0.21270  1.0000 0.1576154303
H   H32       1.0  0.57820  0.25270  0.71270  1.0000 0.1576154303
H   H33       1.0  0.42530  0.34160  0.16510  1.0000 0.1191835466
H   H34       1.0  0.42530  0.15840  0.66510  1.0000 0.1191835466
H   H35       1.0  0.47690  0.41690  0.39640  1.0000 0.1191835466
H   H36       1.0  0.47690  0.08310  0.89640  1.0000 0.1191835466
H   H37       1.0  0.63300  0.32260  0.45200  1.0000 0.1478982937
H   H38       1.0  0.63300  0.17740  0.95200  1.0000 0.1478982937
H   H39       1.0  0.10190  0.09960  0.70410  1.0000 0.1042829525
H   H40       1.0  0.10190  0.40040  0.20410  1.0000 0.1042829525
H   H41       1.0  0.26730  0.69210  0.18030  1.0000 0.2996943068
H   H42       1.0  0.26730  0.80790  0.68030  1.0000 0.2996943068
H   H43       1.0  0.92280  0.57600  0.07250  1.0000 0.1449445259
H   H44       1.0  0.92280  0.92400  0.57250  1.0000 0.1449445259
H   H45       1.0  0.10740  0.64090  0.11350  1.0000 0.2942907881
H   H46       1.0  0.10740  0.85910  0.61350  1.0000 0.2942907881
H   H47       1.0  0.11900  0.20830  0.86640  1.0000 0.2735217881
H   H48       1.0  0.11900  0.29170  0.36640  1.0000 0.2735217881
H   H49       1.0  0.02780  0.13830  0.92520  1.0000 0.2735217881
H   H50       1.0  0.02780  0.36170  0.42520  1.0000 0.2735217881
H   H51       1.0  0.34300  0.32650  0.01270  1.0000 0.1191835466
H   H52       1.0  0.34300  0.17350  0.51270  1.0000 0.1191835466
H   H53       1.0  0.76160  0.52310  0.96620  1.0000 0.1191835466
H   H54       1.0  0.76160  0.97690  0.46620  1.0000 0.1191835466
H   H55       1.0  0.47940  0.41040  0.97450  1.0000 0.1263717521
H   H56       1.0  0.47940  0.08960  0.47450  1.0000 0.1263717521
H   H57       1.0  0.35300  0.32590  0.73760  1.0000 0.1191835466
H   H58       1.0  0.35300  0.17410  0.23760  1.0000 0.1191835466
H   H59       1.0  0.78310  0.02010  0.04530  1.0000 0.1099325067
H   H60       1.0  0.78310  0.47990  0.54530  1.0000 0.1099325067
H   H61       1.0  0.06050  0.65840  0.89690  1.0000 0.1478982937
H   H62       1.0  0.06050  0.84160  0.39690  1.0000 0.1478982937
H   H63       1.0  0.11280  0.19900  0.13720  1.0000 0.1191835466
H   H64       1.0  0.11280  0.30100  0.63720  1.0000 0.1191835466
H   H65       1.0  0.88790  0.05700  0.95540  1.0000 0.1263717521
H   H66       1.0  0.88790  0.44300  0.45540  1.0000 0.1263717521
H   H67       1.0  0.21530  0.24450  0.77320  1.0000 0.1191835466
H   H68       1.0  0.21530  0.25550  0.27320  1.0000 0.1191835466
H   H69       1.0  0.00230  0.16710  0.22460  1.0000 0.1099325067
H   H70       1.0  0.00230  0.33290  0.72460  1.0000 0.1099325067
H   H71       1.0  0.42180  0.74730  0.28730  1.0000 0.1576154303
H   H72       1.0  0.42180  0.75270  0.78730  1.0000 0.1576154303
H   H73       1.0  0.57470  0.84160  0.33490  1.0000 0.1191835466
H   H74       1.0  0.57470  0.65840  0.83490  1.0000 0.1191835466
H   H75       1.0  0.52310  0.91690  0.10360  1.0000 0.1191835466
H   H76       1.0  0.52310  0.58310  0.60360  1.0000 0.1191835466
H   H77       1.0  0.36700  0.82260  0.04800  1.0000 0.1478982937
H   H78       1.0  0.36700  0.67740  0.54800  1.0000 0.1478982937
H   H79       1.0  0.89810  0.59960  0.79590  1.0000 0.1042829525
H   H80       1.0  0.89810  0.90040  0.29590  1.0000 0.1042829525
C   C1        1.0  0.08080  0.08220  0.48390  1.0000 -0.2503687073
C   C2        1.0  0.08080  0.41780  0.98390  1.0000 -0.2503687073
C   C3        1.0  0.47810  0.93010  0.66870  1.0000 0.5420761775
C   C4        1.0  0.47810  0.56990  0.16870  1.0000 0.5420761775
C   C5        1.0  0.73580  0.77710  0.60390  1.0000 0.236615948
C   C6        1.0  0.73580  0.72290  0.10390  1.0000 0.236615948
C   C7        1.0  0.65600  0.82650  0.54300  1.0000 -0.1981749613
C   C8        1.0  0.65600  0.67350  0.04300  1.0000 -0.1981749613
C   C9        1.0  0.56960  0.87660  0.64710  1.0000 -0.0317492861
C   C10       1.0  0.56960  0.62340  0.14710  1.0000 -0.0317492861
C   C11       1.0  0.17650  0.05020  0.54790  1.0000 0.0904395577
C   C12       1.0  0.17650  0.44980  0.04790  1.0000 0.0904395577
C   C13       1.0  0.57400  0.87640  0.56630  1.0000 -0.0894902682
C   C14       1.0  0.57400  0.62360  0.06630  1.0000 -0.0894902682
C   C15       1.0  0.99130  0.63430  0.46450  1.0000 0.2528855573
C   C16       1.0  0.99130  0.86570  0.96450  1.0000 0.2528855573
C   C17       1.0  0.64900  0.82660  0.70690  1.0000 -0.0817092437
C   C18       1.0  0.64900  0.67340  0.20690  1.0000 -0.0817092437
C   C19       1.0  0.62830  0.27730  0.33500  1.0000 0.2795969766
C   C20       1.0  0.62830  0.22270  0.83500  1.0000 0.2795969766
C   C21       1.0  0.79850  0.20430  0.43980  1.0000 0.6224647235
C   C22       1.0  0.79850  0.29570  0.93980  1.0000 0.6224647235
C   C23       1.0  0.15210  0.55760  0.43670  1.0000 -0.0894902682
C   C24       1.0  0.15210  0.94240  0.93670  1.0000 -0.0894902682
C   C25       1.0  0.18960  0.57150  0.29730  1.0000 0.554758973
C   C26       1.0  0.18960  0.92850  0.79730  1.0000 0.554758973
C   C27       1.0  0.99900  0.13040  0.58710  1.0000 -0.2317413542
C   C28       1.0  0.99900  0.36960  0.08710  1.0000 -0.2317413542
C   C29       1.0  0.95570  0.66470  0.38230  1.0000 -0.1897715483
C   C30       1.0  0.95570  0.83530  0.88230  1.0000 -0.1897715483
C   C31       1.0  0.12000  0.59110  0.35630  1.0000 -0.0317492861
C   C32       1.0  0.12000  0.90890  0.85630  1.0000 -0.0317492861
C   C33       1.0  0.83690  0.70660  0.51280  1.0000 0.6133636307
C   C34       1.0  0.83690  0.79340  0.01280  1.0000 0.6133636307
C   C35       1.0  0.08900  0.57940  0.49000  1.0000 -0.2129047088
C   C36       1.0  0.08900  0.92060  0.99000  1.0000 -0.2129047088
C   C37       1.0  0.98850  0.12410  0.50310  1.0000 0.2795969766
C   C38       1.0  0.98850  0.37590  0.00310  1.0000 0.2795969766
C   C39       1.0  0.73100  0.77790  0.68550  1.0000 -0.2129047088
C   C40       1.0  0.73100  0.72210  0.18550  1.0000 -0.2129047088
C   C41       1.0  0.02060  0.64450  0.32990  1.0000 -0.0894902682
C   C42       1.0  0.02060  0.85550  0.82990  1.0000 -0.0894902682
C   C43       1.0  0.56160  0.28300  0.25140  1.0000 -0.2503687073
C   C44       1.0  0.56160  0.21700  0.75140  1.0000 -0.2503687073
C   C45       1.0  0.47050  0.34020  0.22300  1.0000 0.1099325067
C   C46       1.0  0.47050  0.15980  0.72300  1.0000 0.1099325067
C   C47       1.0  0.50160  0.38370  0.35940  1.0000 0.0540210191
C   C48       1.0  0.50160  0.11630  0.85940  1.0000 0.0540210191
C   C49       1.0  0.59440  0.32750  0.39340  1.0000 -0.2175991464
C   C50       1.0  0.59440  0.17250  0.89340  1.0000 -0.2175991464
C   C51       1.0  0.09710  0.09540  0.64720  1.0000 0.0595775764
C   C52       1.0  0.09710  0.40460  0.14720  1.0000 0.0595775764
C   C53       1.0  0.91920  0.58220  0.01610  1.0000 -0.2503687073
C   C54       1.0  0.91920  0.91780  0.51610  1.0000 -0.2503687073
C   C55       1.0  0.52190  0.43010  0.83130  1.0000 0.5420761775
C   C56       1.0  0.52190  0.06990  0.33130  1.0000 0.5420761775
C   C57       1.0  0.26420  0.27710  0.89610  1.0000 0.236615948
C   C58       1.0  0.26420  0.22290  0.39610  1.0000 0.236615948
C   C59       1.0  0.34400  0.32650  0.95700  1.0000 -0.1981749613
C   C60       1.0  0.34400  0.17350  0.45700  1.0000 -0.1981749613
C   C61       1.0  0.43040  0.37660  0.85290  1.0000 -0.0317492861
C   C62       1.0  0.43040  0.12340  0.35290  1.0000 -0.0317492861
C   C63       1.0  0.82350  0.55020  0.95210  1.0000 0.0904395577
C   C64       1.0  0.82350  0.94980  0.45210  1.0000 0.0904395577
C   C65       1.0  0.42600  0.37640  0.93370  1.0000 -0.0894902682
C   C66       1.0  0.42600  0.12360  0.43370  1.0000 -0.0894902682
C   C67       1.0  0.00870  0.13430  0.03550  1.0000 0.2528855573
C   C68       1.0  0.00870  0.36570  0.53550  1.0000 0.2528855573
C   C69       1.0  0.35100  0.32660  0.79310  1.0000 -0.0817092437
C   C70       1.0  0.35100  0.17340  0.29310  1.0000 -0.0817092437
C   C71       1.0  0.37170  0.77730  0.16500  1.0000 0.2795969766
C   C72       1.0  0.37170  0.72270  0.66500  1.0000 0.2795969766
C   C73       1.0  0.20150  0.70430  0.06020  1.0000 0.6224647235
C   C74       1.0  0.20150  0.79570  0.56020  1.0000 0.6224647235
C   C75       1.0  0.84790  0.05760  0.06330  1.0000 -0.0894902682
C   C76       1.0  0.84790  0.44240  0.56330  1.0000 -0.0894902682
C   C77       1.0  0.81040  0.07150  0.20270  1.0000 0.554758973
C   C78       1.0  0.81040  0.42850  0.70270  1.0000 0.554758973
C   C79       1.0  0.00100  0.63040  0.91290  1.0000 -0.2317413542
C   C80       1.0  0.00100  0.86960  0.41290  1.0000 -0.2317413542
C   C81       1.0  0.04430  0.16470  0.11770  1.0000 -0.1897715483
C   C82       1.0  0.04430  0.33530  0.61770  1.0000 -0.1897715483
C   C83       1.0  0.88000  0.09110  0.14370  1.0000 -0.0317492861
C   C84       1.0  0.88000  0.40890  0.64370  1.0000 -0.0317492861
C   C85       1.0  0.16310  0.20660  0.98720  1.0000 0.6133636307
C   C86       1.0  0.16310  0.29340  0.48720  1.0000 0.6133636307
C   C87       1.0  0.91100  0.07940  0.01000  1.0000 -0.2129047088
C   C88       1.0  0.91100  0.42060  0.51000  1.0000 -0.2129047088
C   C89       1.0  0.01150  0.62410  0.99690  1.0000 0.2795969766
C   C90       1.0  0.01150  0.87590  0.49690  1.0000 0.2795969766
C   C91       1.0  0.26900  0.27790  0.81450  1.0000 -0.2129047088
C   C92       1.0  0.26900  0.22210  0.31450  1.0000 -0.2129047088
C   C93       1.0  0.97940  0.14450  0.17010  1.0000 -0.0894902682
C   C94       1.0  0.97940  0.35550  0.67010  1.0000 -0.0894902682
C   C95       1.0  0.43840  0.78300  0.24860  1.0000 -0.2503687073
C   C96       1.0  0.43840  0.71700  0.74860  1.0000 -0.2503687073
C   C97       1.0  0.52950  0.84020  0.27700  1.0000 0.1099325067
C   C98       1.0  0.52950  0.65980  0.77700  1.0000 0.1099325067
C   C99       1.0  0.49840  0.88370  0.14060  1.0000 0.0540210191
C   C100      1.0  0.49840  0.61630  0.64060  1.0000 0.0540210191
C   C101      1.0  0.40560  0.82750  0.10660  1.0000 -0.2175991464
C   C102      1.0  0.40560  0.67250  0.60660  1.0000 -0.2175991464
C   C103      1.0  0.90290  0.59540  0.85280  1.0000 0.0595775764
C   C104      1.0  0.90290  0.90460  0.35280  1.0000 0.0595775764
N   N1        1.0  0.18670  0.05530  0.62930  1.0000 -0.2503687073
N   N2        1.0  0.18670  0.44470  0.12930  1.0000 -0.2503687073
N   N3        1.0  0.72140  0.22100  0.35990  1.0000 -0.4082086314
N   N4        1.0  0.72140  0.27900  0.85990  1.0000 -0.4082086314
N   N5        1.0  0.89320  0.15460  0.43660  1.0000 -0.4203858305
N   N6        1.0  0.89320  0.34540  0.93660  1.0000 -0.4203858305
N   N7        1.0  0.82570  0.72780  0.58910  1.0000 -0.4277635742
N   N8        1.0  0.82570  0.77220  0.08910  1.0000 -0.4277635742
N   N9        1.0  0.93780  0.65730  0.52410  1.0000 -0.4203858305
N   N10       1.0  0.93780  0.84270  0.02410  1.0000 -0.4203858305
N   N11       1.0  0.44350  0.39330  0.27310  1.0000 -0.2570686568
N   N12       1.0  0.44350  0.10670  0.77310  1.0000 -0.2570686568
N   N13       1.0  0.81330  0.55530  0.87070  1.0000 -0.2503687073
N   N14       1.0  0.81330  0.94470  0.37070  1.0000 -0.2503687073
N   N15       1.0  0.27860  0.72100  0.14010  1.0000 -0.4082086314
N   N16       1.0  0.27860  0.77900  0.64010  1.0000 -0.4082086314
N   N17       1.0  0.10680  0.65460  0.06340  1.0000 -0.4203858305
N   N18       1.0  0.10680  0.84540  0.56340  1.0000 -0.4203858305
N   N19       1.0  0.17430  0.22780  0.91090  1.0000 -0.4277635742
N   N20       1.0  0.17430  0.27220  0.41090  1.0000 -0.4277635742
N   N21       1.0  0.06220  0.15730  0.97590  1.0000 -0.4203858305
N   N22       1.0  0.06220  0.34270  0.47590  1.0000 -0.4203858305
N   N23       1.0  0.55650  0.89330  0.22690  1.0000 -0.2570686568
N   N24       1.0  0.55650  0.60670  0.72690  1.0000 -0.2570686568
O   O1        1.0  0.78540  0.22820  0.50550  1.0000 -0.4920734617
O   O2        1.0  0.78540  0.27180  0.00550  1.0000 -0.4920734617
O   O3        1.0  0.76730  0.72810  0.44408  1.0000 -0.5010788966
O   O4        1.0  0.76730  0.77190  0.94408  1.0000 -0.5010788966
O   O5        1.0  0.17400  0.61398  0.23312  1.0000 -0.5861709643
O   O6        1.0  0.17400  0.88602  0.73312  1.0000 -0.5861709643
O   O7        1.0  0.42620  0.98550  0.61780  1.0000 -0.5646817017
O   O8        1.0  0.42620  0.51450  0.11780  1.0000 -0.5646817017
O   O9        1.0  0.45790  0.91930  0.73680  1.0000 -0.5283217359
O   O10       1.0  0.45790  0.58070  0.23680  1.0000 -0.5283217359
O   O11       1.0  0.26220  0.51101  0.31660  1.0000 -0.5517197181
O   O12       1.0  0.26220  0.98899  0.81660  1.0000 -0.5517197181
O   O13       1.0  0.21460  0.72820  0.99450  1.0000 -0.4920734617
O   O14       1.0  0.21460  0.77180  0.49450  1.0000 -0.4920734617
O   O15       1.0  0.23270  0.22810  0.05592  1.0000 -0.5010788966
O   O16       1.0  0.23270  0.27190  0.55592  1.0000 -0.5010788966
O   O17       1.0  0.82600  0.11398  0.26688  1.0000 -0.5861709643
O   O18       1.0  0.82600  0.38602  0.76688  1.0000 -0.5861709643
O   O19       1.0  0.57380  0.48550  0.88220  1.0000 -0.5646817017
O   O20       1.0  0.57380  0.01450  0.38220  1.0000 -0.5646817017
O   O21       1.0  0.54210  0.41930  0.76320  1.0000 -0.5283217359
O   O22       1.0  0.54210  0.08070  0.26320  1.0000 -0.5283217359
O   O23       1.0  0.73780  0.01101  0.18340  1.0000 -0.5517197181
O   O24       1.0  0.73780  0.48899  0.68340  1.0000 -0.5517197181
