# DDEC6 charges by PACMAN v1.1 (https://github.com/mtap-research/PACMAN-charge/)
data_2018[Zn][nan]3[ASR]11
_chemical_formula_sum              "Zn18 H144 C252 N12 O72"
_cell_length_a       26.156
_cell_length_b       26.156
_cell_length_c       26.156
_cell_angle_alpha    108.429
_cell_angle_beta     108.429
_cell_angle_gamma    108.429

_symmetry_space_group_name_H-M    "P 1"
_symmetry_Int_Tables_number       1

loop_
  _symmetry_equiv_pos_as_xyz
  'x, y, z'

loop_
  _atom_site_type_symbol
  _atom_site_label
  _atom_site_symmetry_multiplicity
  _atom_site_fract_x
  _atom_site_fract_y
  _atom_site_fract_z
  _atom_site_occupancy
  _atom_site_charge
Zn  Zn1       1.0  0.12221  0.46129  0.02097  1.0000 0.9459718835
Zn  Zn2       1.0  0.46129  0.02097  0.12221  1.0000 0.9459718835
Zn  Zn3       1.0  0.02097  0.12221  0.46129  1.0000 0.9459718835
Zn  Zn4       1.0  0.37779  0.47903  0.03871  1.0000 0.9447162818
Zn  Zn5       1.0  0.03871  0.37779  0.47903  1.0000 0.9459718835
Zn  Zn6       1.0  0.47903  0.03871  0.37779  1.0000 0.9459718835
Zn  Zn7       1.0  0.87779  0.53871  0.97903  1.0000 0.9459718835
Zn  Zn8       1.0  0.53871  0.97903  0.87779  1.0000 0.9459718835
Zn  Zn9       1.0  0.97903  0.87779  0.53871  1.0000 0.9459718835
Zn  Zn10      1.0  0.62221  0.52097  0.96129  1.0000 0.9459718835
Zn  Zn11      1.0  0.96129  0.62221  0.52097  1.0000 0.9447162818
Zn  Zn12      1.0  0.52097  0.96129  0.62221  1.0000 0.9459718835
Zn  Zn13      1.0  0.00000  0.50000  0.00000  1.0000 1.0511859131
Zn  Zn14      1.0  0.50000  0.00000  0.00000  1.0000 1.0511859131
Zn  Zn15      1.0  0.00000  1.00000  0.50000  1.0000 1.0511859131
Zn  Zn16      1.0  0.50000  0.50000  0.00000  1.0000 1.0511859131
Zn  Zn17      1.0  1.00000  0.50000  0.50000  1.0000 1.0511859131
Zn  Zn18      1.0  0.50000  1.00000  0.50000  1.0000 1.0511859131
H   H1        1.0  0.88390  0.33230  0.83840  1.0000 0.1201365452
H   H2        1.0  0.03070  0.30750  0.86370  1.0000 0.1201365452
H   H3        1.0  0.97470  0.22260  0.76580  1.0000 0.1285398694
H   H4        1.0  0.83030  0.24810  0.74640  1.0000 0.1201365452
H   H5        1.0  0.92680  0.24480  0.65560  1.0000 0.1201365452
H   H6        1.0  0.97660  0.22540  0.59940  1.0000 0.1201365452
H   H7        1.0  0.91650  0.05510  0.57720  1.0000 0.1285398694
H   H8        1.0  0.87100  0.07700  0.63890  1.0000 0.1201365452
H   H9        1.0  0.80970  0.14040  0.74660  1.0000 0.1285398694
H   H10       1.0  0.70960  0.06850  0.70800  1.0000 0.1201365452
H   H11       1.0  0.67470  0.04980  0.54230  1.0000 0.1201365452
H   H12       1.0  0.77690  0.11640  0.57810  1.0000 0.1201365452
H   H13       1.0  0.33230  0.83840  0.88390  1.0000 0.1201365452
H   H14       1.0  0.30750  0.86370  0.03070  1.0000 0.1201365452
H   H15       1.0  0.22260  0.76580  0.97470  1.0000 0.1285398694
H   H16       1.0  0.24810  0.74640  0.83030  1.0000 0.1201365452
H   H17       1.0  0.24480  0.65560  0.92680  1.0000 0.1201365452
H   H18       1.0  0.22540  0.59940  0.97660  1.0000 0.1201365452
H   H19       1.0  0.05510  0.57720  0.91650  1.0000 0.1285398694
H   H20       1.0  0.07700  0.63890  0.87100  1.0000 0.1201365452
H   H21       1.0  0.14040  0.74660  0.80970  1.0000 0.1285398694
H   H22       1.0  0.06850  0.70800  0.70960  1.0000 0.1201365452
H   H23       1.0  0.04980  0.54230  0.67470  1.0000 0.1201365452
H   H24       1.0  0.11640  0.57810  0.77690  1.0000 0.1201365452
H   H25       1.0  0.83840  0.88390  0.33230  1.0000 0.1201365452
H   H26       1.0  0.86370  0.03070  0.30750  1.0000 0.1201365452
H   H27       1.0  0.76580  0.97470  0.22260  1.0000 0.1285398694
H   H28       1.0  0.74640  0.83030  0.24810  1.0000 0.1201365452
H   H29       1.0  0.65560  0.92680  0.24480  1.0000 0.1201365452
H   H30       1.0  0.59940  0.97660  0.22540  1.0000 0.1201365452
H   H31       1.0  0.57720  0.91650  0.05510  1.0000 0.1285398694
H   H32       1.0  0.63890  0.87100  0.07700  1.0000 0.1201365452
H   H33       1.0  0.74660  0.80970  0.14040  1.0000 0.1285398694
H   H34       1.0  0.70800  0.70960  0.06850  1.0000 0.1201365452
H   H35       1.0  0.54230  0.67470  0.04980  1.0000 0.1201365452
H   H36       1.0  0.57810  0.77690  0.11640  1.0000 0.1201365452
H   H37       1.0  0.61610  0.66160  0.16770  1.0000 0.1201365452
H   H38       1.0  0.46930  0.63630  0.19250  1.0000 0.1201365452
H   H39       1.0  0.52530  0.73420  0.27740  1.0000 0.1285398694
H   H40       1.0  0.66970  0.75360  0.25190  1.0000 0.1201365452
H   H41       1.0  0.57320  0.84440  0.25520  1.0000 0.1201365452
H   H42       1.0  0.52340  0.90060  0.27460  1.0000 0.1201365452
H   H43       1.0  0.58350  0.92280  0.44490  1.0000 0.1285398694
H   H44       1.0  0.62900  0.86110  0.42300  1.0000 0.1201365452
H   H45       1.0  0.69030  0.75340  0.35960  1.0000 0.1285398694
H   H46       1.0  0.79040  0.79200  0.43150  1.0000 0.1201365452
H   H47       1.0  0.82530  0.95770  0.45020  1.0000 0.1201365452
H   H48       1.0  0.72310  0.92190  0.38360  1.0000 0.1201365452
H   H49       1.0  0.16770  0.61610  0.66160  1.0000 0.1201365452
H   H50       1.0  0.19250  0.46930  0.63630  1.0000 0.1201365452
H   H51       1.0  0.27740  0.52530  0.73420  1.0000 0.1285398694
H   H52       1.0  0.25190  0.66970  0.75360  1.0000 0.1201365452
H   H53       1.0  0.25520  0.57320  0.84440  1.0000 0.1201365452
H   H54       1.0  0.27460  0.52340  0.90060  1.0000 0.1201365452
H   H55       1.0  0.44490  0.58350  0.92280  1.0000 0.1285398694
H   H56       1.0  0.42300  0.62900  0.86110  1.0000 0.1201365452
H   H57       1.0  0.35960  0.69030  0.75340  1.0000 0.1285398694
H   H58       1.0  0.43150  0.79040  0.79200  1.0000 0.1201365452
H   H59       1.0  0.45020  0.82530  0.95770  1.0000 0.1201365452
H   H60       1.0  0.38360  0.72310  0.92190  1.0000 0.1201365452
H   H61       1.0  0.66160  0.16770  0.61610  1.0000 0.1201365452
H   H62       1.0  0.63630  0.19250  0.46930  1.0000 0.1201365452
H   H63       1.0  0.73420  0.27740  0.52530  1.0000 0.1285398694
H   H64       1.0  0.75360  0.25190  0.66970  1.0000 0.1201365452
H   H65       1.0  0.84440  0.25520  0.57320  1.0000 0.1201365452
H   H66       1.0  0.90060  0.27460  0.52340  1.0000 0.1201365452
H   H67       1.0  0.92280  0.44490  0.58350  1.0000 0.1285398694
H   H68       1.0  0.86110  0.42300  0.62900  1.0000 0.1201365452
H   H69       1.0  0.75340  0.35960  0.69030  1.0000 0.1285398694
H   H70       1.0  0.79200  0.43150  0.79040  1.0000 0.1201365452
H   H71       1.0  0.95770  0.45020  0.82530  1.0000 0.1201365452
H   H72       1.0  0.92190  0.38360  0.72310  1.0000 0.1201365452
H   H73       1.0  0.11610  0.66770  0.16160  1.0000 0.1201365452
H   H74       1.0  0.96930  0.69250  0.13630  1.0000 0.1201365452
H   H75       1.0  0.02530  0.77740  0.23420  1.0000 0.1285398694
H   H76       1.0  0.16970  0.75190  0.25360  1.0000 0.1201365452
H   H77       1.0  0.07320  0.75520  0.34440  1.0000 0.1201365452
H   H78       1.0  0.02340  0.77460  0.40060  1.0000 0.1201365452
H   H79       1.0  0.08350  0.94490  0.42280  1.0000 0.1285398694
H   H80       1.0  0.12900  0.92300  0.36110  1.0000 0.1201365452
H   H81       1.0  0.19030  0.85960  0.25340  1.0000 0.1285398694
H   H82       1.0  0.29040  0.93150  0.29200  1.0000 0.1201365452
H   H83       1.0  0.32530  0.95020  0.45770  1.0000 0.1201365452
H   H84       1.0  0.22310  0.88360  0.42190  1.0000 0.1201365452
H   H85       1.0  0.66770  0.16160  0.11610  1.0000 0.1201365452
H   H86       1.0  0.69250  0.13630  0.96930  1.0000 0.1201365452
H   H87       1.0  0.77740  0.23420  0.02530  1.0000 0.1285398694
H   H88       1.0  0.75190  0.25360  0.16970  1.0000 0.1201365452
H   H89       1.0  0.75520  0.34440  0.07320  1.0000 0.1201365452
H   H90       1.0  0.77460  0.40060  0.02340  1.0000 0.1201365452
H   H91       1.0  0.94490  0.42280  0.08350  1.0000 0.1285398694
H   H92       1.0  0.92300  0.36110  0.12900  1.0000 0.1201365452
H   H93       1.0  0.85960  0.25340  0.19030  1.0000 0.1285398694
H   H94       1.0  0.93150  0.29200  0.29040  1.0000 0.1201365452
H   H95       1.0  0.95020  0.45770  0.32530  1.0000 0.1201365452
H   H96       1.0  0.88360  0.42190  0.22310  1.0000 0.1201365452
H   H97       1.0  0.16160  0.11610  0.66770  1.0000 0.1201365452
H   H98       1.0  0.13630  0.96930  0.69250  1.0000 0.1201365452
H   H99       1.0  0.23420  0.02530  0.77740  1.0000 0.1285398694
H   H100      1.0  0.25360  0.16970  0.75190  1.0000 0.1201365452
H   H101      1.0  0.34440  0.07320  0.75520  1.0000 0.1201365452
H   H102      1.0  0.40060  0.02340  0.77460  1.0000 0.1201365452
H   H103      1.0  0.42280  0.08350  0.94490  1.0000 0.1285398694
H   H104      1.0  0.36110  0.12900  0.92300  1.0000 0.1201365452
H   H105      1.0  0.25340  0.19030  0.85960  1.0000 0.1285398694
H   H106      1.0  0.29200  0.29040  0.93150  1.0000 0.1201365452
H   H107      1.0  0.45770  0.32530  0.95020  1.0000 0.1201365452
H   H108      1.0  0.42190  0.22310  0.88360  1.0000 0.1201365452
H   H109      1.0  0.38390  0.33840  0.83230  1.0000 0.1201365452
H   H110      1.0  0.53070  0.36370  0.80750  1.0000 0.1201365452
H   H111      1.0  0.47470  0.26580  0.72260  1.0000 0.1285398694
H   H112      1.0  0.33030  0.24640  0.74810  1.0000 0.1201365452
H   H113      1.0  0.42680  0.15560  0.74480  1.0000 0.1201365452
H   H114      1.0  0.47660  0.09940  0.72540  1.0000 0.1201365452
H   H115      1.0  0.41650  0.07720  0.55510  1.0000 0.1285398694
H   H116      1.0  0.37100  0.13890  0.57700  1.0000 0.1201365452
H   H117      1.0  0.30970  0.24660  0.64040  1.0000 0.1285398694
H   H118      1.0  0.20960  0.20800  0.56850  1.0000 0.1201365452
H   H119      1.0  0.17470  0.04230  0.54980  1.0000 0.1201365452
H   H120      1.0  0.27690  0.07810  0.61640  1.0000 0.1201365452
H   H121      1.0  0.83230  0.38390  0.33840  1.0000 0.1201365452
H   H122      1.0  0.80750  0.53070  0.36370  1.0000 0.1201365452
H   H123      1.0  0.72260  0.47470  0.26580  1.0000 0.1285398694
H   H124      1.0  0.74810  0.33030  0.24640  1.0000 0.1201365452
H   H125      1.0  0.74480  0.42680  0.15560  1.0000 0.1201365452
H   H126      1.0  0.72540  0.47660  0.09940  1.0000 0.1201365452
H   H127      1.0  0.55510  0.41650  0.07720  1.0000 0.1285398694
H   H128      1.0  0.57700  0.37100  0.13890  1.0000 0.1201365452
H   H129      1.0  0.64040  0.30970  0.24660  1.0000 0.1285398694
H   H130      1.0  0.56850  0.20960  0.20800  1.0000 0.1201365452
H   H131      1.0  0.54980  0.17470  0.04230  1.0000 0.1201365452
H   H132      1.0  0.61640  0.27690  0.07810  1.0000 0.1201365452
H   H133      1.0  0.33840  0.83230  0.38390  1.0000 0.1201365452
H   H134      1.0  0.36370  0.80750  0.53070  1.0000 0.1201365452
H   H135      1.0  0.26580  0.72260  0.47470  1.0000 0.1285398694
H   H136      1.0  0.24640  0.74810  0.33030  1.0000 0.1201365452
H   H137      1.0  0.15560  0.74480  0.42680  1.0000 0.1201365452
H   H138      1.0  0.09940  0.72540  0.47660  1.0000 0.1201365452
H   H139      1.0  0.07720  0.55510  0.41650  1.0000 0.1285398694
H   H140      1.0  0.13890  0.57700  0.37100  1.0000 0.1201365452
H   H141      1.0  0.24660  0.64040  0.30970  1.0000 0.1285398694
H   H142      1.0  0.20800  0.56850  0.20960  1.0000 0.1201365452
H   H143      1.0  0.04230  0.54980  0.17470  1.0000 0.1201365452
H   H144      1.0  0.07810  0.61640  0.27690  1.0000 0.1201365452
C   C1        1.0  0.90270  0.31000  0.82510  1.0000 -0.0787568194
C   C2        1.0  0.96280  0.32760  0.86140  1.0000 -0.0421938999
C   C3        1.0  0.99010  0.29580  0.84010  1.0000 -0.0787568194
C   C4        1.0  0.95580  0.24400  0.78070  1.0000 -0.1988168774
C   C5        1.0  0.89750  0.22630  0.74690  1.0000 0.1770801007
C   C6        1.0  0.87100  0.26000  0.76970  1.0000 -0.1897690276
C   C7        1.0  0.89420  0.16510  0.65060  1.0000 0.1577335394
C   C8        1.0  0.92470  0.20660  0.64010  1.0000 -0.173866892
C   C9        1.0  0.95440  0.19480  0.60600  1.0000 -0.0949055482
C   C10       1.0  0.95140  0.13720  0.58110  1.0000 -0.0287192017
C   C11       1.0  0.91930  0.09350  0.59330  1.0000 -0.0787568194
C   C12       1.0  0.89100  0.10580  0.62910  1.0000 -0.1824003802
C   C13       1.0  0.80200  0.13280  0.66590  1.0000 0.1770801007
C   C14       1.0  0.78310  0.12130  0.70530  1.0000 -0.1824003802
C   C15       1.0  0.72230  0.07990  0.68210  1.0000 -0.0787568194
C   C16       1.0  0.67980  0.05480  0.62070  1.0000 -0.0662034893
C   C17       1.0  0.70140  0.06780  0.58340  1.0000 -0.0787568194
C   C18       1.0  0.76310  0.10750  0.60440  1.0000 -0.1897690276
C   C19       1.0  0.61620  0.01420  0.60070  1.0000 0.5971287163
C   C20       1.0  0.99780  0.38190  0.92330  1.0000 0.6092310072
C   C21       1.0  0.98160  0.12410  0.54120  1.0000 0.5871979268
C   C22       1.0  0.31000  0.82510  0.90270  1.0000 -0.0787568194
C   C23       1.0  0.32760  0.86140  0.96280  1.0000 -0.0421938999
C   C24       1.0  0.29580  0.84010  0.99010  1.0000 -0.0787568194
C   C25       1.0  0.24400  0.78070  0.95580  1.0000 -0.1988168774
C   C26       1.0  0.22630  0.74690  0.89750  1.0000 0.1770801007
C   C27       1.0  0.26000  0.76970  0.87100  1.0000 -0.1897690276
C   C28       1.0  0.16510  0.65060  0.89420  1.0000 0.1577335394
C   C29       1.0  0.20660  0.64010  0.92470  1.0000 -0.173866892
C   C30       1.0  0.19480  0.60600  0.95440  1.0000 -0.0954101685
C   C31       1.0  0.13720  0.58110  0.95140  1.0000 -0.0287192017
C   C32       1.0  0.09350  0.59330  0.91930  1.0000 -0.0787568194
C   C33       1.0  0.10580  0.62910  0.89100  1.0000 -0.1824003802
C   C34       1.0  0.13280  0.66590  0.80200  1.0000 0.1770801007
C   C35       1.0  0.12130  0.70530  0.78310  1.0000 -0.1897690276
C   C36       1.0  0.07990  0.68210  0.72230  1.0000 -0.0787568194
C   C37       1.0  0.05480  0.62070  0.67980  1.0000 -0.0662034893
C   C38       1.0  0.06780  0.58340  0.70140  1.0000 -0.0787568194
C   C39       1.0  0.10750  0.60440  0.76310  1.0000 -0.1897690276
C   C40       1.0  0.01420  0.60070  0.61620  1.0000 0.5971287163
C   C41       1.0  0.38190  0.92330  0.99780  1.0000 0.6092310072
C   C42       1.0  0.12410  0.54120  0.98160  1.0000 0.5871979268
C   C43       1.0  0.82510  0.90270  0.31000  1.0000 -0.0787568194
C   C44       1.0  0.86140  0.96280  0.32760  1.0000 -0.0421938999
C   C45       1.0  0.84010  0.99010  0.29580  1.0000 -0.0787568194
C   C46       1.0  0.78070  0.95580  0.24400  1.0000 -0.1988168774
C   C47       1.0  0.74690  0.89750  0.22630  1.0000 0.1770801007
C   C48       1.0  0.76970  0.87100  0.26000  1.0000 -0.1897690276
C   C49       1.0  0.65060  0.89420  0.16510  1.0000 0.1577335394
C   C50       1.0  0.64010  0.92470  0.20660  1.0000 -0.173866892
C   C51       1.0  0.60600  0.95440  0.19480  1.0000 -0.0954101685
C   C52       1.0  0.58110  0.95140  0.13720  1.0000 -0.0287192017
C   C53       1.0  0.59330  0.91930  0.09350  1.0000 -0.0787568194
C   C54       1.0  0.62910  0.89100  0.10580  1.0000 -0.1824003802
C   C55       1.0  0.66590  0.80200  0.13280  1.0000 0.1770801007
C   C56       1.0  0.70530  0.78310  0.12130  1.0000 -0.1897690276
C   C57       1.0  0.68210  0.72230  0.07990  1.0000 -0.0787568194
C   C58       1.0  0.62070  0.67980  0.05480  1.0000 -0.0662034893
C   C59       1.0  0.58340  0.70140  0.06780  1.0000 -0.0787568194
C   C60       1.0  0.60440  0.76310  0.10750  1.0000 -0.1897690276
C   C61       1.0  0.60070  0.61620  0.01420  1.0000 0.5971287163
C   C62       1.0  0.92330  0.99780  0.38190  1.0000 0.6092310072
C   C63       1.0  0.54120  0.98160  0.12410  1.0000 0.5871979268
C   C64       1.0  0.59730  0.67490  0.19000  1.0000 -0.0787568194
C   C65       1.0  0.53720  0.63860  0.17240  1.0000 -0.0421938999
C   C66       1.0  0.50990  0.65990  0.20420  1.0000 -0.0787568194
C   C67       1.0  0.54420  0.71930  0.25600  1.0000 -0.1988168774
C   C68       1.0  0.60250  0.75310  0.27370  1.0000 0.1770801007
C   C69       1.0  0.62900  0.73030  0.24000  1.0000 -0.1897690276
C   C70       1.0  0.60580  0.84940  0.33490  1.0000 0.1577335394
C   C71       1.0  0.57530  0.85990  0.29340  1.0000 -0.173866892
C   C72       1.0  0.54560  0.89400  0.30520  1.0000 -0.0954101685
C   C73       1.0  0.54860  0.91890  0.36280  1.0000 -0.0287192017
C   C74       1.0  0.58070  0.90670  0.40650  1.0000 -0.0787568194
C   C75       1.0  0.60900  0.87090  0.39420  1.0000 -0.1824003802
C   C76       1.0  0.69800  0.83410  0.36720  1.0000 0.1770801007
C   C77       1.0  0.71690  0.79470  0.37870  1.0000 -0.1897690276
C   C78       1.0  0.77770  0.81790  0.42010  1.0000 -0.0787568194
C   C79       1.0  0.82020  0.87930  0.44520  1.0000 -0.0662034893
C   C80       1.0  0.79860  0.91660  0.43220  1.0000 -0.0787568194
C   C81       1.0  0.73690  0.89560  0.39250  1.0000 -0.1897690276
C   C82       1.0  0.88380  0.89930  0.48580  1.0000 0.5971287163
C   C83       1.0  0.50220  0.57670  0.11810  1.0000 0.6092310072
C   C84       1.0  0.51840  0.95880  0.37590  1.0000 0.5871979268
C   C85       1.0  0.19000  0.59730  0.67490  1.0000 -0.0787568194
C   C86       1.0  0.17240  0.53720  0.63860  1.0000 -0.0421938999
C   C87       1.0  0.20420  0.50990  0.65990  1.0000 -0.0787568194
C   C88       1.0  0.25600  0.54420  0.71930  1.0000 -0.1988168774
C   C89       1.0  0.27370  0.60250  0.75310  1.0000 0.1770801007
C   C90       1.0  0.24000  0.62900  0.73030  1.0000 -0.1897690276
C   C91       1.0  0.33490  0.60580  0.84940  1.0000 0.1577335394
C   C92       1.0  0.29340  0.57530  0.85990  1.0000 -0.173866892
C   C93       1.0  0.30520  0.54560  0.89400  1.0000 -0.0954101685
C   C94       1.0  0.36280  0.54860  0.91890  1.0000 -0.0287192017
C   C95       1.0  0.40650  0.58070  0.90670  1.0000 -0.0787568194
C   C96       1.0  0.39420  0.60900  0.87090  1.0000 -0.1824003802
C   C97       1.0  0.36720  0.69800  0.83410  1.0000 0.1770801007
C   C98       1.0  0.37870  0.71690  0.79470  1.0000 -0.1897690276
C   C99       1.0  0.42010  0.77770  0.81790  1.0000 -0.0787568194
C   C100      1.0  0.44520  0.82020  0.87930  1.0000 -0.0662034893
C   C101      1.0  0.43220  0.79860  0.91660  1.0000 -0.0787568194
C   C102      1.0  0.39250  0.73690  0.89560  1.0000 -0.1897690276
C   C103      1.0  0.48580  0.88380  0.89930  1.0000 0.5971287163
C   C104      1.0  0.11810  0.50220  0.57670  1.0000 0.6092310072
C   C105      1.0  0.37590  0.51840  0.95880  1.0000 0.5871979268
C   C106      1.0  0.67490  0.19000  0.59730  1.0000 -0.0787568194
C   C107      1.0  0.63860  0.17240  0.53720  1.0000 -0.0421938999
C   C108      1.0  0.65990  0.20420  0.50990  1.0000 -0.0787568194
C   C109      1.0  0.71930  0.25600  0.54420  1.0000 -0.1988168774
C   C110      1.0  0.75310  0.27370  0.60250  1.0000 0.1770801007
C   C111      1.0  0.73030  0.24000  0.62900  1.0000 -0.1897690276
C   C112      1.0  0.84940  0.33490  0.60580  1.0000 0.1577335394
C   C113      1.0  0.85990  0.29340  0.57530  1.0000 -0.173866892
C   C114      1.0  0.89400  0.30520  0.54560  1.0000 -0.0954101685
C   C115      1.0  0.91890  0.36280  0.54860  1.0000 -0.0287192017
C   C116      1.0  0.90670  0.40650  0.58070  1.0000 -0.0787568194
C   C117      1.0  0.87090  0.39420  0.60900  1.0000 -0.1824003802
C   C118      1.0  0.83410  0.36720  0.69800  1.0000 0.1770801007
C   C119      1.0  0.79470  0.37870  0.71690  1.0000 -0.1897690276
C   C120      1.0  0.81790  0.42010  0.77770  1.0000 -0.0787568194
C   C121      1.0  0.87930  0.44520  0.82020  1.0000 -0.0662034893
C   C122      1.0  0.91660  0.43220  0.79860  1.0000 -0.0787568194
C   C123      1.0  0.89560  0.39250  0.73690  1.0000 -0.1897690276
C   C124      1.0  0.89930  0.48580  0.88380  1.0000 0.5971287163
C   C125      1.0  0.57670  0.11810  0.50220  1.0000 0.6092310072
C   C126      1.0  0.95880  0.37590  0.51840  1.0000 0.5871979268
C   C127      1.0  0.09730  0.69000  0.17490  1.0000 -0.0787568194
C   C128      1.0  0.03720  0.67240  0.13860  1.0000 -0.0421938999
C   C129      1.0  0.00990  0.70420  0.15990  1.0000 -0.0787568194
C   C130      1.0  0.04420  0.75600  0.21930  1.0000 -0.1988168774
C   C131      1.0  0.10250  0.77370  0.25310  1.0000 0.1770801007
C   C132      1.0  0.12900  0.74000  0.23030  1.0000 -0.1897690276
C   C133      1.0  0.10580  0.83490  0.34940  1.0000 0.1577335394
C   C134      1.0  0.07530  0.79340  0.35990  1.0000 -0.173866892
C   C135      1.0  0.04560  0.80520  0.39400  1.0000 -0.0954101685
C   C136      1.0  0.04860  0.86280  0.41890  1.0000 -0.0287192017
C   C137      1.0  0.08070  0.90650  0.40670  1.0000 -0.0787568194
C   C138      1.0  0.10900  0.89420  0.37090  1.0000 -0.1824003802
C   C139      1.0  0.19800  0.86720  0.33410  1.0000 0.1770801007
C   C140      1.0  0.21690  0.87870  0.29470  1.0000 -0.1897690276
C   C141      1.0  0.27770  0.92010  0.31790  1.0000 -0.0787568194
C   C142      1.0  0.32020  0.94520  0.37930  1.0000 -0.0662034893
C   C143      1.0  0.29860  0.93220  0.41660  1.0000 -0.0787568194
C   C144      1.0  0.23690  0.89250  0.39560  1.0000 -0.1897690276
C   C145      1.0  0.38380  0.98580  0.39930  1.0000 0.5971287163
C   C146      1.0  0.00220  0.61810  0.07670  1.0000 0.6092310072
C   C147      1.0  0.01840  0.87590  0.45880  1.0000 0.5871979268
C   C148      1.0  0.69000  0.17490  0.09730  1.0000 -0.0787568194
C   C149      1.0  0.67240  0.13860  0.03720  1.0000 -0.0421938999
C   C150      1.0  0.70420  0.15990  0.00990  1.0000 -0.0787568194
C   C151      1.0  0.75600  0.21930  0.04420  1.0000 -0.1897690276
C   C152      1.0  0.77370  0.25310  0.10250  1.0000 0.1770801007
C   C153      1.0  0.74000  0.23030  0.12900  1.0000 -0.1897690276
C   C154      1.0  0.83490  0.34940  0.10580  1.0000 0.1577335394
C   C155      1.0  0.79340  0.35990  0.07530  1.0000 -0.173866892
C   C156      1.0  0.80520  0.39400  0.04560  1.0000 -0.0954101685
C   C157      1.0  0.86280  0.41890  0.04860  1.0000 -0.0287192017
C   C158      1.0  0.90650  0.40670  0.08070  1.0000 -0.0787568194
C   C159      1.0  0.89420  0.37090  0.10900  1.0000 -0.1824003802
C   C160      1.0  0.86720  0.33410  0.19800  1.0000 0.1770801007
C   C161      1.0  0.87870  0.29470  0.21690  1.0000 -0.1824003802
C   C162      1.0  0.92010  0.31790  0.27770  1.0000 -0.0787568194
C   C163      1.0  0.94520  0.37930  0.32020  1.0000 -0.0662034893
C   C164      1.0  0.93220  0.41660  0.29860  1.0000 -0.0787568194
C   C165      1.0  0.89250  0.39560  0.23690  1.0000 -0.1897690276
C   C166      1.0  0.98580  0.39930  0.38380  1.0000 0.5971287163
C   C167      1.0  0.61810  0.07670  0.00220  1.0000 0.6092310072
C   C168      1.0  0.87590  0.45880  0.01840  1.0000 0.5871979268
C   C169      1.0  0.17490  0.09730  0.69000  1.0000 -0.0787568194
C   C170      1.0  0.13860  0.03720  0.67240  1.0000 -0.0421938999
C   C171      1.0  0.15990  0.00990  0.70420  1.0000 -0.0787568194
C   C172      1.0  0.21930  0.04420  0.75600  1.0000 -0.1988168774
C   C173      1.0  0.25310  0.10250  0.77370  1.0000 0.1770801007
C   C174      1.0  0.23030  0.12900  0.74000  1.0000 -0.1897690276
C   C175      1.0  0.34940  0.10580  0.83490  1.0000 0.1577335394
C   C176      1.0  0.35990  0.07530  0.79340  1.0000 -0.173866892
C   C177      1.0  0.39400  0.04560  0.80520  1.0000 -0.0954101685
C   C178      1.0  0.41890  0.04860  0.86280  1.0000 -0.0287192017
C   C179      1.0  0.40670  0.08070  0.90650  1.0000 -0.0787568194
C   C180      1.0  0.37090  0.10900  0.89420  1.0000 -0.1824003802
C   C181      1.0  0.33410  0.19800  0.86720  1.0000 0.1770801007
C   C182      1.0  0.29470  0.21690  0.87870  1.0000 -0.1897690276
C   C183      1.0  0.31790  0.27770  0.92010  1.0000 -0.0787568194
C   C184      1.0  0.37930  0.32020  0.94520  1.0000 -0.0662034893
C   C185      1.0  0.41660  0.29860  0.93220  1.0000 -0.0787568194
C   C186      1.0  0.39560  0.23690  0.89250  1.0000 -0.1897690276
C   C187      1.0  0.39930  0.38380  0.98580  1.0000 0.5971287163
C   C188      1.0  0.07670  0.00220  0.61810  1.0000 0.6092310072
C   C189      1.0  0.45880  0.01840  0.87590  1.0000 0.5871979268
C   C190      1.0  0.40270  0.32510  0.81000  1.0000 -0.0787568194
C   C191      1.0  0.46280  0.36140  0.82760  1.0000 -0.0421938999
C   C192      1.0  0.49010  0.34010  0.79580  1.0000 -0.0787568194
C   C193      1.0  0.45580  0.28070  0.74400  1.0000 -0.1988168774
C   C194      1.0  0.39750  0.24690  0.72630  1.0000 0.1770801007
C   C195      1.0  0.37100  0.26970  0.76000  1.0000 -0.1897690276
C   C196      1.0  0.39420  0.15060  0.66510  1.0000 0.1577335394
C   C197      1.0  0.42470  0.14010  0.70660  1.0000 -0.173866892
C   C198      1.0  0.45440  0.10600  0.69480  1.0000 -0.0954101685
C   C199      1.0  0.45140  0.08110  0.63720  1.0000 -0.0287192017
C   C200      1.0  0.41930  0.09330  0.59350  1.0000 -0.0787568194
C   C201      1.0  0.39100  0.12910  0.60580  1.0000 -0.1824003802
C   C202      1.0  0.30200  0.16590  0.63280  1.0000 0.1770801007
C   C203      1.0  0.28310  0.20530  0.62130  1.0000 -0.1897690276
C   C204      1.0  0.22230  0.18210  0.57990  1.0000 -0.0787568194
C   C205      1.0  0.17980  0.12070  0.55480  1.0000 -0.0662034893
C   C206      1.0  0.20140  0.08340  0.56780  1.0000 -0.0787568194
C   C207      1.0  0.26310  0.10440  0.60750  1.0000 -0.1897690276
C   C208      1.0  0.11620  0.10070  0.51420  1.0000 0.5971287163
C   C209      1.0  0.49780  0.42330  0.88190  1.0000 0.6092310072
C   C210      1.0  0.48160  0.04120  0.62410  1.0000 0.5871979268
C   C211      1.0  0.81000  0.40270  0.32510  1.0000 -0.0787568194
C   C212      1.0  0.82760  0.46280  0.36140  1.0000 -0.0421938999
C   C213      1.0  0.79580  0.49010  0.34010  1.0000 -0.0787568194
C   C214      1.0  0.74400  0.45580  0.28070  1.0000 -0.1988168774
C   C215      1.0  0.72630  0.39750  0.24690  1.0000 0.1770801007
C   C216      1.0  0.76000  0.37100  0.26970  1.0000 -0.1897690276
C   C217      1.0  0.66510  0.39420  0.15060  1.0000 0.1577335394
C   C218      1.0  0.70660  0.42470  0.14010  1.0000 -0.173866892
C   C219      1.0  0.69480  0.45440  0.10600  1.0000 -0.0949055482
C   C220      1.0  0.63720  0.45140  0.08110  1.0000 -0.0287192017
C   C221      1.0  0.59350  0.41930  0.09330  1.0000 -0.0787568194
C   C222      1.0  0.60580  0.39100  0.12910  1.0000 -0.1824003802
C   C223      1.0  0.63280  0.30200  0.16590  1.0000 0.1770801007
C   C224      1.0  0.62130  0.28310  0.20530  1.0000 -0.1897690276
C   C225      1.0  0.57990  0.22230  0.18210  1.0000 -0.0787568194
C   C226      1.0  0.55480  0.17980  0.12070  1.0000 -0.0662034893
C   C227      1.0  0.56780  0.20140  0.08340  1.0000 -0.0787568194
C   C228      1.0  0.60750  0.26310  0.10440  1.0000 -0.1897690276
C   C229      1.0  0.51420  0.11620  0.10070  1.0000 0.5971287163
C   C230      1.0  0.88190  0.49780  0.42330  1.0000 0.6092310072
C   C231      1.0  0.62410  0.48160  0.04120  1.0000 0.5871979268
C   C232      1.0  0.32510  0.81000  0.40270  1.0000 -0.0787568194
C   C233      1.0  0.36140  0.82760  0.46280  1.0000 -0.0421938999
C   C234      1.0  0.34010  0.79580  0.49010  1.0000 -0.0787568194
C   C235      1.0  0.28070  0.74400  0.45580  1.0000 -0.1988168774
C   C236      1.0  0.24690  0.72630  0.39750  1.0000 0.1770801007
C   C237      1.0  0.26970  0.76000  0.37100  1.0000 -0.1897690276
C   C238      1.0  0.15060  0.66510  0.39420  1.0000 0.1577335394
C   C239      1.0  0.14010  0.70660  0.42470  1.0000 -0.173866892
C   C240      1.0  0.10600  0.69480  0.45440  1.0000 -0.0954101685
C   C241      1.0  0.08110  0.63720  0.45140  1.0000 -0.0287192017
C   C242      1.0  0.09330  0.59350  0.41930  1.0000 -0.0787568194
C   C243      1.0  0.12910  0.60580  0.39100  1.0000 -0.1824003802
C   C244      1.0  0.16590  0.63280  0.30200  1.0000 0.1770801007
C   C245      1.0  0.20530  0.62130  0.28310  1.0000 -0.1897690276
C   C246      1.0  0.18210  0.57990  0.22230  1.0000 -0.0787568194
C   C247      1.0  0.12070  0.55480  0.17980  1.0000 -0.0662034893
C   C248      1.0  0.08340  0.56780  0.20140  1.0000 -0.0787568194
C   C249      1.0  0.10440  0.60750  0.26310  1.0000 -0.1897690276
C   C250      1.0  0.10070  0.51420  0.11620  1.0000 0.5971287163
C   C251      1.0  0.42330  0.88190  0.49780  1.0000 0.6092310072
C   C252      1.0  0.04120  0.62410  0.48160  1.0000 0.5871979268
N   N1        1.0  0.86500  0.17550  0.68860  1.0000 -0.1988168774
N   N2        1.0  0.17550  0.68860  0.86500  1.0000 -0.1988168774
N   N3        1.0  0.68860  0.86500  0.17550  1.0000 -0.1988168774
N   N4        1.0  0.63500  0.81140  0.32450  1.0000 -0.1988168774
N   N5        1.0  0.32450  0.63500  0.81140  1.0000 -0.1988168774
N   N6        1.0  0.81140  0.32450  0.63500  1.0000 -0.1988168774
N   N7        1.0  0.13500  0.82450  0.31140  1.0000 -0.1988168774
N   N8        1.0  0.82450  0.31140  0.13500  1.0000 -0.1988168774
N   N9        1.0  0.31140  0.13500  0.82450  1.0000 -0.1988168774
N   N10       1.0  0.36500  0.18860  0.67550  1.0000 -0.1988168774
N   N11       1.0  0.67550  0.36500  0.18860  1.0000 -0.1988168774
N   N12       1.0  0.18860  0.67550  0.36500  1.0000 -0.1988168774
O   O1        1.0  0.57900  0.99290  0.54730  1.0000 -0.5517045486
O   O2        1.0  0.60350  0.00330  0.63990  1.0000 -0.5599061229
O   O3        1.0  0.05280  0.39330  0.95230  1.0000 -0.5862200406
O   O4        1.0  0.97260  0.41190  0.93920  1.0000 -0.5268879511
O   O5        1.0  0.99510  0.15870  0.52040  1.0000 -0.5116816738
O   O6        1.0  0.98920  0.07820  0.53300  1.0000 -0.5599061229
O   O7        1.0  0.99290  0.54730  0.57900  1.0000 -0.5517045486
O   O8        1.0  0.00330  0.63990  0.60350  1.0000 -0.5599061229
O   O9        1.0  0.39330  0.95230  0.05280  1.0000 -0.5862200406
O   O10       1.0  0.41190  0.93920  0.97260  1.0000 -0.5268879511
O   O11       1.0  0.15870  0.52040  0.99510  1.0000 -0.5116816738
O   O12       1.0  0.07820  0.53300  0.98920  1.0000 -0.5599061229
O   O13       1.0  0.54730  0.57900  0.99290  1.0000 -0.5517045486
O   O14       1.0  0.63990  0.60350  0.00330  1.0000 -0.5599061229
O   O15       1.0  0.95230  0.05280  0.39330  1.0000 -0.5862200406
O   O16       1.0  0.93920  0.97260  0.41190  1.0000 -0.5268879511
O   O17       1.0  0.52040  0.99510  0.15870  1.0000 -0.5116816738
O   O18       1.0  0.53300  0.98920  0.07820  1.0000 -0.5599061229
O   O19       1.0  0.92100  0.95270  0.50710  1.0000 -0.5517045486
O   O20       1.0  0.89650  0.86010  0.49670  1.0000 -0.5599061229
O   O21       1.0  0.44720  0.54770  0.10670  1.0000 -0.5849750567
O   O22       1.0  0.52740  0.56080  0.08810  1.0000 -0.5268879511
O   O23       1.0  0.50490  0.97960  0.34130  1.0000 -0.5116816738
O   O24       1.0  0.51080  0.96700  0.42180  1.0000 -0.5599061229
O   O25       1.0  0.50710  0.92100  0.95270  1.0000 -0.5517045486
O   O26       1.0  0.49670  0.89650  0.86010  1.0000 -0.5599061229
O   O27       1.0  0.10670  0.44720  0.54770  1.0000 -0.5862200406
O   O28       1.0  0.08810  0.52740  0.56080  1.0000 -0.5268879511
O   O29       1.0  0.34130  0.50490  0.97960  1.0000 -0.5116816738
O   O30       1.0  0.42180  0.51080  0.96700  1.0000 -0.5599061229
O   O31       1.0  0.95270  0.50710  0.92100  1.0000 -0.5517045486
O   O32       1.0  0.86010  0.49670  0.89650  1.0000 -0.5599061229
O   O33       1.0  0.54770  0.10670  0.44720  1.0000 -0.5862200406
O   O34       1.0  0.56080  0.08810  0.52740  1.0000 -0.5268879511
O   O35       1.0  0.97960  0.34130  0.50490  1.0000 -0.5116816738
O   O36       1.0  0.96700  0.42180  0.51080  1.0000 -0.5599061229
O   O37       1.0  0.42100  0.00710  0.45270  1.0000 -0.5517045486
O   O38       1.0  0.39650  0.99670  0.36010  1.0000 -0.5599061229
O   O39       1.0  0.94720  0.60670  0.04770  1.0000 -0.5862200406
O   O40       1.0  0.02740  0.58810  0.06080  1.0000 -0.5268879511
O   O41       1.0  0.00490  0.84130  0.47960  1.0000 -0.5116816738
O   O42       1.0  0.01080  0.92180  0.46700  1.0000 -0.5599061229
O   O43       1.0  0.00710  0.45270  0.42100  1.0000 -0.5517045486
O   O44       1.0  0.99670  0.36010  0.39650  1.0000 -0.5599061229
O   O45       1.0  0.60670  0.04770  0.94720  1.0000 -0.5862200406
O   O46       1.0  0.58810  0.06080  0.02740  1.0000 -0.5268879511
O   O47       1.0  0.84130  0.47960  0.00490  1.0000 -0.5116816738
O   O48       1.0  0.92180  0.46700  0.01080  1.0000 -0.5599061229
O   O49       1.0  0.45270  0.42100  0.00710  1.0000 -0.5517045486
O   O50       1.0  0.36010  0.39650  0.99670  1.0000 -0.5599061229
O   O51       1.0  0.04770  0.94720  0.60670  1.0000 -0.5862200406
O   O52       1.0  0.06080  0.02740  0.58810  1.0000 -0.5268879511
O   O53       1.0  0.47960  0.00490  0.84130  1.0000 -0.5116816738
O   O54       1.0  0.46700  0.01080  0.92180  1.0000 -0.5599061229
O   O55       1.0  0.07900  0.04730  0.49290  1.0000 -0.5517045486
O   O56       1.0  0.10350  0.13990  0.50330  1.0000 -0.5599061229
O   O57       1.0  0.55280  0.45230  0.89330  1.0000 -0.5862200406
O   O58       1.0  0.47260  0.43920  0.91190  1.0000 -0.5268879511
O   O59       1.0  0.49510  0.02040  0.65870  1.0000 -0.5116816738
O   O60       1.0  0.48920  0.03300  0.57820  1.0000 -0.5599061229
O   O61       1.0  0.49290  0.07900  0.04730  1.0000 -0.5517045486
O   O62       1.0  0.50330  0.10350  0.13990  1.0000 -0.5599061229
O   O63       1.0  0.89330  0.55280  0.45230  1.0000 -0.5862200406
O   O64       1.0  0.91190  0.47260  0.43920  1.0000 -0.5268879511
O   O65       1.0  0.65870  0.49510  0.02040  1.0000 -0.5116816738
O   O66       1.0  0.57820  0.48920  0.03300  1.0000 -0.5599061229
O   O67       1.0  0.04730  0.49290  0.07900  1.0000 -0.5517045486
O   O68       1.0  0.13990  0.50330  0.10350  1.0000 -0.5599061229
O   O69       1.0  0.45230  0.89330  0.55280  1.0000 -0.5862200406
O   O70       1.0  0.43920  0.91190  0.47260  1.0000 -0.5268879511
O   O71       1.0  0.02040  0.65870  0.49510  1.0000 -0.5116816738
O   O72       1.0  0.03300  0.57820  0.48920  1.0000 -0.5599061229
