# DDEC6 charges by PACMAN v1.1 (https://github.com/mtap-research/PACMAN-charge/)
data_2018[Cd][nan]3[ASR]14
_chemical_formula_sum              "Cd24 H440 C672 N8 O104"
_cell_length_a       17.133
_cell_length_b       33.8993
_cell_length_c       42.533
_cell_angle_alpha    90
_cell_angle_beta     90
_cell_angle_gamma    90

_symmetry_space_group_name_H-M    "P 1"
_symmetry_Int_Tables_number       1

loop_
  _symmetry_equiv_pos_as_xyz
  'x, y, z'

loop_
  _atom_site_type_symbol
  _atom_site_label
  _atom_site_symmetry_multiplicity
  _atom_site_fract_x
  _atom_site_fract_y
  _atom_site_fract_z
  _atom_site_occupancy
  _atom_site_charge
Cd  Cd1       1.0  0.37023  0.34309  0.26057  1.0000 1.0922066428
Cd  Cd2       1.0  0.34073  0.33353  0.74716  1.0000 1.0922066428
Cd  Cd3       1.0  0.12977  0.84309  0.23943  1.0000 1.0922066428
Cd  Cd4       1.0  0.15927  0.83353  0.75284  1.0000 1.0922066428
Cd  Cd5       1.0  0.62977  0.15691  0.26057  1.0000 1.0922066428
Cd  Cd6       1.0  0.65927  0.16647  0.74716  1.0000 1.0922066428
Cd  Cd7       1.0  0.87023  0.65691  0.23943  1.0000 1.0922066428
Cd  Cd8       1.0  0.84073  0.66647  0.75284  1.0000 1.0922066428
Cd  Cd9       1.0  0.62977  0.65691  0.73943  1.0000 1.0922066428
Cd  Cd10      1.0  0.65927  0.66647  0.25284  1.0000 1.0922066428
Cd  Cd11      1.0  0.87023  0.15691  0.76057  1.0000 1.0922066428
Cd  Cd12      1.0  0.84073  0.16647  0.24716  1.0000 1.0922066428
Cd  Cd13      1.0  0.37023  0.84309  0.73943  1.0000 1.0922066428
Cd  Cd14      1.0  0.34073  0.83353  0.25284  1.0000 1.0922066428
Cd  Cd15      1.0  0.12977  0.34309  0.76057  1.0000 1.0922066428
Cd  Cd16      1.0  0.15927  0.33353  0.24716  1.0000 1.0922066428
Cd  Cd17      1.0  0.00000  0.75000  0.23782  1.0000 0.9515278496
Cd  Cd18      1.0  0.00000  0.75000  0.76477  1.0000 0.9706373819
Cd  Cd19      1.0  0.50000  0.25000  0.26218  1.0000 0.9515278496
Cd  Cd20      1.0  0.50000  0.25000  0.73523  1.0000 0.9706373819
Cd  Cd21      1.0  0.00000  0.25000  0.76218  1.0000 0.9515278496
Cd  Cd22      1.0  0.00000  0.25000  0.23523  1.0000 0.9706373819
Cd  Cd23      1.0  0.50000  0.75000  0.73782  1.0000 0.9515278496
Cd  Cd24      1.0  0.50000  0.75000  0.26477  1.0000 0.9706373819
H   H1        1.0  0.22181  0.18401  0.21817  1.0000 0.1420078913
H   H2        1.0  0.30063  0.20241  0.20654  1.0000 0.1267601587
H   H3        1.0  0.29955  0.17505  0.23625  1.0000 0.1468806871
H   H4        1.0  0.23993  0.20338  0.28622  1.0000 0.1267601587
H   H5        1.0  0.21038  0.24712  0.28511  1.0000 0.1420078913
H   H6        1.0  0.16240  0.21374  0.26847  1.0000 0.1420078913
H   H7        1.0  0.31419  0.26595  0.21880  1.0000 0.1107727555
H   H8        1.0  0.10957  0.40142  0.33344  1.0000 0.1192052177
H   H9        1.0  0.08635  0.43522  0.37921  1.0000 0.1192052177
H   H10       1.0  0.31270  0.45783  0.38692  1.0000 0.1107727555
H   H11       1.0  0.33522  0.42002  0.34246  1.0000 0.1267601587
H   H12       1.0  0.10483  0.43408  0.43673  1.0000 0.1107727555
H   H13       1.0  0.08316  0.46801  0.48296  1.0000 0.1107727555
H   H14       1.0  0.23115  0.55227  0.45543  1.0000 0.1192052177
H   H15       1.0  0.25796  0.51666  0.41023  1.0000 0.1192052177
H   H16       1.0  0.25473  0.49561  0.52257  1.0000 0.1192052177
H   H17       1.0  0.27798  0.46297  0.56901  1.0000 0.1107727555
H   H18       1.0  0.04340  0.52692  0.55371  1.0000 0.1107727555
H   H19       1.0  0.06556  0.49321  0.59966  1.0000 0.1107727555
H   H20       1.0  0.27320  0.41613  0.60357  1.0000 0.1192052177
H   H21       1.0  0.29567  0.38228  0.64941  1.0000 0.1267601587
H   H22       1.0  0.12712  0.44397  0.69175  1.0000 0.1267601587
H   H23       1.0  0.10889  0.48001  0.64634  1.0000 0.1192052177
H   H24       1.0  0.19680  0.59339  0.55011  1.0000 0.1192052177
H   H25       1.0  0.97969  0.61364  0.51979  1.0000 0.1192052177
H   H26       1.0  0.16713  0.62439  0.59692  1.0000 0.1107727555
H   H27       1.0  0.94854  0.64232  0.56718  1.0000 0.1107727555
H   H28       1.0  0.13704  0.64610  0.63924  1.0000 0.1107727555
H   H29       1.0  0.10567  0.67224  0.68741  1.0000 0.1267601587
H   H30       1.0  0.89200  0.69244  0.65839  1.0000 0.1267601587
H   H31       1.0  0.92532  0.66971  0.60940  1.0000 0.1107727555
H   H32       1.0  0.00957  0.55168  0.45484  1.0000 0.1107727555
H   H33       1.0  0.98143  0.58084  0.40765  1.0000 0.1038171203
H   H34       1.0  0.11730  0.67238  0.43033  1.0000 0.1038171203
H   H35       1.0  0.14235  0.64380  0.47822  1.0000 0.1192052177
H   H36       1.0  0.93657  0.61620  0.37001  1.0000 0.1038171203
H   H37       1.0  0.91684  0.64365  0.32113  1.0000 0.1192052177
H   H38       1.0  0.09849  0.71507  0.33436  1.0000 0.1192052177
H   H39       1.0  0.11849  0.68772  0.38330  1.0000 0.1038171203
H   H40       1.0  0.17714  0.82522  0.15986  1.0000 0.1192052177
H   H41       1.0  0.16807  0.70726  0.15796  1.0000 0.1192052177
H   H42       1.0  0.24919  0.70658  0.11476  1.0000 0.1107727555
H   H43       1.0  0.25930  0.82467  0.11672  1.0000 0.1107727555
H   H44       1.0  0.37029  0.71347  0.09504  1.0000 0.1038171203
H   H45       1.0  0.44723  0.70702  0.05114  1.0000 0.1107727555
H   H46       1.0  0.36586  0.80971  0.01925  1.0000 0.1192052177
H   H47       1.0  0.28562  0.81504  0.06206  1.0000 0.1192052177
H   H48       1.0  0.32672  0.72465  0.98704  1.0000 0.1192052177
H   H49       1.0  0.24977  0.72590  0.94287  1.0000 0.1107727555
H   H50       1.0  0.40452  0.79725  0.90087  1.0000 0.1107727555
H   H51       1.0  0.48128  0.79574  0.94523  1.0000 0.1107727555
H   H52       1.0  0.23007  0.70459  0.89361  1.0000 0.1107727555
H   H53       1.0  0.15273  0.70214  0.84903  1.0000 0.1192052177
H   H54       1.0  0.21884  0.81177  0.82681  1.0000 0.1192052177
H   H55       1.0  0.29817  0.81380  0.87048  1.0000 0.1192052177
H   H56       1.0  0.27819  0.68401  0.28183  1.0000 0.1420078913
H   H57       1.0  0.19937  0.70241  0.29346  1.0000 0.1267601587
H   H58       1.0  0.20045  0.67505  0.26375  1.0000 0.1468806871
H   H59       1.0  0.26007  0.70338  0.21378  1.0000 0.1267601587
H   H60       1.0  0.28962  0.74712  0.21489  1.0000 0.1420078913
H   H61       1.0  0.33760  0.71374  0.23153  1.0000 0.1420078913
H   H62       1.0  0.18581  0.76595  0.28120  1.0000 0.1107727555
H   H63       1.0  0.39043  0.90142  0.16656  1.0000 0.1192052177
H   H64       1.0  0.41365  0.93522  0.12079  1.0000 0.1192052177
H   H65       1.0  0.18730  0.95783  0.11308  1.0000 0.1107727555
H   H66       1.0  0.16478  0.92002  0.15754  1.0000 0.1267601587
H   H67       1.0  0.39517  0.93408  0.06327  1.0000 0.1107727555
H   H68       1.0  0.41684  0.96801  0.01704  1.0000 0.1107727555
H   H69       1.0  0.26885  0.05227  0.04457  1.0000 0.1192052177
H   H70       1.0  0.24204  0.01666  0.08977  1.0000 0.1192052177
H   H71       1.0  0.24527  0.99561  0.97743  1.0000 0.1192052177
H   H72       1.0  0.22202  0.96297  0.93099  1.0000 0.1107727555
H   H73       1.0  0.45660  0.02692  0.94629  1.0000 0.1107727555
H   H74       1.0  0.43444  0.99321  0.90034  1.0000 0.1107727555
H   H75       1.0  0.22680  0.91613  0.89643  1.0000 0.1192052177
H   H76       1.0  0.20433  0.88228  0.85059  1.0000 0.1267601587
H   H77       1.0  0.37288  0.94397  0.80825  1.0000 0.1267601587
H   H78       1.0  0.39111  0.98001  0.85366  1.0000 0.1192052177
H   H79       1.0  0.30320  0.09339  0.94989  1.0000 0.1192052177
H   H80       1.0  0.52031  0.11364  0.98021  1.0000 0.1192052177
H   H81       1.0  0.33287  0.12439  0.90308  1.0000 0.1107727555
H   H82       1.0  0.55146  0.14232  0.93282  1.0000 0.1107727555
H   H83       1.0  0.36296  0.14610  0.86076  1.0000 0.1107727555
H   H84       1.0  0.39433  0.17224  0.81259  1.0000 0.1267601587
H   H85       1.0  0.60800  0.19244  0.84161  1.0000 0.1267601587
H   H86       1.0  0.57468  0.16971  0.89060  1.0000 0.1107727555
H   H87       1.0  0.49043  0.05168  0.04516  1.0000 0.1107727555
H   H88       1.0  0.51857  0.08084  0.09235  1.0000 0.1038171203
H   H89       1.0  0.38270  0.17238  0.06967  1.0000 0.1038171203
H   H90       1.0  0.35765  0.14380  0.02178  1.0000 0.1192052177
H   H91       1.0  0.56343  0.11620  0.12999  1.0000 0.1038171203
H   H92       1.0  0.58316  0.14365  0.17887  1.0000 0.1192052177
H   H93       1.0  0.40151  0.21507  0.16564  1.0000 0.1192052177
H   H94       1.0  0.38151  0.18772  0.11670  1.0000 0.1038171203
H   H95       1.0  0.32286  0.32522  0.34014  1.0000 0.1192052177
H   H96       1.0  0.33193  0.20726  0.34204  1.0000 0.1192052177
H   H97       1.0  0.25081  0.20658  0.38524  1.0000 0.1107727555
H   H98       1.0  0.24070  0.32467  0.38328  1.0000 0.1107727555
H   H99       1.0  0.12971  0.21347  0.40496  1.0000 0.1038171203
H   H100      1.0  0.05277  0.20702  0.44886  1.0000 0.1107727555
H   H101      1.0  0.13414  0.30971  0.48075  1.0000 0.1192052177
H   H102      1.0  0.21438  0.31504  0.43794  1.0000 0.1192052177
H   H103      1.0  0.17328  0.22465  0.51296  1.0000 0.1192052177
H   H104      1.0  0.25023  0.22590  0.55713  1.0000 0.1107727555
H   H105      1.0  0.09548  0.29725  0.59913  1.0000 0.1107727555
H   H106      1.0  0.01872  0.29574  0.55477  1.0000 0.1107727555
H   H107      1.0  0.26993  0.20459  0.60639  1.0000 0.1107727555
H   H108      1.0  0.34727  0.20214  0.65097  1.0000 0.1267601587
H   H109      1.0  0.28116  0.31177  0.67319  1.0000 0.1192052177
H   H110      1.0  0.20183  0.31380  0.62952  1.0000 0.1192052177
H   H111      1.0  0.77819  0.31599  0.21817  1.0000 0.1420078913
H   H112      1.0  0.69937  0.29759  0.20654  1.0000 0.1267601587
H   H113      1.0  0.70045  0.32495  0.23625  1.0000 0.1468806871
H   H114      1.0  0.76007  0.29662  0.28622  1.0000 0.1267601587
H   H115      1.0  0.78962  0.25288  0.28511  1.0000 0.1420078913
H   H116      1.0  0.83760  0.28626  0.26847  1.0000 0.1420078913
H   H117      1.0  0.68581  0.23405  0.21880  1.0000 0.1107727555
H   H118      1.0  0.89043  0.09858  0.33344  1.0000 0.1192052177
H   H119      1.0  0.91365  0.06478  0.37921  1.0000 0.1192052177
H   H120      1.0  0.68730  0.04217  0.38692  1.0000 0.1107727555
H   H121      1.0  0.66478  0.07998  0.34246  1.0000 0.1267601587
H   H122      1.0  0.89517  0.06592  0.43673  1.0000 0.1107727555
H   H123      1.0  0.91684  0.03199  0.48296  1.0000 0.1107727555
H   H124      1.0  0.76885  0.94773  0.45543  1.0000 0.1192052177
H   H125      1.0  0.74204  0.98334  0.41023  1.0000 0.1192052177
H   H126      1.0  0.74527  0.00439  0.52257  1.0000 0.1192052177
H   H127      1.0  0.72202  0.03703  0.56901  1.0000 0.1107727555
H   H128      1.0  0.95660  0.97308  0.55371  1.0000 0.1107727555
H   H129      1.0  0.93444  0.00679  0.59966  1.0000 0.1107727555
H   H130      1.0  0.72680  0.08387  0.60357  1.0000 0.1192052177
H   H131      1.0  0.70433  0.11772  0.64941  1.0000 0.1267601587
H   H132      1.0  0.87288  0.05603  0.69175  1.0000 0.1267601587
H   H133      1.0  0.89111  0.01999  0.64634  1.0000 0.1192052177
H   H134      1.0  0.80320  0.90661  0.55011  1.0000 0.1192052177
H   H135      1.0  0.02031  0.88636  0.51979  1.0000 0.1192052177
H   H136      1.0  0.83287  0.87561  0.59692  1.0000 0.1107727555
H   H137      1.0  0.05146  0.85768  0.56718  1.0000 0.1107727555
H   H138      1.0  0.86296  0.85390  0.63924  1.0000 0.1107727555
H   H139      1.0  0.89433  0.82776  0.68741  1.0000 0.1267601587
H   H140      1.0  0.10800  0.80756  0.65839  1.0000 0.1267601587
H   H141      1.0  0.07468  0.83029  0.60940  1.0000 0.1107727555
H   H142      1.0  0.99043  0.94832  0.45484  1.0000 0.1107727555
H   H143      1.0  0.01857  0.91916  0.40765  1.0000 0.1038171203
H   H144      1.0  0.88270  0.82762  0.43033  1.0000 0.1038171203
H   H145      1.0  0.85765  0.85620  0.47822  1.0000 0.1192052177
H   H146      1.0  0.06343  0.88380  0.37001  1.0000 0.1038171203
H   H147      1.0  0.08316  0.85635  0.32113  1.0000 0.1107727555
H   H148      1.0  0.90151  0.78493  0.33436  1.0000 0.1192052177
H   H149      1.0  0.88151  0.81228  0.38330  1.0000 0.1038171203
H   H150      1.0  0.82286  0.67478  0.15986  1.0000 0.1192052177
H   H151      1.0  0.83193  0.79274  0.15796  1.0000 0.1192052177
H   H152      1.0  0.75081  0.79342  0.11476  1.0000 0.1107727555
H   H153      1.0  0.74070  0.67533  0.11672  1.0000 0.1107727555
H   H154      1.0  0.62971  0.78653  0.09504  1.0000 0.1038171203
H   H155      1.0  0.55277  0.79298  0.05114  1.0000 0.1107727555
H   H156      1.0  0.63414  0.69029  0.01925  1.0000 0.1192052177
H   H157      1.0  0.71438  0.68496  0.06206  1.0000 0.1192052177
H   H158      1.0  0.67328  0.77535  0.98704  1.0000 0.1192052177
H   H159      1.0  0.75023  0.77410  0.94287  1.0000 0.1107727555
H   H160      1.0  0.59548  0.70275  0.90087  1.0000 0.1107727555
H   H161      1.0  0.51872  0.70426  0.94523  1.0000 0.1107727555
H   H162      1.0  0.76993  0.79541  0.89361  1.0000 0.1107727555
H   H163      1.0  0.84727  0.79786  0.84903  1.0000 0.1192052177
H   H164      1.0  0.78116  0.68823  0.82681  1.0000 0.1192052177
H   H165      1.0  0.70183  0.68620  0.87048  1.0000 0.1192052177
H   H166      1.0  0.72181  0.81599  0.28183  1.0000 0.1420078913
H   H167      1.0  0.80063  0.79759  0.29346  1.0000 0.1267601587
H   H168      1.0  0.79955  0.82495  0.26375  1.0000 0.1468806871
H   H169      1.0  0.73993  0.79662  0.21378  1.0000 0.1267601587
H   H170      1.0  0.71038  0.75288  0.21489  1.0000 0.1420078913
H   H171      1.0  0.66240  0.78626  0.23153  1.0000 0.1420078913
H   H172      1.0  0.81419  0.73405  0.28120  1.0000 0.1107727555
H   H173      1.0  0.60957  0.59858  0.16656  1.0000 0.1192052177
H   H174      1.0  0.58635  0.56478  0.12079  1.0000 0.1192052177
H   H175      1.0  0.81270  0.54217  0.11308  1.0000 0.1107727555
H   H176      1.0  0.83522  0.57998  0.15754  1.0000 0.1267601587
H   H177      1.0  0.60483  0.56592  0.06327  1.0000 0.1107727555
H   H178      1.0  0.58316  0.53199  0.01704  1.0000 0.1107727555
H   H179      1.0  0.73115  0.44773  0.04457  1.0000 0.1192052177
H   H180      1.0  0.75796  0.48334  0.08977  1.0000 0.1192052177
H   H181      1.0  0.75473  0.50439  0.97743  1.0000 0.1192052177
H   H182      1.0  0.77798  0.53703  0.93099  1.0000 0.1107727555
H   H183      1.0  0.54340  0.47308  0.94629  1.0000 0.1107727555
H   H184      1.0  0.56556  0.50679  0.90034  1.0000 0.1107727555
H   H185      1.0  0.77320  0.58387  0.89643  1.0000 0.1192052177
H   H186      1.0  0.79567  0.61772  0.85059  1.0000 0.1267601587
H   H187      1.0  0.62712  0.55603  0.80825  1.0000 0.1267601587
H   H188      1.0  0.60889  0.51999  0.85366  1.0000 0.1192052177
H   H189      1.0  0.69680  0.40661  0.94989  1.0000 0.1192052177
H   H190      1.0  0.47969  0.38636  0.98021  1.0000 0.1192052177
H   H191      1.0  0.66713  0.37561  0.90308  1.0000 0.1107727555
H   H192      1.0  0.44854  0.35768  0.93282  1.0000 0.1107727555
H   H193      1.0  0.63704  0.35390  0.86076  1.0000 0.1107727555
H   H194      1.0  0.60567  0.32776  0.81259  1.0000 0.1267601587
H   H195      1.0  0.39200  0.30756  0.84161  1.0000 0.1267601587
H   H196      1.0  0.42532  0.33029  0.89060  1.0000 0.1107727555
H   H197      1.0  0.50957  0.44832  0.04516  1.0000 0.1107727555
H   H198      1.0  0.48143  0.41916  0.09235  1.0000 0.1038171203
H   H199      1.0  0.61730  0.32762  0.06967  1.0000 0.1038171203
H   H200      1.0  0.64235  0.35620  0.02178  1.0000 0.1192052177
H   H201      1.0  0.43657  0.38380  0.12999  1.0000 0.1038171203
H   H202      1.0  0.41684  0.35635  0.17887  1.0000 0.1192052177
H   H203      1.0  0.59849  0.28493  0.16564  1.0000 0.1192052177
H   H204      1.0  0.61849  0.31228  0.11670  1.0000 0.1038171203
H   H205      1.0  0.67714  0.17478  0.34014  1.0000 0.1192052177
H   H206      1.0  0.66807  0.29274  0.34204  1.0000 0.1192052177
H   H207      1.0  0.74919  0.29342  0.38524  1.0000 0.1107727555
H   H208      1.0  0.75930  0.17533  0.38328  1.0000 0.1107727555
H   H209      1.0  0.87029  0.28653  0.40496  1.0000 0.1038171203
H   H210      1.0  0.94723  0.29298  0.44886  1.0000 0.1107727555
H   H211      1.0  0.86586  0.19029  0.48075  1.0000 0.1192052177
H   H212      1.0  0.78562  0.18496  0.43794  1.0000 0.1192052177
H   H213      1.0  0.82672  0.27535  0.51296  1.0000 0.1192052177
H   H214      1.0  0.74977  0.27410  0.55713  1.0000 0.1107727555
H   H215      1.0  0.90452  0.20275  0.59913  1.0000 0.1107727555
H   H216      1.0  0.98128  0.20426  0.55477  1.0000 0.1107727555
H   H217      1.0  0.73007  0.29541  0.60639  1.0000 0.1107727555
H   H218      1.0  0.65273  0.29786  0.65097  1.0000 0.1192052177
H   H219      1.0  0.71884  0.18823  0.67319  1.0000 0.1192052177
H   H220      1.0  0.79817  0.18620  0.62952  1.0000 0.1192052177
H   H221      1.0  0.77819  0.81599  0.78183  1.0000 0.1420078913
H   H222      1.0  0.69937  0.79759  0.79346  1.0000 0.1267601587
H   H223      1.0  0.70045  0.82495  0.76375  1.0000 0.1468806871
H   H224      1.0  0.76007  0.79662  0.71378  1.0000 0.1267601587
H   H225      1.0  0.78962  0.75288  0.71489  1.0000 0.1420078913
H   H226      1.0  0.83760  0.78626  0.73153  1.0000 0.1420078913
H   H227      1.0  0.68581  0.73405  0.78120  1.0000 0.1107727555
H   H228      1.0  0.89043  0.59858  0.66656  1.0000 0.1192052177
H   H229      1.0  0.91365  0.56478  0.62079  1.0000 0.1192052177
H   H230      1.0  0.68730  0.54217  0.61308  1.0000 0.1107727555
H   H231      1.0  0.66478  0.57998  0.65754  1.0000 0.1192052177
H   H232      1.0  0.89517  0.56592  0.56327  1.0000 0.1107727555
H   H233      1.0  0.91684  0.53199  0.51704  1.0000 0.1107727555
H   H234      1.0  0.76885  0.44773  0.54457  1.0000 0.1192052177
H   H235      1.0  0.74204  0.48334  0.58977  1.0000 0.1192052177
H   H236      1.0  0.74527  0.50439  0.47743  1.0000 0.1192052177
H   H237      1.0  0.72202  0.53703  0.43099  1.0000 0.1107727555
H   H238      1.0  0.95660  0.47308  0.44629  1.0000 0.1107727555
H   H239      1.0  0.93444  0.50679  0.40034  1.0000 0.1107727555
H   H240      1.0  0.72680  0.58387  0.39643  1.0000 0.1192052177
H   H241      1.0  0.70433  0.61772  0.35059  1.0000 0.1267601587
H   H242      1.0  0.87288  0.55603  0.30825  1.0000 0.1267601587
H   H243      1.0  0.89111  0.51999  0.35366  1.0000 0.1192052177
H   H244      1.0  0.80320  0.40661  0.44989  1.0000 0.1192052177
H   H245      1.0  0.02031  0.38636  0.48021  1.0000 0.1192052177
H   H246      1.0  0.83287  0.37561  0.40308  1.0000 0.1107727555
H   H247      1.0  0.05146  0.35768  0.43282  1.0000 0.1107727555
H   H248      1.0  0.86296  0.35390  0.36076  1.0000 0.1107727555
H   H249      1.0  0.89433  0.32776  0.31259  1.0000 0.1267601587
H   H250      1.0  0.10800  0.30756  0.34161  1.0000 0.1267601587
H   H251      1.0  0.07468  0.33029  0.39060  1.0000 0.1107727555
H   H252      1.0  0.99043  0.44832  0.54516  1.0000 0.1107727555
H   H253      1.0  0.01857  0.41916  0.59235  1.0000 0.1038171203
H   H254      1.0  0.88270  0.32762  0.56967  1.0000 0.1038171203
H   H255      1.0  0.85765  0.35620  0.52178  1.0000 0.1192052177
H   H256      1.0  0.06343  0.38380  0.62999  1.0000 0.1038171203
H   H257      1.0  0.08316  0.35635  0.67887  1.0000 0.1107727555
H   H258      1.0  0.90151  0.28493  0.66564  1.0000 0.1192052177
H   H259      1.0  0.88151  0.31228  0.61670  1.0000 0.1038171203
H   H260      1.0  0.82286  0.17478  0.84014  1.0000 0.1192052177
H   H261      1.0  0.83193  0.29274  0.84204  1.0000 0.1192052177
H   H262      1.0  0.75081  0.29342  0.88524  1.0000 0.1107727555
H   H263      1.0  0.74070  0.17533  0.88328  1.0000 0.1107727555
H   H264      1.0  0.62971  0.28653  0.90496  1.0000 0.1038171203
H   H265      1.0  0.55277  0.29298  0.94886  1.0000 0.1107727555
H   H266      1.0  0.63414  0.19029  0.98075  1.0000 0.1192052177
H   H267      1.0  0.71438  0.18496  0.93794  1.0000 0.1192052177
H   H268      1.0  0.67328  0.27535  0.01296  1.0000 0.1192052177
H   H269      1.0  0.75023  0.27410  0.05713  1.0000 0.1107727555
H   H270      1.0  0.59548  0.20275  0.09913  1.0000 0.1107727555
H   H271      1.0  0.51872  0.20426  0.05477  1.0000 0.1107727555
H   H272      1.0  0.76993  0.29541  0.10639  1.0000 0.1107727555
H   H273      1.0  0.84727  0.29786  0.15097  1.0000 0.1192052177
H   H274      1.0  0.78116  0.18823  0.17319  1.0000 0.1192052177
H   H275      1.0  0.70183  0.18620  0.12952  1.0000 0.1192052177
H   H276      1.0  0.72181  0.31599  0.71817  1.0000 0.1420078913
H   H277      1.0  0.80063  0.29759  0.70654  1.0000 0.1267601587
H   H278      1.0  0.79955  0.32495  0.73625  1.0000 0.1468806871
H   H279      1.0  0.73993  0.29662  0.78622  1.0000 0.1267601587
H   H280      1.0  0.71038  0.25288  0.78511  1.0000 0.1420078913
H   H281      1.0  0.66240  0.28626  0.76847  1.0000 0.1420078913
H   H282      1.0  0.81419  0.23405  0.71880  1.0000 0.1107727555
H   H283      1.0  0.60957  0.09858  0.83344  1.0000 0.1192052177
H   H284      1.0  0.58635  0.06478  0.87921  1.0000 0.1192052177
H   H285      1.0  0.81270  0.04217  0.88692  1.0000 0.1107727555
H   H286      1.0  0.83522  0.07998  0.84246  1.0000 0.1192052177
H   H287      1.0  0.60483  0.06592  0.93673  1.0000 0.1107727555
H   H288      1.0  0.58316  0.03199  0.98296  1.0000 0.1107727555
H   H289      1.0  0.73115  0.94773  0.95543  1.0000 0.1192052177
H   H290      1.0  0.75796  0.98334  0.91023  1.0000 0.1192052177
H   H291      1.0  0.75473  0.00439  0.02257  1.0000 0.1192052177
H   H292      1.0  0.77798  0.03703  0.06901  1.0000 0.1107727555
H   H293      1.0  0.54340  0.97308  0.05371  1.0000 0.1107727555
H   H294      1.0  0.56556  0.00679  0.09966  1.0000 0.1107727555
H   H295      1.0  0.77320  0.08387  0.10357  1.0000 0.1192052177
H   H296      1.0  0.79567  0.11772  0.14941  1.0000 0.1267601587
H   H297      1.0  0.62712  0.05603  0.19175  1.0000 0.1267601587
H   H298      1.0  0.60889  0.01999  0.14634  1.0000 0.1192052177
H   H299      1.0  0.69680  0.90661  0.05011  1.0000 0.1192052177
H   H300      1.0  0.47969  0.88636  0.01979  1.0000 0.1192052177
H   H301      1.0  0.66713  0.87561  0.09692  1.0000 0.1107727555
H   H302      1.0  0.44854  0.85768  0.06718  1.0000 0.1107727555
H   H303      1.0  0.63704  0.85390  0.13924  1.0000 0.1107727555
H   H304      1.0  0.60567  0.82776  0.18741  1.0000 0.1267601587
H   H305      1.0  0.39200  0.80756  0.15839  1.0000 0.1267601587
H   H306      1.0  0.42532  0.83029  0.10940  1.0000 0.1107727555
H   H307      1.0  0.50957  0.94832  0.95484  1.0000 0.1107727555
H   H308      1.0  0.48143  0.91916  0.90765  1.0000 0.1038171203
H   H309      1.0  0.61730  0.82762  0.93033  1.0000 0.1038171203
H   H310      1.0  0.64235  0.85620  0.97822  1.0000 0.1192052177
H   H311      1.0  0.43657  0.88380  0.87001  1.0000 0.1038171203
H   H312      1.0  0.41684  0.85635  0.82113  1.0000 0.1107727555
H   H313      1.0  0.59849  0.78493  0.83436  1.0000 0.1192052177
H   H314      1.0  0.61849  0.81228  0.88330  1.0000 0.1038171203
H   H315      1.0  0.67714  0.67478  0.65986  1.0000 0.1192052177
H   H316      1.0  0.66807  0.79274  0.65796  1.0000 0.1192052177
H   H317      1.0  0.74919  0.79342  0.61476  1.0000 0.1107727555
H   H318      1.0  0.75930  0.67533  0.61672  1.0000 0.1107727555
H   H319      1.0  0.87029  0.78653  0.59504  1.0000 0.1038171203
H   H320      1.0  0.94723  0.79298  0.55114  1.0000 0.1107727555
H   H321      1.0  0.86586  0.69029  0.51925  1.0000 0.1192052177
H   H322      1.0  0.78562  0.68496  0.56206  1.0000 0.1192052177
H   H323      1.0  0.82672  0.77535  0.48704  1.0000 0.1192052177
H   H324      1.0  0.74977  0.77410  0.44287  1.0000 0.1107727555
H   H325      1.0  0.90452  0.70275  0.40087  1.0000 0.1107727555
H   H326      1.0  0.98128  0.70426  0.44523  1.0000 0.1107727555
H   H327      1.0  0.73007  0.79541  0.39361  1.0000 0.1107727555
H   H328      1.0  0.65273  0.79786  0.34903  1.0000 0.1267601587
H   H329      1.0  0.71884  0.68823  0.32681  1.0000 0.1192052177
H   H330      1.0  0.79817  0.68620  0.37048  1.0000 0.1192052177
H   H331      1.0  0.22181  0.68401  0.78183  1.0000 0.1420078913
H   H332      1.0  0.30063  0.70241  0.79346  1.0000 0.1267601587
H   H333      1.0  0.29955  0.67505  0.76375  1.0000 0.1468806871
H   H334      1.0  0.23993  0.70338  0.71378  1.0000 0.1267601587
H   H335      1.0  0.21038  0.74712  0.71489  1.0000 0.1420078913
H   H336      1.0  0.16240  0.71374  0.73153  1.0000 0.1420078913
H   H337      1.0  0.31419  0.76595  0.78120  1.0000 0.1107727555
H   H338      1.0  0.10957  0.90142  0.66656  1.0000 0.1192052177
H   H339      1.0  0.08635  0.93522  0.62079  1.0000 0.1192052177
H   H340      1.0  0.31270  0.95783  0.61308  1.0000 0.1107727555
H   H341      1.0  0.33522  0.92002  0.65754  1.0000 0.1267601587
H   H342      1.0  0.10483  0.93408  0.56327  1.0000 0.1107727555
H   H343      1.0  0.08316  0.96801  0.51704  1.0000 0.1107727555
H   H344      1.0  0.23115  0.05227  0.54457  1.0000 0.1192052177
H   H345      1.0  0.25796  0.01666  0.58977  1.0000 0.1192052177
H   H346      1.0  0.25473  0.99561  0.47743  1.0000 0.1192052177
H   H347      1.0  0.27798  0.96297  0.43099  1.0000 0.1107727555
H   H348      1.0  0.04340  0.02692  0.44629  1.0000 0.1107727555
H   H349      1.0  0.06556  0.99321  0.40034  1.0000 0.1107727555
H   H350      1.0  0.27320  0.91613  0.39643  1.0000 0.1192052177
H   H351      1.0  0.29567  0.88228  0.35059  1.0000 0.1267601587
H   H352      1.0  0.12712  0.94397  0.30825  1.0000 0.1267601587
H   H353      1.0  0.10889  0.98001  0.35366  1.0000 0.1192052177
H   H354      1.0  0.19680  0.09339  0.44989  1.0000 0.1192052177
H   H355      1.0  0.97969  0.11364  0.48021  1.0000 0.1192052177
H   H356      1.0  0.16713  0.12439  0.40308  1.0000 0.1107727555
H   H357      1.0  0.94854  0.14232  0.43282  1.0000 0.1107727555
H   H358      1.0  0.13704  0.14610  0.36076  1.0000 0.1107727555
H   H359      1.0  0.10567  0.17224  0.31259  1.0000 0.1267601587
H   H360      1.0  0.89200  0.19244  0.34161  1.0000 0.1267601587
H   H361      1.0  0.92532  0.16971  0.39060  1.0000 0.1107727555
H   H362      1.0  0.00957  0.05168  0.54516  1.0000 0.1107727555
H   H363      1.0  0.98143  0.08084  0.59235  1.0000 0.1038171203
H   H364      1.0  0.11730  0.17238  0.56967  1.0000 0.1038171203
H   H365      1.0  0.14235  0.14380  0.52178  1.0000 0.1192052177
H   H366      1.0  0.93657  0.11620  0.62999  1.0000 0.1038171203
H   H367      1.0  0.91684  0.14365  0.67887  1.0000 0.1192052177
H   H368      1.0  0.09849  0.21507  0.66564  1.0000 0.1192052177
H   H369      1.0  0.11849  0.18772  0.61670  1.0000 0.1038171203
H   H370      1.0  0.17714  0.32522  0.84014  1.0000 0.1192052177
H   H371      1.0  0.16807  0.20726  0.84204  1.0000 0.1192052177
H   H372      1.0  0.24919  0.20658  0.88524  1.0000 0.1107727555
H   H373      1.0  0.25930  0.32467  0.88328  1.0000 0.1107727555
H   H374      1.0  0.37029  0.21347  0.90496  1.0000 0.1038171203
H   H375      1.0  0.44723  0.20702  0.94886  1.0000 0.1107727555
H   H376      1.0  0.36586  0.30971  0.98075  1.0000 0.1192052177
H   H377      1.0  0.28562  0.31504  0.93794  1.0000 0.1192052177
H   H378      1.0  0.32672  0.22465  0.01296  1.0000 0.1192052177
H   H379      1.0  0.24977  0.22590  0.05713  1.0000 0.1107727555
H   H380      1.0  0.40452  0.29725  0.09913  1.0000 0.1107727555
H   H381      1.0  0.48128  0.29574  0.05477  1.0000 0.1107727555
H   H382      1.0  0.23007  0.20459  0.10639  1.0000 0.1107727555
H   H383      1.0  0.15273  0.20214  0.15097  1.0000 0.1192052177
H   H384      1.0  0.21884  0.31177  0.17319  1.0000 0.1192052177
H   H385      1.0  0.29817  0.31380  0.12952  1.0000 0.1192052177
H   H386      1.0  0.27819  0.18401  0.71817  1.0000 0.1420078913
H   H387      1.0  0.19937  0.20241  0.70654  1.0000 0.1267601587
H   H388      1.0  0.20045  0.17505  0.73625  1.0000 0.1468806871
H   H389      1.0  0.26007  0.20338  0.78622  1.0000 0.1267601587
H   H390      1.0  0.28962  0.24712  0.78511  1.0000 0.1420078913
H   H391      1.0  0.33760  0.21374  0.76847  1.0000 0.1420078913
H   H392      1.0  0.18581  0.26595  0.71880  1.0000 0.1107727555
H   H393      1.0  0.39043  0.40142  0.83344  1.0000 0.1192052177
H   H394      1.0  0.41365  0.43522  0.87921  1.0000 0.1192052177
H   H395      1.0  0.18730  0.45783  0.88692  1.0000 0.1107727555
H   H396      1.0  0.16478  0.42002  0.84246  1.0000 0.1267601587
H   H397      1.0  0.39517  0.43408  0.93673  1.0000 0.1107727555
H   H398      1.0  0.41684  0.46801  0.98296  1.0000 0.1107727555
H   H399      1.0  0.26885  0.55227  0.95543  1.0000 0.1192052177
H   H400      1.0  0.24204  0.51666  0.91023  1.0000 0.1192052177
H   H401      1.0  0.24527  0.49561  0.02257  1.0000 0.1192052177
H   H402      1.0  0.22202  0.46297  0.06901  1.0000 0.1107727555
H   H403      1.0  0.45660  0.52692  0.05371  1.0000 0.1107727555
H   H404      1.0  0.43444  0.49321  0.09966  1.0000 0.1107727555
H   H405      1.0  0.22680  0.41613  0.10357  1.0000 0.1192052177
H   H406      1.0  0.20433  0.38228  0.14941  1.0000 0.1267601587
H   H407      1.0  0.37288  0.44397  0.19175  1.0000 0.1267601587
H   H408      1.0  0.39111  0.48001  0.14634  1.0000 0.1192052177
H   H409      1.0  0.30320  0.59339  0.05011  1.0000 0.1192052177
H   H410      1.0  0.52031  0.61364  0.01979  1.0000 0.1192052177
H   H411      1.0  0.33287  0.62439  0.09692  1.0000 0.1107727555
H   H412      1.0  0.55146  0.64232  0.06718  1.0000 0.1107727555
H   H413      1.0  0.36296  0.64610  0.13924  1.0000 0.1107727555
H   H414      1.0  0.39433  0.67224  0.18741  1.0000 0.1267601587
H   H415      1.0  0.60800  0.69244  0.15839  1.0000 0.1267601587
H   H416      1.0  0.57468  0.66971  0.10940  1.0000 0.1107727555
H   H417      1.0  0.49043  0.55168  0.95484  1.0000 0.1107727555
H   H418      1.0  0.51857  0.58084  0.90765  1.0000 0.1038171203
H   H419      1.0  0.38270  0.67238  0.93033  1.0000 0.1038171203
H   H420      1.0  0.35765  0.64380  0.97822  1.0000 0.1192052177
H   H421      1.0  0.56343  0.61620  0.87001  1.0000 0.1038171203
H   H422      1.0  0.58316  0.64365  0.82113  1.0000 0.1192052177
H   H423      1.0  0.40151  0.71507  0.83436  1.0000 0.1192052177
H   H424      1.0  0.38151  0.68772  0.88330  1.0000 0.1038171203
H   H425      1.0  0.32286  0.82522  0.65986  1.0000 0.1192052177
H   H426      1.0  0.33193  0.70726  0.65796  1.0000 0.1192052177
H   H427      1.0  0.25081  0.70658  0.61476  1.0000 0.1107727555
H   H428      1.0  0.24070  0.82467  0.61672  1.0000 0.1107727555
H   H429      1.0  0.12971  0.71347  0.59504  1.0000 0.1038171203
H   H430      1.0  0.05277  0.70702  0.55114  1.0000 0.1107727555
H   H431      1.0  0.13414  0.80971  0.51925  1.0000 0.1192052177
H   H432      1.0  0.21438  0.81504  0.56206  1.0000 0.1192052177
H   H433      1.0  0.17328  0.72465  0.48704  1.0000 0.1192052177
H   H434      1.0  0.25023  0.72590  0.44287  1.0000 0.1107727555
H   H435      1.0  0.09548  0.79725  0.40087  1.0000 0.1107727555
H   H436      1.0  0.01872  0.79574  0.44523  1.0000 0.1107727555
H   H437      1.0  0.26993  0.70459  0.39361  1.0000 0.1107727555
H   H438      1.0  0.34727  0.70214  0.34903  1.0000 0.1267601587
H   H439      1.0  0.28116  0.81177  0.32681  1.0000 0.1192052177
H   H440      1.0  0.20183  0.81380  0.37048  1.0000 0.1192052177
C   C1        1.0  0.27110  0.19469  0.22471  1.0000 -0.335358455
C   C2        1.0  0.21390  0.22283  0.27360  1.0000 -0.3328457417
C   C3        1.0  0.28460  0.26399  0.23705  1.0000 0.2923615024
C   C4        1.0  0.24120  0.38415  0.30346  1.0000 0.6106160739
C   C5        1.0  0.22530  0.40760  0.33294  1.0000 -0.0322845915
C   C6        1.0  0.15130  0.41230  0.34439  1.0000 -0.0987217178
C   C7        1.0  0.13720  0.43286  0.37184  1.0000 -0.1568336432
C   C8        1.0  0.19730  0.44991  0.38846  1.0000 0.0698493932
C   C9        1.0  0.27100  0.44580  0.37672  1.0000 -0.1493831916
C   C10       1.0  0.28430  0.42368  0.34939  1.0000 -0.0923194512
C   C11       1.0  0.18250  0.47205  0.41800  1.0000 0.0698493932
C   C12       1.0  0.13070  0.45776  0.44033  1.0000 -0.1493831916
C   C13       1.0  0.11710  0.47844  0.46805  1.0000 -0.1493831916
C   C14       1.0  0.15320  0.51435  0.47382  1.0000 0.0698493932
C   C15       1.0  0.20580  0.52843  0.45188  1.0000 -0.141933641
C   C16       1.0  0.22120  0.50716  0.42442  1.0000 -0.141933641
C   C17       1.0  0.13349  0.53702  0.50291  1.0000 -0.0195134569
C   C18       1.0  0.21660  0.49559  0.53815  1.0000 -0.1493831916
C   C19       1.0  0.23040  0.47562  0.56607  1.0000 -0.141933641
C   C20       1.0  0.14690  0.51556  0.53305  1.0000 0.0698493932
C   C21       1.0  0.09080  0.51407  0.55660  1.0000 -0.141933641
C   C22       1.0  0.10430  0.49375  0.58434  1.0000 -0.1493831916
C   C23       1.0  0.17440  0.47409  0.58986  1.0000 0.0627709376
C   C24       1.0  0.18900  0.45201  0.61956  1.0000 0.0698493932
C   C25       1.0  0.24420  0.42236  0.62136  1.0000 -0.1493831916
C   C26       1.0  0.25740  0.40174  0.64888  1.0000 -0.0987217178
C   C27       1.0  0.21410  0.40978  0.67576  1.0000 -0.0416436355
C   C28       1.0  0.15770  0.43867  0.67420  1.0000 -0.0923194512
C   C29       1.0  0.14600  0.46002  0.64667  1.0000 -0.1493831916
C   C30       1.0  0.22470  0.38566  0.70529  1.0000 0.600403861
C   C31       1.0  0.10460  0.57412  0.50160  1.0000 -0.0195134569
C   C32       1.0  0.08994  0.59777  0.53034  1.0000 0.0698493932
C   C33       1.0  0.14640  0.60264  0.55353  1.0000 -0.141933641
C   C34       1.0  0.01700  0.61444  0.53567  1.0000 -0.1493831916
C   C35       1.0  0.12830  0.62125  0.58184  1.0000 -0.1493831916
C   C36       1.0  0.99845  0.63224  0.56411  1.0000 -0.1493831916
C   C37       1.0  0.05340  0.63525  0.58810  1.0000 0.0627709376
C   C38       1.0  0.03320  0.65285  0.61905  1.0000 0.0698493932
C   C39       1.0  0.08660  0.65520  0.64272  1.0000 -0.1568336432
C   C40       1.0  0.06750  0.67080  0.67192  1.0000 -0.0987217178
C   C41       1.0  0.99443  0.68385  0.67836  1.0000 -0.0195134569
C   C42       1.0  0.94230  0.68310  0.65489  1.0000 -0.0923194512
C   C43       1.0  0.96220  0.66859  0.62541  1.0000 -0.1568336432
C   C44       1.0  0.97378  0.69845  0.71040  1.0000 0.5702858674
C   C45       1.0  0.08312  0.59331  0.47119  1.0000 0.0698493932
C   C46       1.0  0.03240  0.57579  0.44988  1.0000 -0.141933641
C   C47       1.0  0.01520  0.59349  0.42149  1.0000 -0.141933641
C   C48       1.0  0.04700  0.62974  0.41300  1.0000 0.0698493932
C   C49       1.0  0.09550  0.64796  0.43500  1.0000 -0.1493831916
C   C50       1.0  0.11170  0.63041  0.46368  1.0000 -0.141933641
C   C51       1.0  0.03142  0.64808  0.38196  1.0000 0.0765710109
C   C52       1.0  0.97020  0.63580  0.36289  1.0000 -0.1493831916
C   C53       1.0  0.95840  0.65232  0.33333  1.0000 -0.0987217178
C   C54       1.0  0.00696  0.68126  0.32192  1.0000 -0.0195134569
C   C55       1.0  0.06620  0.69475  0.34122  1.0000 -0.1062694044
C   C56       1.0  0.07820  0.67825  0.37077  1.0000 -0.1493831916
C   C57       1.0  0.99650  0.69771  0.28944  1.0000 0.5777541258
C   C58       1.0  0.11110  0.76593  0.19131  1.0000 0.5777541258
C   C59       1.0  0.19160  0.80128  0.15091  1.0000 -0.0847389019
C   C60       1.0  0.16380  0.76646  0.16352  1.0000 -0.0322845915
C   C61       1.0  0.18620  0.73095  0.14970  1.0000 -0.0987217178
C   C62       1.0  0.23520  0.73057  0.12376  1.0000 -0.1493831916
C   C63       1.0  0.26410  0.76571  0.11088  1.0000 0.0698493932
C   C64       1.0  0.24120  0.80091  0.12487  1.0000 -0.1493831916
C   C65       1.0  0.31670  0.76422  0.08338  1.0000 0.0627709376
C   C66       1.0  0.36780  0.73272  0.07950  1.0000 -0.141933641
C   C67       1.0  0.41520  0.72903  0.05324  1.0000 -0.1334114514
C   C68       1.0  0.41550  0.75773  0.03014  1.0000 0.0698493932
C   C69       1.0  0.36628  0.78982  0.03431  1.0000 -0.1493831916
C   C70       1.0  0.31792  0.79313  0.06015  1.0000 -0.1493831916
C   C71       1.0  0.41429  0.75849  0.97080  1.0000 0.0698493932
C   C72       1.0  0.34340  0.73878  0.96954  1.0000 -0.1493831916
C   C73       1.0  0.29683  0.73957  0.94298  1.0000 -0.1493831916
C   C74       1.0  0.31970  0.76070  0.91626  1.0000 0.0627709376
C   C75       1.0  0.38900  0.78205  0.91798  1.0000 -0.141933641
C   C76       1.0  0.43540  0.78109  0.94469  1.0000 -0.141933641
C   C77       1.0  0.27170  0.75981  0.88739  1.0000 0.0698493932
C   C78       1.0  0.22790  0.72632  0.88029  1.0000 -0.1568336432
C   C79       1.0  0.18100  0.72487  0.85351  1.0000 -0.0923194512
C   C80       1.0  0.17620  0.75722  0.83344  1.0000 -0.0416436355
C   C81       1.0  0.22070  0.79011  0.84020  1.0000 -0.0987217178
C   C82       1.0  0.26820  0.79144  0.86662  1.0000 -0.141933641
C   C83       1.0  0.12108  0.75610  0.80654  1.0000 0.5702858674
C   C84       1.0  0.46120  0.75417  0.00039  1.0000 -0.0123346768
C   C85       1.0  0.22890  0.69469  0.27529  1.0000 -0.335358455
C   C86       1.0  0.28610  0.72283  0.22640  1.0000 -0.3328457417
C   C87       1.0  0.21540  0.76399  0.26295  1.0000 0.2923615024
C   C88       1.0  0.25880  0.88415  0.19654  1.0000 0.6106160739
C   C89       1.0  0.27470  0.90760  0.16706  1.0000 -0.0322845915
C   C90       1.0  0.34870  0.91230  0.15561  1.0000 -0.0987217178
C   C91       1.0  0.36280  0.93286  0.12816  1.0000 -0.1568336432
C   C92       1.0  0.30270  0.94991  0.11154  1.0000 0.0698493932
C   C93       1.0  0.22900  0.94580  0.12328  1.0000 -0.1493831916
C   C94       1.0  0.21570  0.92368  0.15061  1.0000 -0.0923194512
C   C95       1.0  0.31750  0.97205  0.08200  1.0000 0.0698493932
C   C96       1.0  0.36930  0.95776  0.05967  1.0000 -0.1493831916
C   C97       1.0  0.38290  0.97844  0.03195  1.0000 -0.1493831916
C   C98       1.0  0.34680  0.01435  0.02618  1.0000 0.0698493932
C   C99       1.0  0.29420  0.02843  0.04812  1.0000 -0.141933641
C   C100      1.0  0.27880  0.00716  0.07558  1.0000 -0.141933641
C   C101      1.0  0.36651  0.03702  0.99709  1.0000 -0.0195134569
C   C102      1.0  0.28340  0.99559  0.96185  1.0000 -0.1493831916
C   C103      1.0  0.26960  0.97562  0.93393  1.0000 -0.1493831916
C   C104      1.0  0.35310  0.01556  0.96695  1.0000 0.0698493932
C   C105      1.0  0.40920  0.01407  0.94340  1.0000 -0.141933641
C   C106      1.0  0.39570  0.99375  0.91566  1.0000 -0.1493831916
C   C107      1.0  0.32560  0.97409  0.91014  1.0000 0.0627709376
C   C108      1.0  0.31100  0.95201  0.88044  1.0000 0.0627709376
C   C109      1.0  0.25580  0.92236  0.87864  1.0000 -0.1493831916
C   C110      1.0  0.24260  0.90174  0.85112  1.0000 -0.0987217178
C   C111      1.0  0.28590  0.90978  0.82424  1.0000 -0.0416436355
C   C112      1.0  0.34230  0.93867  0.82580  1.0000 -0.0923194512
C   C113      1.0  0.35400  0.96002  0.85333  1.0000 -0.1493831916
C   C114      1.0  0.27530  0.88566  0.79471  1.0000 0.600403861
C   C115      1.0  0.39540  0.07412  0.99840  1.0000 -0.0195134569
C   C116      1.0  0.41006  0.09777  0.96966  1.0000 0.0698493932
C   C117      1.0  0.35360  0.10264  0.94647  1.0000 -0.141933641
C   C118      1.0  0.48300  0.11444  0.96433  1.0000 -0.1493831916
C   C119      1.0  0.37170  0.12125  0.91816  1.0000 -0.1493831916
C   C120      1.0  0.50155  0.13224  0.93589  1.0000 -0.1493831916
C   C121      1.0  0.44660  0.13525  0.91190  1.0000 0.0627709376
C   C122      1.0  0.46680  0.15285  0.88095  1.0000 0.0698493932
C   C123      1.0  0.41340  0.15520  0.85728  1.0000 -0.1568336432
C   C124      1.0  0.43250  0.17080  0.82808  1.0000 -0.0987217178
C   C125      1.0  0.50557  0.18385  0.82164  1.0000 -0.0195134569
C   C126      1.0  0.55770  0.18310  0.84511  1.0000 -0.0923194512
C   C127      1.0  0.53780  0.16859  0.87459  1.0000 -0.1568336432
C   C128      1.0  0.52622  0.19845  0.78960  1.0000 0.5702858674
C   C129      1.0  0.41688  0.09331  0.02881  1.0000 0.0698493932
C   C130      1.0  0.46760  0.07579  0.05012  1.0000 -0.141933641
C   C131      1.0  0.48480  0.09349  0.07851  1.0000 -0.141933641
C   C132      1.0  0.45300  0.12974  0.08700  1.0000 0.0698493932
C   C133      1.0  0.40450  0.14796  0.06500  1.0000 -0.1493831916
C   C134      1.0  0.38830  0.13041  0.03632  1.0000 -0.141933641
C   C135      1.0  0.46858  0.14808  0.11804  1.0000 0.0765710109
C   C136      1.0  0.52980  0.13580  0.13711  1.0000 -0.1493831916
C   C137      1.0  0.54160  0.15232  0.16667  1.0000 -0.0987217178
C   C138      1.0  0.49304  0.18126  0.17808  1.0000 -0.0195134569
C   C139      1.0  0.43380  0.19475  0.15878  1.0000 -0.1062694044
C   C140      1.0  0.42180  0.17825  0.12923  1.0000 -0.1493831916
C   C141      1.0  0.50350  0.19771  0.21056  1.0000 0.5777541258
C   C142      1.0  0.38890  0.26593  0.30869  1.0000 0.5777541258
C   C143      1.0  0.30840  0.30128  0.34909  1.0000 -0.0847389019
C   C144      1.0  0.33620  0.26646  0.33648  1.0000 -0.0322845915
C   C145      1.0  0.31380  0.23095  0.35030  1.0000 -0.0987217178
C   C146      1.0  0.26480  0.23057  0.37624  1.0000 -0.1493831916
C   C147      1.0  0.23590  0.26571  0.38912  1.0000 0.0698493932
C   C148      1.0  0.25880  0.30091  0.37513  1.0000 -0.1493831916
C   C149      1.0  0.18330  0.26422  0.41662  1.0000 0.0627709376
C   C150      1.0  0.13220  0.23272  0.42050  1.0000 -0.141933641
C   C151      1.0  0.08480  0.22903  0.44676  1.0000 -0.1334114514
C   C152      1.0  0.08450  0.25773  0.46986  1.0000 0.0698493932
C   C153      1.0  0.13372  0.28982  0.46569  1.0000 -0.1493831916
C   C154      1.0  0.18208  0.29313  0.43985  1.0000 -0.1493831916
C   C155      1.0  0.08571  0.25849  0.52920  1.0000 0.0698493932
C   C156      1.0  0.15660  0.23878  0.53046  1.0000 -0.1493831916
C   C157      1.0  0.20317  0.23957  0.55702  1.0000 -0.1493831916
C   C158      1.0  0.18030  0.26070  0.58374  1.0000 0.0627709376
C   C159      1.0  0.11100  0.28205  0.58202  1.0000 -0.141933641
C   C160      1.0  0.06460  0.28109  0.55531  1.0000 -0.141933641
C   C161      1.0  0.22830  0.25981  0.61261  1.0000 0.0698493932
C   C162      1.0  0.27210  0.22632  0.61971  1.0000 -0.1568336432
C   C163      1.0  0.31900  0.22487  0.64649  1.0000 -0.0923194512
C   C164      1.0  0.32380  0.25722  0.66656  1.0000 -0.0416436355
C   C165      1.0  0.27930  0.29011  0.65980  1.0000 -0.0987217178
C   C166      1.0  0.23180  0.29144  0.63338  1.0000 -0.141933641
C   C167      1.0  0.37892  0.25610  0.69346  1.0000 0.5702858674
C   C168      1.0  0.03880  0.25417  0.49961  1.0000 -0.0123346768
C   C169      1.0  0.72890  0.30531  0.22471  1.0000 -0.3328457417
C   C170      1.0  0.78610  0.27717  0.27360  1.0000 -0.3328457417
C   C171      1.0  0.71540  0.23601  0.23705  1.0000 0.2923615024
C   C172      1.0  0.75880  0.11585  0.30346  1.0000 0.6106160739
C   C173      1.0  0.77470  0.09240  0.33294  1.0000 -0.0322845915
C   C174      1.0  0.84870  0.08770  0.34439  1.0000 -0.0987217178
C   C175      1.0  0.86280  0.06714  0.37184  1.0000 -0.1568336432
C   C176      1.0  0.80270  0.05009  0.38846  1.0000 0.0698493932
C   C177      1.0  0.72900  0.05420  0.37672  1.0000 -0.1493831916
C   C178      1.0  0.71570  0.07632  0.34939  1.0000 -0.0923194512
C   C179      1.0  0.81750  0.02795  0.41800  1.0000 0.0698493932
C   C180      1.0  0.86930  0.04224  0.44033  1.0000 -0.1493831916
C   C181      1.0  0.88290  0.02156  0.46805  1.0000 -0.1493831916
C   C182      1.0  0.84680  0.98565  0.47382  1.0000 0.0698493932
C   C183      1.0  0.79420  0.97157  0.45188  1.0000 -0.141933641
C   C184      1.0  0.77880  0.99284  0.42442  1.0000 -0.141933641
C   C185      1.0  0.86651  0.96298  0.50291  1.0000 -0.0195134569
C   C186      1.0  0.78340  0.00441  0.53815  1.0000 -0.1493831916
C   C187      1.0  0.76960  0.02438  0.56607  1.0000 -0.141933641
C   C188      1.0  0.85310  0.98444  0.53305  1.0000 0.0698493932
C   C189      1.0  0.90920  0.98593  0.55660  1.0000 -0.141933641
C   C190      1.0  0.89570  0.00625  0.58434  1.0000 -0.1493831916
C   C191      1.0  0.82560  0.02591  0.58986  1.0000 0.0627709376
C   C192      1.0  0.81100  0.04799  0.61956  1.0000 0.0698493932
C   C193      1.0  0.75580  0.07764  0.62136  1.0000 -0.1493831916
C   C194      1.0  0.74260  0.09826  0.64888  1.0000 -0.0987217178
C   C195      1.0  0.78590  0.09022  0.67576  1.0000 -0.0416436355
C   C196      1.0  0.84230  0.06133  0.67420  1.0000 -0.0923194512
C   C197      1.0  0.85400  0.03998  0.64667  1.0000 -0.1493831916
C   C198      1.0  0.77530  0.11434  0.70529  1.0000 0.600403861
C   C199      1.0  0.89540  0.92588  0.50160  1.0000 -0.0195134569
C   C200      1.0  0.91006  0.90223  0.53034  1.0000 0.0698493932
C   C201      1.0  0.85360  0.89736  0.55353  1.0000 -0.141933641
C   C202      1.0  0.98300  0.88556  0.53567  1.0000 -0.1493831916
C   C203      1.0  0.87170  0.87875  0.58184  1.0000 -0.1493831916
C   C204      1.0  0.00155  0.86776  0.56411  1.0000 -0.1493831916
C   C205      1.0  0.94660  0.86475  0.58810  1.0000 0.0627709376
C   C206      1.0  0.96680  0.84715  0.61905  1.0000 0.0698493932
C   C207      1.0  0.91340  0.84480  0.64272  1.0000 -0.1568336432
C   C208      1.0  0.93250  0.82920  0.67192  1.0000 -0.0987217178
C   C209      1.0  0.00557  0.81615  0.67836  1.0000 -0.0195134569
C   C210      1.0  0.05770  0.81690  0.65489  1.0000 -0.0923194512
C   C211      1.0  0.03780  0.83141  0.62541  1.0000 -0.1568336432
C   C212      1.0  0.02622  0.80155  0.71040  1.0000 0.5777541258
C   C213      1.0  0.91688  0.90669  0.47119  1.0000 0.0698493932
C   C214      1.0  0.96760  0.92421  0.44988  1.0000 -0.141933641
C   C215      1.0  0.98480  0.90651  0.42149  1.0000 -0.141933641
C   C216      1.0  0.95300  0.87026  0.41300  1.0000 0.0698493932
C   C217      1.0  0.90450  0.85204  0.43500  1.0000 -0.1493831916
C   C218      1.0  0.88830  0.86959  0.46368  1.0000 -0.141933641
C   C219      1.0  0.96858  0.85192  0.38196  1.0000 0.0765710109
C   C220      1.0  0.02980  0.86420  0.36289  1.0000 -0.1493831916
C   C221      1.0  0.04160  0.84768  0.33333  1.0000 -0.0987217178
C   C222      1.0  0.99304  0.81874  0.32192  1.0000 -0.0195134569
C   C223      1.0  0.93380  0.80525  0.34122  1.0000 -0.1062694044
C   C224      1.0  0.92180  0.82175  0.37077  1.0000 -0.1493831916
C   C225      1.0  0.00350  0.80229  0.28944  1.0000 0.5777541258
C   C226      1.0  0.88890  0.73407  0.19131  1.0000 0.5777541258
C   C227      1.0  0.80840  0.69872  0.15091  1.0000 -0.0847389019
C   C228      1.0  0.83620  0.73354  0.16352  1.0000 -0.0322845915
C   C229      1.0  0.81380  0.76905  0.14970  1.0000 -0.0987217178
C   C230      1.0  0.76480  0.76943  0.12376  1.0000 -0.1493831916
C   C231      1.0  0.73590  0.73429  0.11088  1.0000 0.0698493932
C   C232      1.0  0.75880  0.69909  0.12487  1.0000 -0.1493831916
C   C233      1.0  0.68330  0.73578  0.08338  1.0000 0.0627709376
C   C234      1.0  0.63220  0.76728  0.07950  1.0000 -0.141933641
C   C235      1.0  0.58480  0.77097  0.05324  1.0000 -0.1334114514
C   C236      1.0  0.58450  0.74227  0.03014  1.0000 0.0698493932
C   C237      1.0  0.63372  0.71018  0.03431  1.0000 -0.1493831916
C   C238      1.0  0.68208  0.70687  0.06015  1.0000 -0.1493831916
C   C239      1.0  0.58571  0.74151  0.97080  1.0000 0.0698493932
C   C240      1.0  0.65660  0.76122  0.96954  1.0000 -0.1493831916
C   C241      1.0  0.70317  0.76043  0.94298  1.0000 -0.1493831916
C   C242      1.0  0.68030  0.73930  0.91626  1.0000 0.0627709376
C   C243      1.0  0.61100  0.71795  0.91798  1.0000 -0.141933641
C   C244      1.0  0.56460  0.71891  0.94469  1.0000 -0.141933641
C   C245      1.0  0.72830  0.74019  0.88739  1.0000 0.0698493932
C   C246      1.0  0.77210  0.77368  0.88029  1.0000 -0.1568336432
C   C247      1.0  0.81900  0.77513  0.85351  1.0000 -0.0923194512
C   C248      1.0  0.82380  0.74278  0.83344  1.0000 -0.0416436355
C   C249      1.0  0.77930  0.70989  0.84020  1.0000 -0.0987217178
C   C250      1.0  0.73180  0.70856  0.86662  1.0000 -0.141933641
C   C251      1.0  0.87892  0.74390  0.80654  1.0000 0.5702858674
C   C252      1.0  0.53880  0.74583  0.00039  1.0000 -0.0123346768
C   C253      1.0  0.77110  0.80531  0.27529  1.0000 -0.3328457417
C   C254      1.0  0.71390  0.77717  0.22640  1.0000 -0.3328457417
C   C255      1.0  0.78460  0.73601  0.26295  1.0000 0.2923615024
C   C256      1.0  0.74120  0.61585  0.19654  1.0000 0.6106160739
C   C257      1.0  0.72530  0.59240  0.16706  1.0000 -0.0322845915
C   C258      1.0  0.65130  0.58770  0.15561  1.0000 -0.0987217178
C   C259      1.0  0.63720  0.56714  0.12816  1.0000 -0.1568336432
C   C260      1.0  0.69730  0.55009  0.11154  1.0000 0.0698493932
C   C261      1.0  0.77100  0.55420  0.12328  1.0000 -0.1493831916
C   C262      1.0  0.78430  0.57632  0.15061  1.0000 -0.0923194512
C   C263      1.0  0.68250  0.52795  0.08200  1.0000 0.0698493932
C   C264      1.0  0.63070  0.54224  0.05967  1.0000 -0.1493831916
C   C265      1.0  0.61710  0.52156  0.03195  1.0000 -0.1493831916
C   C266      1.0  0.65320  0.48565  0.02618  1.0000 0.0698493932
C   C267      1.0  0.70580  0.47157  0.04812  1.0000 -0.141933641
C   C268      1.0  0.72120  0.49284  0.07558  1.0000 -0.141933641
C   C269      1.0  0.63349  0.46298  0.99709  1.0000 -0.0195134569
C   C270      1.0  0.71660  0.50441  0.96185  1.0000 -0.1493831916
C   C271      1.0  0.73040  0.52438  0.93393  1.0000 -0.1493831916
C   C272      1.0  0.64690  0.48444  0.96695  1.0000 0.0698493932
C   C273      1.0  0.59080  0.48593  0.94340  1.0000 -0.141933641
C   C274      1.0  0.60430  0.50625  0.91566  1.0000 -0.1493831916
C   C275      1.0  0.67440  0.52591  0.91014  1.0000 0.0627709376
C   C276      1.0  0.68900  0.54799  0.88044  1.0000 0.0627709376
C   C277      1.0  0.74420  0.57764  0.87864  1.0000 -0.1493831916
C   C278      1.0  0.75740  0.59826  0.85112  1.0000 -0.0987217178
C   C279      1.0  0.71410  0.59022  0.82424  1.0000 -0.0416436355
C   C280      1.0  0.65770  0.56133  0.82580  1.0000 -0.0923194512
C   C281      1.0  0.64600  0.53998  0.85333  1.0000 -0.1493831916
C   C282      1.0  0.72470  0.61434  0.79471  1.0000 0.600403861
C   C283      1.0  0.60460  0.42588  0.99840  1.0000 -0.0195134569
C   C284      1.0  0.58994  0.40223  0.96966  1.0000 0.0698493932
C   C285      1.0  0.64640  0.39736  0.94647  1.0000 -0.141933641
C   C286      1.0  0.51700  0.38556  0.96433  1.0000 -0.1493831916
C   C287      1.0  0.62830  0.37875  0.91816  1.0000 -0.1493831916
C   C288      1.0  0.49845  0.36776  0.93589  1.0000 -0.1493831916
C   C289      1.0  0.55340  0.36475  0.91190  1.0000 0.0627709376
C   C290      1.0  0.53320  0.34715  0.88095  1.0000 0.0698493932
C   C291      1.0  0.58660  0.34480  0.85728  1.0000 -0.1568336432
C   C292      1.0  0.56750  0.32920  0.82808  1.0000 -0.0987217178
C   C293      1.0  0.49443  0.31615  0.82164  1.0000 -0.0195134569
C   C294      1.0  0.44230  0.31690  0.84511  1.0000 -0.0923194512
C   C295      1.0  0.46220  0.33141  0.87459  1.0000 -0.1568336432
C   C296      1.0  0.47378  0.30155  0.78960  1.0000 0.5702858674
C   C297      1.0  0.58312  0.40669  0.02881  1.0000 0.0698493932
C   C298      1.0  0.53240  0.42421  0.05012  1.0000 -0.141933641
C   C299      1.0  0.51520  0.40651  0.07851  1.0000 -0.141933641
C   C300      1.0  0.54700  0.37026  0.08700  1.0000 0.0698493932
C   C301      1.0  0.59550  0.35204  0.06500  1.0000 -0.1493831916
C   C302      1.0  0.61170  0.36959  0.03632  1.0000 -0.141933641
C   C303      1.0  0.53142  0.35192  0.11804  1.0000 0.0765710109
C   C304      1.0  0.47020  0.36420  0.13711  1.0000 -0.1493831916
C   C305      1.0  0.45840  0.34768  0.16667  1.0000 -0.0987217178
C   C306      1.0  0.50696  0.31874  0.17808  1.0000 -0.0195134569
C   C307      1.0  0.56620  0.30525  0.15878  1.0000 -0.1062694044
C   C308      1.0  0.57820  0.32175  0.12923  1.0000 -0.1493831916
C   C309      1.0  0.49650  0.30229  0.21056  1.0000 0.5777541258
C   C310      1.0  0.61110  0.23407  0.30869  1.0000 0.5777541258
C   C311      1.0  0.69160  0.19872  0.34909  1.0000 -0.0847389019
C   C312      1.0  0.66380  0.23354  0.33648  1.0000 -0.0322845915
C   C313      1.0  0.68620  0.26905  0.35030  1.0000 -0.0987217178
C   C314      1.0  0.73520  0.26943  0.37624  1.0000 -0.1493831916
C   C315      1.0  0.76410  0.23429  0.38912  1.0000 0.0698493932
C   C316      1.0  0.74120  0.19909  0.37513  1.0000 -0.1493831916
C   C317      1.0  0.81670  0.23578  0.41662  1.0000 0.0627709376
C   C318      1.0  0.86780  0.26728  0.42050  1.0000 -0.141933641
C   C319      1.0  0.91520  0.27097  0.44676  1.0000 -0.1334114514
C   C320      1.0  0.91550  0.24227  0.46986  1.0000 0.0698493932
C   C321      1.0  0.86628  0.21018  0.46569  1.0000 -0.1493831916
C   C322      1.0  0.81792  0.20687  0.43985  1.0000 -0.1493831916
C   C323      1.0  0.91429  0.24151  0.52920  1.0000 0.0698493932
C   C324      1.0  0.84340  0.26122  0.53046  1.0000 -0.1493831916
C   C325      1.0  0.79683  0.26043  0.55702  1.0000 -0.1493831916
C   C326      1.0  0.81970  0.23930  0.58374  1.0000 0.0627709376
C   C327      1.0  0.88900  0.21795  0.58202  1.0000 -0.141933641
C   C328      1.0  0.93540  0.21891  0.55531  1.0000 -0.141933641
C   C329      1.0  0.77170  0.24019  0.61261  1.0000 0.0698493932
C   C330      1.0  0.72790  0.27368  0.61971  1.0000 -0.1568336432
C   C331      1.0  0.68100  0.27513  0.64649  1.0000 -0.0923194512
C   C332      1.0  0.67620  0.24278  0.66656  1.0000 -0.0416436355
C   C333      1.0  0.72070  0.20989  0.65980  1.0000 -0.0987217178
C   C334      1.0  0.76820  0.20856  0.63338  1.0000 -0.141933641
C   C335      1.0  0.62108  0.24390  0.69346  1.0000 0.5702858674
C   C336      1.0  0.96120  0.24583  0.49961  1.0000 -0.0123346768
C   C337      1.0  0.72890  0.80531  0.77529  1.0000 -0.3328457417
C   C338      1.0  0.78610  0.77717  0.72640  1.0000 -0.3328457417
C   C339      1.0  0.71540  0.73601  0.76295  1.0000 0.2923615024
C   C340      1.0  0.75880  0.61585  0.69654  1.0000 0.6106160739
C   C341      1.0  0.77470  0.59240  0.66706  1.0000 -0.0322845915
C   C342      1.0  0.84870  0.58770  0.65561  1.0000 -0.0987217178
C   C343      1.0  0.86280  0.56714  0.62816  1.0000 -0.1568336432
C   C344      1.0  0.80270  0.55009  0.61154  1.0000 0.0698493932
C   C345      1.0  0.72900  0.55420  0.62328  1.0000 -0.1493831916
C   C346      1.0  0.71570  0.57632  0.65061  1.0000 -0.0923194512
C   C347      1.0  0.81750  0.52795  0.58200  1.0000 0.0698493932
C   C348      1.0  0.86930  0.54224  0.55967  1.0000 -0.1493831916
C   C349      1.0  0.88290  0.52156  0.53195  1.0000 -0.1493831916
C   C350      1.0  0.84680  0.48565  0.52618  1.0000 0.0698493932
C   C351      1.0  0.79420  0.47157  0.54812  1.0000 -0.141933641
C   C352      1.0  0.77880  0.49284  0.57558  1.0000 -0.141933641
C   C353      1.0  0.86651  0.46298  0.49709  1.0000 -0.0195134569
C   C354      1.0  0.78340  0.50441  0.46185  1.0000 -0.1493831916
C   C355      1.0  0.76960  0.52438  0.43393  1.0000 -0.141933641
C   C356      1.0  0.85310  0.48444  0.46695  1.0000 0.0698493932
C   C357      1.0  0.90920  0.48593  0.44340  1.0000 -0.141933641
C   C358      1.0  0.89570  0.50625  0.41566  1.0000 -0.1493831916
C   C359      1.0  0.82560  0.52591  0.41014  1.0000 0.0627709376
C   C360      1.0  0.81100  0.54799  0.38044  1.0000 0.0627709376
C   C361      1.0  0.75580  0.57764  0.37864  1.0000 -0.1493831916
C   C362      1.0  0.74260  0.59826  0.35112  1.0000 -0.0987217178
C   C363      1.0  0.78590  0.59022  0.32424  1.0000 -0.0416436355
C   C364      1.0  0.84230  0.56133  0.32580  1.0000 -0.0923194512
C   C365      1.0  0.85400  0.53998  0.35333  1.0000 -0.1493831916
C   C366      1.0  0.77530  0.61434  0.29471  1.0000 0.600403861
C   C367      1.0  0.89540  0.42588  0.49840  1.0000 -0.0195134569
C   C368      1.0  0.91006  0.40223  0.46966  1.0000 0.0698493932
C   C369      1.0  0.85360  0.39736  0.44647  1.0000 -0.141933641
C   C370      1.0  0.98300  0.38556  0.46433  1.0000 -0.1493831916
C   C371      1.0  0.87170  0.37875  0.41816  1.0000 -0.1493831916
C   C372      1.0  0.00155  0.36776  0.43589  1.0000 -0.1493831916
C   C373      1.0  0.94660  0.36475  0.41190  1.0000 0.0627709376
C   C374      1.0  0.96680  0.34715  0.38095  1.0000 0.0698493932
C   C375      1.0  0.91340  0.34480  0.35728  1.0000 -0.1568336432
C   C376      1.0  0.93250  0.32920  0.32808  1.0000 -0.0987217178
C   C377      1.0  0.00557  0.31615  0.32164  1.0000 -0.0195134569
C   C378      1.0  0.05770  0.31690  0.34511  1.0000 -0.0923194512
C   C379      1.0  0.03780  0.33141  0.37459  1.0000 -0.1568336432
C   C380      1.0  0.02622  0.30155  0.28960  1.0000 0.5777541258
C   C381      1.0  0.91688  0.40669  0.52881  1.0000 0.0698493932
C   C382      1.0  0.96760  0.42421  0.55012  1.0000 -0.141933641
C   C383      1.0  0.98480  0.40651  0.57851  1.0000 -0.141933641
C   C384      1.0  0.95300  0.37026  0.58700  1.0000 0.0698493932
C   C385      1.0  0.90450  0.35204  0.56500  1.0000 -0.1493831916
C   C386      1.0  0.88830  0.36959  0.53632  1.0000 -0.141933641
C   C387      1.0  0.96858  0.35192  0.61804  1.0000 0.0765710109
C   C388      1.0  0.02980  0.36420  0.63711  1.0000 -0.1493831916
C   C389      1.0  0.04160  0.34768  0.66667  1.0000 -0.0987217178
C   C390      1.0  0.99304  0.31874  0.67808  1.0000 -0.0195134569
C   C391      1.0  0.93380  0.30525  0.65878  1.0000 -0.1062694044
C   C392      1.0  0.92180  0.32175  0.62923  1.0000 -0.1493831916
C   C393      1.0  0.00350  0.30229  0.71056  1.0000 0.5777541258
C   C394      1.0  0.88890  0.23407  0.80869  1.0000 0.5777541258
C   C395      1.0  0.80840  0.19872  0.84909  1.0000 -0.0847389019
C   C396      1.0  0.83620  0.23354  0.83648  1.0000 -0.0322845915
C   C397      1.0  0.81380  0.26905  0.85030  1.0000 -0.0987217178
C   C398      1.0  0.76480  0.26943  0.87624  1.0000 -0.1493831916
C   C399      1.0  0.73590  0.23429  0.88912  1.0000 0.0698493932
C   C400      1.0  0.75880  0.19909  0.87513  1.0000 -0.1493831916
C   C401      1.0  0.68330  0.23578  0.91662  1.0000 0.0627709376
C   C402      1.0  0.63220  0.26728  0.92050  1.0000 -0.141933641
C   C403      1.0  0.58480  0.27097  0.94676  1.0000 -0.1334114514
C   C404      1.0  0.58450  0.24227  0.96986  1.0000 0.0698493932
C   C405      1.0  0.63372  0.21018  0.96569  1.0000 -0.1493831916
C   C406      1.0  0.68208  0.20687  0.93985  1.0000 -0.1493831916
C   C407      1.0  0.58571  0.24151  0.02920  1.0000 0.0698493932
C   C408      1.0  0.65660  0.26122  0.03046  1.0000 -0.1493831916
C   C409      1.0  0.70317  0.26043  0.05702  1.0000 -0.1493831916
C   C410      1.0  0.68030  0.23930  0.08374  1.0000 0.0627709376
C   C411      1.0  0.61100  0.21795  0.08202  1.0000 -0.141933641
C   C412      1.0  0.56460  0.21891  0.05531  1.0000 -0.141933641
C   C413      1.0  0.72830  0.24019  0.11261  1.0000 0.0698493932
C   C414      1.0  0.77210  0.27368  0.11971  1.0000 -0.1568336432
C   C415      1.0  0.81900  0.27513  0.14649  1.0000 -0.0923194512
C   C416      1.0  0.82380  0.24278  0.16656  1.0000 -0.0416436355
C   C417      1.0  0.77930  0.20989  0.15980  1.0000 -0.0987217178
C   C418      1.0  0.73180  0.20856  0.13338  1.0000 -0.141933641
C   C419      1.0  0.87892  0.24390  0.19346  1.0000 0.5702858674
C   C420      1.0  0.53880  0.24583  0.99961  1.0000 -0.0123346768
C   C421      1.0  0.77110  0.30531  0.72471  1.0000 -0.3328457417
C   C422      1.0  0.71390  0.27717  0.77360  1.0000 -0.3328457417
C   C423      1.0  0.78460  0.23601  0.73705  1.0000 0.2923615024
C   C424      1.0  0.74120  0.11585  0.80346  1.0000 0.6106160739
C   C425      1.0  0.72530  0.09240  0.83294  1.0000 -0.0322845915
C   C426      1.0  0.65130  0.08770  0.84439  1.0000 -0.0987217178
C   C427      1.0  0.63720  0.06714  0.87184  1.0000 -0.1568336432
C   C428      1.0  0.69730  0.05009  0.88846  1.0000 0.0698493932
C   C429      1.0  0.77100  0.05420  0.87672  1.0000 -0.1493831916
C   C430      1.0  0.78430  0.07632  0.84939  1.0000 -0.0923194512
C   C431      1.0  0.68250  0.02795  0.91800  1.0000 0.0698493932
C   C432      1.0  0.63070  0.04224  0.94033  1.0000 -0.1493831916
C   C433      1.0  0.61710  0.02156  0.96805  1.0000 -0.1493831916
C   C434      1.0  0.65320  0.98565  0.97382  1.0000 0.0698493932
C   C435      1.0  0.70580  0.97157  0.95188  1.0000 -0.141933641
C   C436      1.0  0.72120  0.99284  0.92442  1.0000 -0.141933641
C   C437      1.0  0.63349  0.96298  0.00291  1.0000 -0.0195134569
C   C438      1.0  0.71660  0.00441  0.03815  1.0000 -0.1493831916
C   C439      1.0  0.73040  0.02438  0.06607  1.0000 -0.141933641
C   C440      1.0  0.64690  0.98444  0.03305  1.0000 0.0698493932
C   C441      1.0  0.59080  0.98593  0.05660  1.0000 -0.141933641
C   C442      1.0  0.60430  0.00625  0.08434  1.0000 -0.1493831916
C   C443      1.0  0.67440  0.02591  0.08986  1.0000 0.0627709376
C   C444      1.0  0.68900  0.04799  0.11956  1.0000 0.0698493932
C   C445      1.0  0.74420  0.07764  0.12136  1.0000 -0.1493831916
C   C446      1.0  0.75740  0.09826  0.14888  1.0000 -0.0987217178
C   C447      1.0  0.71410  0.09022  0.17576  1.0000 -0.0416436355
C   C448      1.0  0.65770  0.06133  0.17420  1.0000 -0.0923194512
C   C449      1.0  0.64600  0.03998  0.14667  1.0000 -0.1493831916
C   C450      1.0  0.72470  0.11434  0.20529  1.0000 0.600403861
C   C451      1.0  0.60460  0.92588  0.00160  1.0000 -0.0195134569
C   C452      1.0  0.58994  0.90223  0.03034  1.0000 0.0698493932
C   C453      1.0  0.64640  0.89736  0.05353  1.0000 -0.141933641
C   C454      1.0  0.51700  0.88556  0.03567  1.0000 -0.1493831916
C   C455      1.0  0.62830  0.87875  0.08184  1.0000 -0.1493831916
C   C456      1.0  0.49845  0.86776  0.06411  1.0000 -0.1493831916
C   C457      1.0  0.55340  0.86475  0.08810  1.0000 0.0627709376
C   C458      1.0  0.53320  0.84715  0.11905  1.0000 0.0698493932
C   C459      1.0  0.58660  0.84480  0.14272  1.0000 -0.1568336432
C   C460      1.0  0.56750  0.82920  0.17192  1.0000 -0.0987217178
C   C461      1.0  0.49443  0.81615  0.17836  1.0000 -0.0195134569
C   C462      1.0  0.44230  0.81690  0.15489  1.0000 -0.0923194512
C   C463      1.0  0.46220  0.83141  0.12541  1.0000 -0.1568336432
C   C464      1.0  0.47378  0.80155  0.21040  1.0000 0.5702858674
C   C465      1.0  0.58312  0.90669  0.97119  1.0000 0.0698493932
C   C466      1.0  0.53240  0.92421  0.94988  1.0000 -0.141933641
C   C467      1.0  0.51520  0.90651  0.92149  1.0000 -0.141933641
C   C468      1.0  0.54700  0.87026  0.91300  1.0000 0.0698493932
C   C469      1.0  0.59550  0.85204  0.93500  1.0000 -0.1493831916
C   C470      1.0  0.61170  0.86959  0.96368  1.0000 -0.141933641
C   C471      1.0  0.53142  0.85192  0.88196  1.0000 0.0765710109
C   C472      1.0  0.47020  0.86420  0.86289  1.0000 -0.1493831916
C   C473      1.0  0.45840  0.84768  0.83333  1.0000 -0.0987217178
C   C474      1.0  0.50696  0.81874  0.82192  1.0000 -0.0195134569
C   C475      1.0  0.56620  0.80525  0.84122  1.0000 -0.1062694044
C   C476      1.0  0.57820  0.82175  0.87077  1.0000 -0.1493831916
C   C477      1.0  0.49650  0.80229  0.78944  1.0000 0.5777541258
C   C478      1.0  0.61110  0.73407  0.69131  1.0000 0.5777541258
C   C479      1.0  0.69160  0.69872  0.65091  1.0000 -0.0847389019
C   C480      1.0  0.66380  0.73354  0.66352  1.0000 -0.0322845915
C   C481      1.0  0.68620  0.76905  0.64970  1.0000 -0.0987217178
C   C482      1.0  0.73520  0.76943  0.62376  1.0000 -0.1493831916
C   C483      1.0  0.76410  0.73429  0.61088  1.0000 0.0698493932
C   C484      1.0  0.74120  0.69909  0.62487  1.0000 -0.1493831916
C   C485      1.0  0.81670  0.73578  0.58338  1.0000 0.0627709376
C   C486      1.0  0.86780  0.76728  0.57950  1.0000 -0.141933641
C   C487      1.0  0.91520  0.77097  0.55324  1.0000 -0.1334114514
C   C488      1.0  0.91550  0.74227  0.53014  1.0000 0.0698493932
C   C489      1.0  0.86628  0.71018  0.53431  1.0000 -0.1493831916
C   C490      1.0  0.81792  0.70687  0.56015  1.0000 -0.1493831916
C   C491      1.0  0.91429  0.74151  0.47080  1.0000 0.0698493932
C   C492      1.0  0.84340  0.76122  0.46954  1.0000 -0.1493831916
C   C493      1.0  0.79683  0.76043  0.44298  1.0000 -0.1493831916
C   C494      1.0  0.81970  0.73930  0.41626  1.0000 0.0627709376
C   C495      1.0  0.88900  0.71795  0.41798  1.0000 -0.141933641
C   C496      1.0  0.93540  0.71891  0.44469  1.0000 -0.141933641
C   C497      1.0  0.77170  0.74019  0.38739  1.0000 0.0698493932
C   C498      1.0  0.72790  0.77368  0.38029  1.0000 -0.1568336432
C   C499      1.0  0.68100  0.77513  0.35351  1.0000 -0.0923194512
C   C500      1.0  0.67620  0.74278  0.33344  1.0000 -0.0416436355
C   C501      1.0  0.72070  0.70989  0.34020  1.0000 -0.0987217178
C   C502      1.0  0.76820  0.70856  0.36662  1.0000 -0.141933641
C   C503      1.0  0.62108  0.74390  0.30654  1.0000 0.5702858674
C   C504      1.0  0.96120  0.74583  0.50039  1.0000 -0.0123346768
C   C505      1.0  0.27110  0.69469  0.77529  1.0000 -0.335358455
C   C506      1.0  0.21390  0.72283  0.72640  1.0000 -0.3328457417
C   C507      1.0  0.28460  0.76399  0.76295  1.0000 0.2923615024
C   C508      1.0  0.24120  0.88415  0.69654  1.0000 0.6106160739
C   C509      1.0  0.22530  0.90760  0.66706  1.0000 -0.0322845915
C   C510      1.0  0.15130  0.91230  0.65561  1.0000 -0.0987217178
C   C511      1.0  0.13720  0.93286  0.62816  1.0000 -0.1568336432
C   C512      1.0  0.19730  0.94991  0.61154  1.0000 0.0698493932
C   C513      1.0  0.27100  0.94580  0.62328  1.0000 -0.1493831916
C   C514      1.0  0.28430  0.92368  0.65061  1.0000 -0.0923194512
C   C515      1.0  0.18250  0.97205  0.58200  1.0000 0.0698493932
C   C516      1.0  0.13070  0.95776  0.55967  1.0000 -0.1493831916
C   C517      1.0  0.11710  0.97844  0.53195  1.0000 -0.1493831916
C   C518      1.0  0.15320  0.01435  0.52618  1.0000 0.0698493932
C   C519      1.0  0.20580  0.02843  0.54812  1.0000 -0.141933641
C   C520      1.0  0.22120  0.00716  0.57558  1.0000 -0.141933641
C   C521      1.0  0.13349  0.03702  0.49709  1.0000 -0.0195134569
C   C522      1.0  0.21660  0.99559  0.46185  1.0000 -0.1493831916
C   C523      1.0  0.23040  0.97562  0.43393  1.0000 -0.1493831916
C   C524      1.0  0.14690  0.01556  0.46695  1.0000 0.0698493932
C   C525      1.0  0.09080  0.01407  0.44340  1.0000 -0.141933641
C   C526      1.0  0.10430  0.99375  0.41566  1.0000 -0.1493831916
C   C527      1.0  0.17440  0.97409  0.41014  1.0000 0.0627709376
C   C528      1.0  0.18900  0.95201  0.38044  1.0000 0.0698493932
C   C529      1.0  0.24420  0.92236  0.37864  1.0000 -0.1493831916
C   C530      1.0  0.25740  0.90174  0.35112  1.0000 -0.0987217178
C   C531      1.0  0.21410  0.90978  0.32424  1.0000 -0.0416436355
C   C532      1.0  0.15770  0.93867  0.32580  1.0000 -0.0923194512
C   C533      1.0  0.14600  0.96002  0.35333  1.0000 -0.1493831916
C   C534      1.0  0.22470  0.88566  0.29471  1.0000 0.600403861
C   C535      1.0  0.10460  0.07412  0.49840  1.0000 -0.0195134569
C   C536      1.0  0.08994  0.09777  0.46966  1.0000 0.0698493932
C   C537      1.0  0.14640  0.10264  0.44647  1.0000 -0.141933641
C   C538      1.0  0.01700  0.11444  0.46433  1.0000 -0.1493831916
C   C539      1.0  0.12830  0.12125  0.41816  1.0000 -0.1493831916
C   C540      1.0  0.99845  0.13224  0.43589  1.0000 -0.1493831916
C   C541      1.0  0.05340  0.13525  0.41190  1.0000 0.0627709376
C   C542      1.0  0.03320  0.15285  0.38095  1.0000 0.0698493932
C   C543      1.0  0.08660  0.15520  0.35728  1.0000 -0.1568336432
C   C544      1.0  0.06750  0.17080  0.32808  1.0000 -0.0987217178
C   C545      1.0  0.99443  0.18385  0.32164  1.0000 -0.0195134569
C   C546      1.0  0.94230  0.18310  0.34511  1.0000 -0.0923194512
C   C547      1.0  0.96220  0.16859  0.37459  1.0000 -0.1568336432
C   C548      1.0  0.97378  0.19845  0.28960  1.0000 0.5777541258
C   C549      1.0  0.08312  0.09331  0.52881  1.0000 0.0698493932
C   C550      1.0  0.03240  0.07579  0.55012  1.0000 -0.141933641
C   C551      1.0  0.01520  0.09349  0.57851  1.0000 -0.141933641
C   C552      1.0  0.04700  0.12974  0.58700  1.0000 0.0698493932
C   C553      1.0  0.09550  0.14796  0.56500  1.0000 -0.1493831916
C   C554      1.0  0.11170  0.13041  0.53632  1.0000 -0.141933641
C   C555      1.0  0.03142  0.14808  0.61804  1.0000 0.0765710109
C   C556      1.0  0.97020  0.13580  0.63711  1.0000 -0.1493831916
C   C557      1.0  0.95840  0.15232  0.66667  1.0000 -0.0987217178
C   C558      1.0  0.00696  0.18126  0.67808  1.0000 -0.0195134569
C   C559      1.0  0.06620  0.19475  0.65878  1.0000 -0.1062694044
C   C560      1.0  0.07820  0.17825  0.62923  1.0000 -0.1493831916
C   C561      1.0  0.99650  0.19771  0.71056  1.0000 0.5777541258
C   C562      1.0  0.11110  0.26593  0.80869  1.0000 0.5777541258
C   C563      1.0  0.19160  0.30128  0.84909  1.0000 -0.0847389019
C   C564      1.0  0.16380  0.26646  0.83648  1.0000 -0.0322845915
C   C565      1.0  0.18620  0.23095  0.85030  1.0000 -0.0987217178
C   C566      1.0  0.23520  0.23057  0.87624  1.0000 -0.1493831916
C   C567      1.0  0.26410  0.26571  0.88912  1.0000 0.0698493932
C   C568      1.0  0.24120  0.30091  0.87513  1.0000 -0.1493831916
C   C569      1.0  0.31670  0.26422  0.91662  1.0000 0.0627709376
C   C570      1.0  0.36780  0.23272  0.92050  1.0000 -0.141933641
C   C571      1.0  0.41520  0.22903  0.94676  1.0000 -0.1334114514
C   C572      1.0  0.41550  0.25773  0.96986  1.0000 0.0698493932
C   C573      1.0  0.36628  0.28982  0.96569  1.0000 -0.1493831916
C   C574      1.0  0.31792  0.29313  0.93985  1.0000 -0.1493831916
C   C575      1.0  0.41429  0.25849  0.02920  1.0000 0.0698493932
C   C576      1.0  0.34340  0.23878  0.03046  1.0000 -0.1493831916
C   C577      1.0  0.29683  0.23957  0.05702  1.0000 -0.1493831916
C   C578      1.0  0.31970  0.26070  0.08374  1.0000 0.0627709376
C   C579      1.0  0.38900  0.28205  0.08202  1.0000 -0.141933641
C   C580      1.0  0.43540  0.28109  0.05531  1.0000 -0.141933641
C   C581      1.0  0.27170  0.25981  0.11261  1.0000 0.0698493932
C   C582      1.0  0.22790  0.22632  0.11971  1.0000 -0.1568336432
C   C583      1.0  0.18100  0.22487  0.14649  1.0000 -0.0923194512
C   C584      1.0  0.17620  0.25722  0.16656  1.0000 -0.0416436355
C   C585      1.0  0.22070  0.29011  0.15980  1.0000 -0.0987217178
C   C586      1.0  0.26820  0.29144  0.13338  1.0000 -0.141933641
C   C587      1.0  0.12108  0.25610  0.19346  1.0000 0.5702858674
C   C588      1.0  0.46120  0.25417  0.99961  1.0000 -0.0123346768
C   C589      1.0  0.22890  0.19469  0.72471  1.0000 -0.335358455
C   C590      1.0  0.28610  0.22283  0.77360  1.0000 -0.3328457417
C   C591      1.0  0.21540  0.26399  0.73705  1.0000 0.2923615024
C   C592      1.0  0.25880  0.38415  0.80346  1.0000 0.6106160739
C   C593      1.0  0.27470  0.40760  0.83294  1.0000 -0.0322845915
C   C594      1.0  0.34870  0.41230  0.84439  1.0000 -0.0987217178
C   C595      1.0  0.36280  0.43286  0.87184  1.0000 -0.1568336432
C   C596      1.0  0.30270  0.44991  0.88846  1.0000 0.0698493932
C   C597      1.0  0.22900  0.44580  0.87672  1.0000 -0.1493831916
C   C598      1.0  0.21570  0.42368  0.84939  1.0000 -0.0923194512
C   C599      1.0  0.31750  0.47205  0.91800  1.0000 0.0698493932
C   C600      1.0  0.36930  0.45776  0.94033  1.0000 -0.1493831916
C   C601      1.0  0.38290  0.47844  0.96805  1.0000 -0.1493831916
C   C602      1.0  0.34680  0.51435  0.97382  1.0000 0.0698493932
C   C603      1.0  0.29420  0.52843  0.95188  1.0000 -0.141933641
C   C604      1.0  0.27880  0.50716  0.92442  1.0000 -0.141933641
C   C605      1.0  0.36651  0.53702  0.00291  1.0000 -0.0195134569
C   C606      1.0  0.28340  0.49559  0.03815  1.0000 -0.1493831916
C   C607      1.0  0.26960  0.47562  0.06607  1.0000 -0.141933641
C   C608      1.0  0.35310  0.51556  0.03305  1.0000 0.0698493932
C   C609      1.0  0.40920  0.51407  0.05660  1.0000 -0.141933641
C   C610      1.0  0.39570  0.49375  0.08434  1.0000 -0.1493831916
C   C611      1.0  0.32560  0.47409  0.08986  1.0000 0.0627709376
C   C612      1.0  0.31100  0.45201  0.11956  1.0000 0.0698493932
C   C613      1.0  0.25580  0.42236  0.12136  1.0000 -0.1493831916
C   C614      1.0  0.24260  0.40174  0.14888  1.0000 -0.0987217178
C   C615      1.0  0.28590  0.40978  0.17576  1.0000 -0.0416436355
C   C616      1.0  0.34230  0.43867  0.17420  1.0000 -0.0987217178
C   C617      1.0  0.35400  0.46002  0.14667  1.0000 -0.1493831916
C   C618      1.0  0.27530  0.38566  0.20529  1.0000 0.600403861
C   C619      1.0  0.39540  0.57412  0.00160  1.0000 -0.0195134569
C   C620      1.0  0.41006  0.59777  0.03034  1.0000 0.0698493932
C   C621      1.0  0.35360  0.60264  0.05353  1.0000 -0.141933641
C   C622      1.0  0.48300  0.61444  0.03567  1.0000 -0.1493831916
C   C623      1.0  0.37170  0.62125  0.08184  1.0000 -0.1493831916
C   C624      1.0  0.50155  0.63224  0.06411  1.0000 -0.1493831916
C   C625      1.0  0.44660  0.63525  0.08810  1.0000 0.0627709376
C   C626      1.0  0.46680  0.65285  0.11905  1.0000 0.0698493932
C   C627      1.0  0.41340  0.65520  0.14272  1.0000 -0.1568336432
C   C628      1.0  0.43250  0.67080  0.17192  1.0000 -0.0987217178
C   C629      1.0  0.50557  0.68385  0.17836  1.0000 -0.0195134569
C   C630      1.0  0.55770  0.68310  0.15489  1.0000 -0.0923194512
C   C631      1.0  0.53780  0.66859  0.12541  1.0000 -0.1568336432
C   C632      1.0  0.52622  0.69845  0.21040  1.0000 0.5777541258
C   C633      1.0  0.41688  0.59331  0.97119  1.0000 0.0698493932
C   C634      1.0  0.46760  0.57579  0.94988  1.0000 -0.141933641
C   C635      1.0  0.48480  0.59349  0.92149  1.0000 -0.141933641
C   C636      1.0  0.45300  0.62974  0.91300  1.0000 0.0698493932
C   C637      1.0  0.40450  0.64796  0.93500  1.0000 -0.1493831916
C   C638      1.0  0.38830  0.63041  0.96368  1.0000 -0.141933641
C   C639      1.0  0.46858  0.64808  0.88196  1.0000 0.0765710109
C   C640      1.0  0.52980  0.63580  0.86289  1.0000 -0.1493831916
C   C641      1.0  0.54160  0.65232  0.83333  1.0000 -0.0987217178
C   C642      1.0  0.49304  0.68126  0.82192  1.0000 -0.0195134569
C   C643      1.0  0.43380  0.69475  0.84122  1.0000 -0.1062694044
C   C644      1.0  0.42180  0.67825  0.87077  1.0000 -0.1493831916
C   C645      1.0  0.50350  0.69771  0.78944  1.0000 0.5777541258
C   C646      1.0  0.38890  0.76593  0.69131  1.0000 0.5777541258
C   C647      1.0  0.30840  0.80128  0.65091  1.0000 -0.0847389019
C   C648      1.0  0.33620  0.76646  0.66352  1.0000 -0.0322845915
C   C649      1.0  0.31380  0.73095  0.64970  1.0000 -0.0987217178
C   C650      1.0  0.26480  0.73057  0.62376  1.0000 -0.1493831916
C   C651      1.0  0.23590  0.76571  0.61088  1.0000 0.0698493932
C   C652      1.0  0.25880  0.80091  0.62487  1.0000 -0.1493831916
C   C653      1.0  0.18330  0.76422  0.58338  1.0000 0.0627709376
C   C654      1.0  0.13220  0.73272  0.57950  1.0000 -0.141933641
C   C655      1.0  0.08480  0.72903  0.55324  1.0000 -0.1334114514
C   C656      1.0  0.08450  0.75773  0.53014  1.0000 0.0698493932
C   C657      1.0  0.13372  0.78982  0.53431  1.0000 -0.1493831916
C   C658      1.0  0.18208  0.79313  0.56015  1.0000 -0.1493831916
C   C659      1.0  0.08571  0.75849  0.47080  1.0000 0.0698493932
C   C660      1.0  0.15660  0.73878  0.46954  1.0000 -0.1493831916
C   C661      1.0  0.20317  0.73957  0.44298  1.0000 -0.1493831916
C   C662      1.0  0.18030  0.76070  0.41626  1.0000 0.0627709376
C   C663      1.0  0.11100  0.78205  0.41798  1.0000 -0.141933641
C   C664      1.0  0.06460  0.78109  0.44469  1.0000 -0.141933641
C   C665      1.0  0.22830  0.75981  0.38739  1.0000 0.0698493932
C   C666      1.0  0.27210  0.72632  0.38029  1.0000 -0.1568336432
C   C667      1.0  0.31900  0.72487  0.35351  1.0000 -0.0923194512
C   C668      1.0  0.32380  0.75722  0.33344  1.0000 -0.0416436355
C   C669      1.0  0.27930  0.79011  0.34020  1.0000 -0.0987217178
C   C670      1.0  0.23180  0.79144  0.36662  1.0000 -0.141933641
C   C671      1.0  0.37892  0.75610  0.30654  1.0000 0.5702858674
C   C672      1.0  0.03880  0.75417  0.50039  1.0000 -0.0123346768
N   N1        1.0  0.25783  0.22926  0.24485  1.0000 0.04294343
N   N2        1.0  0.24217  0.72926  0.25515  1.0000 0.04294343
N   N3        1.0  0.74217  0.27074  0.24485  1.0000 0.04294343
N   N4        1.0  0.75783  0.77074  0.25515  1.0000 0.04294343
N   N5        1.0  0.74217  0.77074  0.75515  1.0000 0.04294343
N   N6        1.0  0.75783  0.27074  0.74485  1.0000 0.04294343
N   N7        1.0  0.25783  0.72926  0.75515  1.0000 0.04294343
N   N8        1.0  0.24217  0.22926  0.74485  1.0000 0.04294343
O   O1        1.0  0.27271  0.29517  0.25277  1.0000 -0.5527504525
O   O2        1.0  0.18474  0.37514  0.28644  1.0000 -0.5715472411
O   O3        1.0  0.31214  0.37569  0.29861  1.0000 -0.5715472411
O   O4        1.0  0.28701  0.36620  0.70733  1.0000 -0.5715472411
O   O5        1.0  0.17062  0.38679  0.72483  1.0000 -0.5715472411
O   O6        1.0  0.02955  0.70517  0.72919  1.0000 -0.541508346
O   O7        1.0  0.90257  0.70391  0.71693  1.0000 -0.5825388274
O   O8        1.0  0.93057  0.69408  0.27648  1.0000 -0.6119038306
O   O9        1.0  0.05308  0.71528  0.27733  1.0000 -0.5297148071
O   O10       1.0  0.08474  0.79793  0.20253  1.0000 -0.5938893772
O   O11       1.0  0.09223  0.73278  0.20291  1.0000 -0.5175707183
O   O12       1.0  0.08238  0.72499  0.80188  1.0000 -0.5132707424
O   O13       1.0  0.11162  0.78640  0.78935  1.0000 -0.5975878082
O   O14       1.0  0.22729  0.79517  0.24723  1.0000 -0.5527504525
O   O15       1.0  0.31526  0.87514  0.21356  1.0000 -0.5715472411
O   O16       1.0  0.18786  0.87569  0.20139  1.0000 -0.5715472411
O   O17       1.0  0.21299  0.86620  0.79267  1.0000 -0.5715472411
O   O18       1.0  0.32938  0.88679  0.77517  1.0000 -0.5715472411
O   O19       1.0  0.47045  0.20517  0.77081  1.0000 -0.541508346
O   O20       1.0  0.59743  0.20391  0.78307  1.0000 -0.5825388274
O   O21       1.0  0.56943  0.19408  0.22352  1.0000 -0.6119038306
O   O22       1.0  0.44692  0.21528  0.22267  1.0000 -0.5297148071
O   O23       1.0  0.41526  0.29793  0.29747  1.0000 -0.5938893772
O   O24       1.0  0.40777  0.23278  0.29709  1.0000 -0.5175707183
O   O25       1.0  0.41762  0.22499  0.69812  1.0000 -0.5132707424
O   O26       1.0  0.38838  0.28640  0.71065  1.0000 -0.5975878082
O   O27       1.0  0.72729  0.20483  0.25277  1.0000 -0.5527504525
O   O28       1.0  0.81526  0.12486  0.28644  1.0000 -0.5715472411
O   O29       1.0  0.68786  0.12431  0.29861  1.0000 -0.5715472411
O   O30       1.0  0.71299  0.13380  0.70733  1.0000 -0.5715472411
O   O31       1.0  0.82938  0.11321  0.72483  1.0000 -0.5715472411
O   O32       1.0  0.97045  0.79483  0.72919  1.0000 -0.541508346
O   O33       1.0  0.09743  0.79609  0.71693  1.0000 -0.5825388274
O   O34       1.0  0.06943  0.80592  0.27648  1.0000 -0.6119038306
O   O35       1.0  0.94692  0.78472  0.27733  1.0000 -0.5297148071
O   O36       1.0  0.91526  0.70207  0.20253  1.0000 -0.5938893772
O   O37       1.0  0.90777  0.76722  0.20291  1.0000 -0.5175707183
O   O38       1.0  0.91762  0.77501  0.80188  1.0000 -0.5132707424
O   O39       1.0  0.88838  0.71360  0.78935  1.0000 -0.5975878082
O   O40       1.0  0.77271  0.70483  0.24723  1.0000 -0.5527504525
O   O41       1.0  0.68474  0.62486  0.21356  1.0000 -0.5715472411
O   O42       1.0  0.81214  0.62431  0.20139  1.0000 -0.5715472411
O   O43       1.0  0.78701  0.63380  0.79267  1.0000 -0.5715472411
O   O44       1.0  0.67062  0.61321  0.77517  1.0000 -0.5715472411
O   O45       1.0  0.52955  0.29483  0.77081  1.0000 -0.541508346
O   O46       1.0  0.40257  0.29609  0.78307  1.0000 -0.5825388274
O   O47       1.0  0.43057  0.30592  0.22352  1.0000 -0.6119038306
O   O48       1.0  0.55308  0.28472  0.22267  1.0000 -0.5297148071
O   O49       1.0  0.58474  0.20207  0.29747  1.0000 -0.5938893772
O   O50       1.0  0.59223  0.26722  0.29709  1.0000 -0.5175707183
O   O51       1.0  0.58238  0.27501  0.69812  1.0000 -0.5132707424
O   O52       1.0  0.61162  0.21360  0.71065  1.0000 -0.5975878082
O   O53       1.0  0.72729  0.70483  0.74723  1.0000 -0.5527504525
O   O54       1.0  0.81526  0.62486  0.71356  1.0000 -0.5715472411
O   O55       1.0  0.68786  0.62431  0.70139  1.0000 -0.5715472411
O   O56       1.0  0.71299  0.63380  0.29267  1.0000 -0.5715472411
O   O57       1.0  0.82938  0.61321  0.27517  1.0000 -0.5715472411
O   O58       1.0  0.97045  0.29483  0.27081  1.0000 -0.541508346
O   O59       1.0  0.09743  0.29609  0.28307  1.0000 -0.5825388274
O   O60       1.0  0.06943  0.30592  0.72352  1.0000 -0.6119038306
O   O61       1.0  0.94692  0.28472  0.72267  1.0000 -0.5297148071
O   O62       1.0  0.91526  0.20207  0.79747  1.0000 -0.5938893772
O   O63       1.0  0.90777  0.26722  0.79709  1.0000 -0.5175707183
O   O64       1.0  0.91762  0.27501  0.19812  1.0000 -0.5132707424
O   O65       1.0  0.88838  0.21360  0.21065  1.0000 -0.5975878082
O   O66       1.0  0.77271  0.20483  0.75277  1.0000 -0.5527504525
O   O67       1.0  0.68474  0.12486  0.78644  1.0000 -0.5715472411
O   O68       1.0  0.81214  0.12431  0.79861  1.0000 -0.5715472411
O   O69       1.0  0.78701  0.13380  0.20733  1.0000 -0.5715472411
O   O70       1.0  0.67062  0.11321  0.22483  1.0000 -0.5715472411
O   O71       1.0  0.52955  0.79483  0.22919  1.0000 -0.541508346
O   O72       1.0  0.40257  0.79609  0.21693  1.0000 -0.5825388274
O   O73       1.0  0.43057  0.80592  0.77648  1.0000 -0.6119038306
O   O74       1.0  0.55308  0.78472  0.77733  1.0000 -0.5297148071
O   O75       1.0  0.58474  0.70207  0.70253  1.0000 -0.5938893772
O   O76       1.0  0.59223  0.76722  0.70291  1.0000 -0.5175707183
O   O77       1.0  0.58238  0.77501  0.30188  1.0000 -0.5132707424
O   O78       1.0  0.61162  0.71360  0.28935  1.0000 -0.5975878082
O   O79       1.0  0.27271  0.79517  0.74723  1.0000 -0.5527504525
O   O80       1.0  0.18474  0.87514  0.71356  1.0000 -0.5715472411
O   O81       1.0  0.31214  0.87569  0.70139  1.0000 -0.5715472411
O   O82       1.0  0.28701  0.86620  0.29267  1.0000 -0.5715472411
O   O83       1.0  0.17062  0.88679  0.27517  1.0000 -0.5715472411
O   O84       1.0  0.02955  0.20517  0.27081  1.0000 -0.541508346
O   O85       1.0  0.90257  0.20391  0.28307  1.0000 -0.5825388274
O   O86       1.0  0.93057  0.19408  0.72352  1.0000 -0.6119038306
O   O87       1.0  0.05308  0.21528  0.72267  1.0000 -0.5297148071
O   O88       1.0  0.08474  0.29793  0.79747  1.0000 -0.5938893772
O   O89       1.0  0.09223  0.23278  0.79709  1.0000 -0.5175707183
O   O90       1.0  0.08238  0.22499  0.19812  1.0000 -0.5132707424
O   O91       1.0  0.11162  0.28640  0.21065  1.0000 -0.5975878082
O   O92       1.0  0.22729  0.29517  0.75277  1.0000 -0.5527504525
O   O93       1.0  0.31526  0.37514  0.78644  1.0000 -0.5715472411
O   O94       1.0  0.18786  0.37569  0.79861  1.0000 -0.5715472411
O   O95       1.0  0.21299  0.36620  0.20733  1.0000 -0.5715472411
O   O96       1.0  0.32938  0.38679  0.22483  1.0000 -0.5715472411
O   O97       1.0  0.47045  0.70517  0.22919  1.0000 -0.541508346
O   O98       1.0  0.59743  0.70391  0.21693  1.0000 -0.5825388274
O   O99       1.0  0.56943  0.69408  0.77648  1.0000 -0.6119038306
O   O100      1.0  0.44692  0.71528  0.77733  1.0000 -0.5297148071
O   O101      1.0  0.41526  0.79793  0.70253  1.0000 -0.5938893772
O   O102      1.0  0.40777  0.73278  0.70291  1.0000 -0.5175707183
O   O103      1.0  0.41762  0.72499  0.30188  1.0000 -0.5132707424
O   O104      1.0  0.38838  0.78640  0.28935  1.0000 -0.5975878082
