# DDEC6 charges by PACMAN v1.1 (https://github.com/mtap-research/PACMAN-charge/)
data_2018[Gd][flu]3[ASR]2
_chemical_formula_sum              "Gd8 H26 C58 N4 O36"
_cell_length_a       13.8915
_cell_length_b       13.8915
_cell_length_c       21.999
_cell_angle_alpha    71.1068
_cell_angle_beta     108.893
_cell_angle_gamma    136.543

_symmetry_space_group_name_H-M    "P 1"
_symmetry_Int_Tables_number       1

loop_
  _symmetry_equiv_pos_as_xyz
  'x, y, z'

loop_
  _atom_site_type_symbol
  _atom_site_label
  _atom_site_symmetry_multiplicity
  _atom_site_fract_x
  _atom_site_fract_y
  _atom_site_fract_z
  _atom_site_occupancy
  _atom_site_charge
Gd  Gd1       1.0  0.60746  0.54416  0.18219  1.0000 1.993449099
Gd  Gd2       1.0  0.90643  0.75769  0.31684  1.0000 2.1309128475
Gd  Gd3       1.0  0.54416  0.60746  0.31781  1.0000 1.993449099
Gd  Gd4       1.0  0.75769  0.90643  0.18316  1.0000 2.1309128475
Gd  Gd5       1.0  0.39254  0.45584  0.81781  1.0000 1.993449099
Gd  Gd6       1.0  0.09357  0.24231  0.68316  1.0000 2.1309128475
Gd  Gd7       1.0  0.45584  0.39254  0.68219  1.0000 1.993449099
Gd  Gd8       1.0  0.24231  0.09357  0.81684  1.0000 2.1309128475
H   H1        1.0  0.47406  0.99502  0.14455  1.0000 0.1108863326
H   H2        1.0  0.42483  0.19987  0.19663  1.0000 0.0994094392
H   H3        1.0  0.53080  0.45078  0.03078  1.0000 0.0994094392
H   H4        1.0  0.32976  0.04740  0.03798  1.0000 0.1187874224
H   H5        1.0  0.13528  0.72720  0.28313  1.0000 0.1187874224
H   H6        1.0  0.26249  0.67297  0.28823  1.0000 0.1108863326
H   H7        1.0  0.99502  0.47406  0.35545  1.0000 0.1108863326
H   H8        1.0  0.19987  0.42483  0.30337  1.0000 0.0994094392
H   H9        1.0  0.45078  0.53080  0.46922  1.0000 0.0994094392
H   H10       1.0  0.04740  0.32976  0.46202  1.0000 0.1187874224
H   H11       1.0  0.72720  0.13528  0.21687  1.0000 0.1187874224
H   H12       1.0  0.67297  0.26249  0.21177  1.0000 0.1108863326
H   H13       1.0  0.52594  0.00498  0.85545  1.0000 0.1108863326
H   H14       1.0  0.57517  0.80013  0.80337  1.0000 0.0994094392
H   H15       1.0  0.46920  0.54922  0.96922  1.0000 0.0994094392
H   H16       1.0  0.67024  0.95260  0.96202  1.0000 0.1187874224
H   H17       1.0  0.86472  0.27280  0.71687  1.0000 0.1187874224
H   H18       1.0  0.73751  0.32703  0.71177  1.0000 0.1108863326
H   H19       1.0  0.00498  0.52594  0.64455  1.0000 0.1108863326
H   H20       1.0  0.80013  0.57517  0.69663  1.0000 0.0994094392
H   H21       1.0  0.54922  0.46920  0.53078  1.0000 0.0994094392
H   H22       1.0  0.95260  0.67024  0.53798  1.0000 0.1187874224
H   H23       1.0  0.27280  0.86472  0.78313  1.0000 0.1187874224
H   H24       1.0  0.32703  0.73751  0.78823  1.0000 0.1108863326
H   H25       1.0  0.21601  0.21601  0.25000  1.0000 0.1108863326
H   H26       1.0  0.78399  0.78399  0.75000  1.0000 0.0994094392
C   C1        1.0  0.40550  0.94090  0.17290  1.0000 -0.15582151
C   C2        1.0  0.42370  0.25170  0.02280  1.0000 -0.0589281138
C   C3        1.0  0.32760  0.97260  0.16850  1.0000 0.0387119536
C   C4        1.0  0.41270  0.27550  0.94960  1.0000 0.622968204
C   C5        1.0  0.13730  0.91830  0.20920  1.0000 0.5981874686
C   C6        1.0  0.42780  0.21460  0.15170  1.0000 0.0511071651
C   C7        1.0  0.48610  0.35990  0.05490  1.0000 0.0714357846
C   C8        1.0  0.37120  0.10260  0.12460  1.0000 0.0243162267
C   C9        1.0  0.47660  0.80660  0.22620  1.0000 0.622968204
C   C10       1.0  0.38360  0.83120  0.21810  1.0000 -0.0146389527
C   C11       1.0  0.36870  0.12190  0.05860  1.0000 -0.0962177593
C   C12       1.0  0.20390  0.78130  0.25480  1.0000 -0.1117383506
C   C13       1.0  0.28040  0.75000  0.25830  1.0000 -0.1117383506
C   C14       1.0  0.22740  0.89200  0.20990  1.0000 -0.0539847914
C   C15       1.0  0.94090  0.40550  0.32710  1.0000 -0.15582151
C   C16       1.0  0.25170  0.42370  0.47720  1.0000 -0.0589281138
C   C17       1.0  0.97260  0.32760  0.33150  1.0000 0.0387119536
C   C18       1.0  0.27550  0.41270  0.55040  1.0000 0.622968204
C   C19       1.0  0.91830  0.13730  0.29080  1.0000 0.5981874686
C   C20       1.0  0.21460  0.42780  0.34830  1.0000 0.0511071651
C   C21       1.0  0.35990  0.48610  0.44510  1.0000 0.0714357846
C   C22       1.0  0.10260  0.37120  0.37540  1.0000 0.0243162267
C   C23       1.0  0.80660  0.47660  0.27380  1.0000 0.622968204
C   C24       1.0  0.83120  0.38360  0.28190  1.0000 -0.0146389527
C   C25       1.0  0.12190  0.36870  0.44140  1.0000 -0.0962177593
C   C26       1.0  0.78130  0.20390  0.24520  1.0000 -0.1117383506
C   C27       1.0  0.75000  0.28040  0.24170  1.0000 -0.1117383506
C   C28       1.0  0.89200  0.22740  0.29010  1.0000 -0.0539847914
C   C29       1.0  0.59450  0.05910  0.82710  1.0000 -0.15582151
C   C30       1.0  0.57630  0.74830  0.97720  1.0000 -0.0589281138
C   C31       1.0  0.67240  0.02740  0.83150  1.0000 0.0387119536
C   C32       1.0  0.58730  0.72450  0.05040  1.0000 0.622968204
C   C33       1.0  0.86270  0.08170  0.79080  1.0000 0.5981874686
C   C34       1.0  0.57220  0.78540  0.84830  1.0000 0.0511071651
C   C35       1.0  0.51390  0.64010  0.94510  1.0000 0.0714357846
C   C36       1.0  0.62880  0.89740  0.87540  1.0000 0.0243162267
C   C37       1.0  0.52340  0.19340  0.77380  1.0000 0.622968204
C   C38       1.0  0.61640  0.16880  0.78190  1.0000 -0.0146389527
C   C39       1.0  0.63130  0.87810  0.94140  1.0000 -0.0962177593
C   C40       1.0  0.79610  0.21870  0.74520  1.0000 -0.1117383506
C   C41       1.0  0.71960  0.25000  0.74170  1.0000 -0.1117383506
C   C42       1.0  0.77260  0.10800  0.79010  1.0000 -0.0539847914
C   C43       1.0  0.05910  0.59450  0.67290  1.0000 -0.15582151
C   C44       1.0  0.74830  0.57630  0.52280  1.0000 -0.0589281138
C   C45       1.0  0.02740  0.67240  0.66850  1.0000 0.0387119536
C   C46       1.0  0.72450  0.58730  0.44960  1.0000 0.622968204
C   C47       1.0  0.08170  0.86270  0.70920  1.0000 0.5981874686
C   C48       1.0  0.78540  0.57220  0.65170  1.0000 0.0511071651
C   C49       1.0  0.64010  0.51390  0.55490  1.0000 0.0714357846
C   C50       1.0  0.89740  0.62880  0.62460  1.0000 0.0243162267
C   C51       1.0  0.19340  0.52340  0.72620  1.0000 0.622968204
C   C52       1.0  0.16880  0.61640  0.71810  1.0000 -0.0146389527
C   C53       1.0  0.87810  0.63130  0.55860  1.0000 -0.0962177593
C   C54       1.0  0.21870  0.79610  0.75480  1.0000 -0.1117383506
C   C55       1.0  0.25000  0.71960  0.75830  1.0000 -0.1117383506
C   C56       1.0  0.10800  0.77260  0.70990  1.0000 -0.0539847914
C   C57       1.0  0.30840  0.30840  0.25000  1.0000 0.5304697227
C   C58       1.0  0.69160  0.69160  0.75000  1.0000 0.5304697227
N   N1        1.0  0.48630  0.34250  0.11860  1.0000 -0.3365672234
N   N2        1.0  0.34250  0.48630  0.38140  1.0000 -0.3365672234
N   N3        1.0  0.51370  0.65750  0.88140  1.0000 -0.3365672234
N   N4        1.0  0.65750  0.51370  0.61860  1.0000 -0.3365672234
O   O1        1.0  0.57275  0.88485  0.19190  1.0000 -0.5841849375
O   O2        1.0  0.33504  0.16956  0.92180  1.0000 -0.6098582972
O   O3        1.0  0.45198  0.70842  0.27000  1.0000 -0.5889403834
O   O4        1.0  0.48130  0.40090  0.92170  1.0000 -0.5962945152
O   O5        1.0  0.82177  0.77563  0.20322  1.0000 -1.0807410407
O   O6        1.0  0.10261  0.96319  0.15630  1.0000 -0.4934866357
O   O7        1.0  0.10078  0.88962  0.26250  1.0000 -0.6497040171
O   O8        1.0  0.38130  0.34250  0.21170  1.0000 -0.5517670441
O   O9        1.0  0.55643  0.65977  0.20331  1.0000 -1.0390009809
O   O10       1.0  0.88485  0.57275  0.30810  1.0000 -0.5841849375
O   O11       1.0  0.16956  0.33504  0.57820  1.0000 -0.6098582972
O   O12       1.0  0.70842  0.45198  0.23000  1.0000 -0.5889403834
O   O13       1.0  0.40090  0.48130  0.57830  1.0000 -0.5962945152
O   O14       1.0  0.77563  0.82177  0.29678  1.0000 -1.0706468749
O   O15       1.0  0.96319  0.10261  0.34370  1.0000 -0.4963486123
O   O16       1.0  0.88962  0.10078  0.23750  1.0000 -0.6497040171
O   O17       1.0  0.34250  0.38130  0.28830  1.0000 -0.5517670441
O   O18       1.0  0.65977  0.55643  0.29669  1.0000 -1.0390009809
O   O19       1.0  0.42725  0.11515  0.80810  1.0000 -0.5889403834
O   O20       1.0  0.66496  0.83044  0.07820  1.0000 -0.6098582972
O   O21       1.0  0.54802  0.29158  0.73000  1.0000 -0.5889403834
O   O22       1.0  0.51870  0.59910  0.07830  1.0000 -0.5889403834
O   O23       1.0  0.17823  0.22437  0.79678  1.0000 -1.0807410407
O   O24       1.0  0.89739  0.03681  0.84370  1.0000 -0.4963486123
O   O25       1.0  0.89922  0.11038  0.73750  1.0000 -0.6497040171
O   O26       1.0  0.61870  0.65750  0.78830  1.0000 -0.5517670441
O   O27       1.0  0.44357  0.34023  0.79669  1.0000 -1.0390009809
O   O28       1.0  0.11515  0.42725  0.69190  1.0000 -0.5841849375
O   O29       1.0  0.83044  0.66496  0.42180  1.0000 -0.6098582972
O   O30       1.0  0.29158  0.54802  0.77000  1.0000 -0.5889403834
O   O31       1.0  0.59910  0.51870  0.42170  1.0000 -0.5889403834
O   O32       1.0  0.22437  0.17823  0.70322  1.0000 -1.0807410407
O   O33       1.0  0.03681  0.89739  0.65630  1.0000 -0.4934866357
O   O34       1.0  0.11038  0.89922  0.76250  1.0000 -0.6497040171
O   O35       1.0  0.65750  0.61870  0.71170  1.0000 -0.5517670441
O   O36       1.0  0.34023  0.44357  0.70331  1.0000 -1.0390009809
