# DDEC6 charges by PACMAN v1.1 (https://github.com/mtap-research/PACMAN-charge/)
data_2018[ZnCd][nan]2[ASR]1
_chemical_formula_sum              "Zn4 Cd2 H60 C108 O24"
_cell_length_a       16.5213
_cell_length_b       16.5213
_cell_length_c       14.1374
_cell_angle_alpha    90
_cell_angle_beta     90
_cell_angle_gamma    120

_symmetry_space_group_name_H-M    "P 1"
_symmetry_Int_Tables_number       1

loop_
  _symmetry_equiv_pos_as_xyz
  'x, y, z'

loop_
  _atom_site_type_symbol
  _atom_site_label
  _atom_site_symmetry_multiplicity
  _atom_site_fract_x
  _atom_site_fract_y
  _atom_site_fract_z
  _atom_site_occupancy
  _atom_site_charge
Zn  Zn1       1.0  0.33333  0.66667  0.49880  1.0000 0.9479639243
Zn  Zn2       1.0  0.33333  0.66667  0.00120  1.0000 0.9479639243
Zn  Zn3       1.0  0.66667  0.33333  0.50120  1.0000 0.9479639243
Zn  Zn4       1.0  0.66667  0.33333  0.99880  1.0000 0.9479639243
Cd  Cd1       1.0  0.33333  0.66667  0.25000  1.0000 1.0959359419
Cd  Cd2       1.0  0.66667  0.33333  0.75000  1.0000 1.0959359419
H   H1        1.0  0.16320  0.07300  0.37500  1.0000 0.1125334773
H   H2        1.0  0.11230  0.38000  0.48100  1.0000 0.1267072607
H   H3        1.0  0.02210  0.21860  0.46640  1.0000 0.1125334773
H   H4        1.0  0.21910  0.21790  0.29650  1.0000 0.1153724093
H   H5        1.0  0.30440  0.38030  0.30180  1.0000 0.1267072607
H   H6        1.0  0.90980  0.83680  0.37500  1.0000 0.1125334773
H   H7        1.0  0.26770  0.88770  0.48100  1.0000 0.1267072607
H   H8        1.0  0.19650  0.97790  0.46640  1.0000 0.1125334773
H   H9        1.0  0.99880  0.78090  0.29650  1.0000 0.1153724093
H   H10       1.0  0.07590  0.69560  0.30180  1.0000 0.1267072607
H   H11       1.0  0.92700  0.09020  0.37500  1.0000 0.1125334773
H   H12       1.0  0.62000  0.73230  0.48100  1.0000 0.1267072607
H   H13       1.0  0.78140  0.80350  0.46640  1.0000 0.1125334773
H   H14       1.0  0.78210  0.00120  0.29650  1.0000 0.1153724093
H   H15       1.0  0.61970  0.92410  0.30180  1.0000 0.1267072607
H   H16       1.0  0.90980  0.07300  0.12500  1.0000 0.1125334773
H   H17       1.0  0.26770  0.38000  0.01900  1.0000 0.1267072607
H   H18       1.0  0.19650  0.21860  0.03360  1.0000 0.1125334773
H   H19       1.0  0.99880  0.21790  0.20350  1.0000 0.1153724093
H   H20       1.0  0.07590  0.38030  0.19820  1.0000 0.1267072607
H   H21       1.0  0.92700  0.83680  0.12500  1.0000 0.1125334773
H   H22       1.0  0.62000  0.88770  0.01900  1.0000 0.1267072607
H   H23       1.0  0.78140  0.97790  0.03360  1.0000 0.1125334773
H   H24       1.0  0.78210  0.78090  0.20350  1.0000 0.1153724093
H   H25       1.0  0.61970  0.69560  0.19820  1.0000 0.1267072607
H   H26       1.0  0.16320  0.09020  0.12500  1.0000 0.1125334773
H   H27       1.0  0.11230  0.73230  0.01900  1.0000 0.1267072607
H   H28       1.0  0.02210  0.80350  0.03360  1.0000 0.1125334773
H   H29       1.0  0.21910  0.00120  0.20350  1.0000 0.1153724093
H   H30       1.0  0.30440  0.92410  0.19820  1.0000 0.1267072607
H   H31       1.0  0.83680  0.92700  0.62500  1.0000 0.1125334773
H   H32       1.0  0.88770  0.62000  0.51900  1.0000 0.1267072607
H   H33       1.0  0.97790  0.78140  0.53360  1.0000 0.1125334773
H   H34       1.0  0.78090  0.78210  0.70350  1.0000 0.1153724093
H   H35       1.0  0.69560  0.61970  0.69820  1.0000 0.1267072607
H   H36       1.0  0.09020  0.16320  0.62500  1.0000 0.1125334773
H   H37       1.0  0.73230  0.11230  0.51900  1.0000 0.1267072607
H   H38       1.0  0.80350  0.02210  0.53360  1.0000 0.1125334773
H   H39       1.0  0.00120  0.21910  0.70350  1.0000 0.1153724093
H   H40       1.0  0.92410  0.30440  0.69820  1.0000 0.1267072607
H   H41       1.0  0.07300  0.90980  0.62500  1.0000 0.1125334773
H   H42       1.0  0.38000  0.26770  0.51900  1.0000 0.1267072607
H   H43       1.0  0.21860  0.19650  0.53360  1.0000 0.1125334773
H   H44       1.0  0.21790  0.99880  0.70350  1.0000 0.1153724093
H   H45       1.0  0.38030  0.07590  0.69820  1.0000 0.1267072607
H   H46       1.0  0.09020  0.92700  0.87500  1.0000 0.1125334773
H   H47       1.0  0.73230  0.62000  0.98100  1.0000 0.1267072607
H   H48       1.0  0.80350  0.78140  0.96640  1.0000 0.1125334773
H   H49       1.0  0.00120  0.78210  0.79650  1.0000 0.1153724093
H   H50       1.0  0.92410  0.61970  0.80180  1.0000 0.1267072607
H   H51       1.0  0.07300  0.16320  0.87500  1.0000 0.1125334773
H   H52       1.0  0.38000  0.11230  0.98100  1.0000 0.1267072607
H   H53       1.0  0.21860  0.02210  0.96640  1.0000 0.1125334773
H   H54       1.0  0.21790  0.21910  0.79650  1.0000 0.1153724093
H   H55       1.0  0.38030  0.30440  0.80180  1.0000 0.1267072607
H   H56       1.0  0.83680  0.90980  0.87500  1.0000 0.1125334773
H   H57       1.0  0.88770  0.26770  0.98100  1.0000 0.1267072607
H   H58       1.0  0.97790  0.19650  0.96640  1.0000 0.1125334773
H   H59       1.0  0.78090  0.99880  0.79650  1.0000 0.1153724093
H   H60       1.0  0.69560  0.07590  0.80180  1.0000 0.1267072607
C   C1        1.0  0.09694  0.04341  0.37518  1.0000 -0.2010451842
C   C2        1.0  0.05438  0.09808  0.37529  1.0000 0.0869099062
C   C3        1.0  0.13311  0.34729  0.44185  1.0000 -0.1011208551
C   C4        1.0  0.11088  0.20114  0.37993  1.0000 0.0655480572
C   C5        1.0  0.08027  0.25118  0.43421  1.0000 -0.156205694
C   C6        1.0  0.19625  0.25092  0.33232  1.0000 -0.1499146671
C   C7        1.0  0.21712  0.39645  0.39197  1.0000 -0.0285191804
C   C8        1.0  0.24783  0.34742  0.33668  1.0000 -0.0947208778
C   C9        1.0  0.27164  0.50075  0.39882  1.0000 0.6028464001
C   C10       1.0  0.94647  0.90306  0.37518  1.0000 -0.2010451842
C   C11       1.0  0.04370  0.94562  0.37529  1.0000 0.0869099062
C   C12       1.0  0.21418  0.86689  0.44185  1.0000 -0.1011208551
C   C13       1.0  0.09026  0.88912  0.37993  1.0000 0.0655480572
C   C14       1.0  0.17091  0.91973  0.43421  1.0000 -0.156205694
C   C15       1.0  0.05467  0.80375  0.33232  1.0000 -0.1499146671
C   C16       1.0  0.17933  0.78288  0.39197  1.0000 -0.0285191804
C   C17       1.0  0.09959  0.75217  0.33668  1.0000 -0.0947208778
C   C18       1.0  0.22911  0.72836  0.39882  1.0000 0.6028464001
C   C19       1.0  0.95659  0.05353  0.37518  1.0000 -0.2010451842
C   C20       1.0  0.90192  0.95630  0.37529  1.0000 0.0869099062
C   C21       1.0  0.65271  0.78582  0.44185  1.0000 -0.1011208551
C   C22       1.0  0.79886  0.90974  0.37993  1.0000 0.0655480572
C   C23       1.0  0.74882  0.82909  0.43421  1.0000 -0.156205694
C   C24       1.0  0.74908  0.94533  0.33232  1.0000 -0.1499146671
C   C25       1.0  0.60355  0.82067  0.39197  1.0000 -0.0285191804
C   C26       1.0  0.65258  0.90041  0.33668  1.0000 -0.0947208778
C   C27       1.0  0.49925  0.77089  0.39882  1.0000 0.6028464001
C   C28       1.0  0.94647  0.04341  0.12482  1.0000 -0.2010451842
C   C29       1.0  0.04370  0.09808  0.12471  1.0000 0.0869099062
C   C30       1.0  0.21418  0.34729  0.05815  1.0000 -0.1011208551
C   C31       1.0  0.09026  0.20114  0.12007  1.0000 0.0655480572
C   C32       1.0  0.17091  0.25118  0.06579  1.0000 -0.156205694
C   C33       1.0  0.05467  0.25092  0.16768  1.0000 -0.1499146671
C   C34       1.0  0.17933  0.39645  0.10803  1.0000 -0.0285191804
C   C35       1.0  0.09959  0.34742  0.16332  1.0000 -0.0947208778
C   C36       1.0  0.22911  0.50075  0.10118  1.0000 0.6028464001
C   C37       1.0  0.95659  0.90306  0.12482  1.0000 -0.2010451842
C   C38       1.0  0.90192  0.94562  0.12471  1.0000 0.0869099062
C   C39       1.0  0.65271  0.86689  0.05815  1.0000 -0.1011208551
C   C40       1.0  0.79886  0.88912  0.12007  1.0000 0.0655480572
C   C41       1.0  0.74882  0.91973  0.06579  1.0000 -0.156205694
C   C42       1.0  0.74908  0.80375  0.16768  1.0000 -0.1499146671
C   C43       1.0  0.60355  0.78288  0.10803  1.0000 -0.0285191804
C   C44       1.0  0.65258  0.75217  0.16332  1.0000 -0.0947208778
C   C45       1.0  0.49925  0.72836  0.10118  1.0000 0.6028464001
C   C46       1.0  0.09694  0.05353  0.12482  1.0000 -0.2010451842
C   C47       1.0  0.05438  0.95630  0.12471  1.0000 0.0869099062
C   C48       1.0  0.13311  0.78582  0.05815  1.0000 -0.1011208551
C   C49       1.0  0.11088  0.90974  0.12007  1.0000 0.0655480572
C   C50       1.0  0.08027  0.82909  0.06579  1.0000 -0.156205694
C   C51       1.0  0.19625  0.94533  0.16768  1.0000 -0.1499146671
C   C52       1.0  0.21712  0.82067  0.10803  1.0000 -0.0285191804
C   C53       1.0  0.24783  0.90041  0.16332  1.0000 -0.0947208778
C   C54       1.0  0.27164  0.77089  0.10118  1.0000 0.6028464001
C   C55       1.0  0.90306  0.95659  0.62482  1.0000 -0.2010451842
C   C56       1.0  0.94562  0.90192  0.62471  1.0000 0.0869099062
C   C57       1.0  0.86689  0.65271  0.55815  1.0000 -0.1011208551
C   C58       1.0  0.88912  0.79886  0.62007  1.0000 0.0655480572
C   C59       1.0  0.91973  0.74882  0.56579  1.0000 -0.156205694
C   C60       1.0  0.80375  0.74908  0.66768  1.0000 -0.1499146671
C   C61       1.0  0.78288  0.60355  0.60803  1.0000 -0.0285191804
C   C62       1.0  0.75217  0.65258  0.66332  1.0000 -0.0947208778
C   C63       1.0  0.72836  0.49925  0.60118  1.0000 0.6028464001
C   C64       1.0  0.05353  0.09694  0.62482  1.0000 -0.2010451842
C   C65       1.0  0.95630  0.05438  0.62471  1.0000 0.0869099062
C   C66       1.0  0.78582  0.13311  0.55815  1.0000 -0.1011208551
C   C67       1.0  0.90974  0.11088  0.62007  1.0000 0.0655480572
C   C68       1.0  0.82909  0.08027  0.56579  1.0000 -0.156205694
C   C69       1.0  0.94533  0.19625  0.66768  1.0000 -0.1499146671
C   C70       1.0  0.82067  0.21712  0.60803  1.0000 -0.0285191804
C   C71       1.0  0.90041  0.24783  0.66332  1.0000 -0.0947208778
C   C72       1.0  0.77089  0.27164  0.60118  1.0000 0.6028464001
C   C73       1.0  0.04341  0.94647  0.62482  1.0000 -0.2010451842
C   C74       1.0  0.09808  0.04370  0.62471  1.0000 0.0869099062
C   C75       1.0  0.34729  0.21418  0.55815  1.0000 -0.1011208551
C   C76       1.0  0.20114  0.09026  0.62007  1.0000 0.0655480572
C   C77       1.0  0.25118  0.17091  0.56579  1.0000 -0.156205694
C   C78       1.0  0.25092  0.05467  0.66768  1.0000 -0.1499146671
C   C79       1.0  0.39645  0.17933  0.60803  1.0000 -0.0285191804
C   C80       1.0  0.34742  0.09959  0.66332  1.0000 -0.0947208778
C   C81       1.0  0.50075  0.22911  0.60118  1.0000 0.6028464001
C   C82       1.0  0.05353  0.95659  0.87518  1.0000 -0.2010451842
C   C83       1.0  0.95630  0.90192  0.87529  1.0000 0.0869099062
C   C84       1.0  0.78582  0.65271  0.94185  1.0000 -0.1011208551
C   C85       1.0  0.90974  0.79886  0.87993  1.0000 0.0655480572
C   C86       1.0  0.82909  0.74882  0.93421  1.0000 -0.156205694
C   C87       1.0  0.94533  0.74908  0.83232  1.0000 -0.1499146671
C   C88       1.0  0.82067  0.60355  0.89197  1.0000 -0.0285191804
C   C89       1.0  0.90041  0.65258  0.83668  1.0000 -0.0947208778
C   C90       1.0  0.77089  0.49925  0.89882  1.0000 0.6028464001
C   C91       1.0  0.04341  0.09694  0.87518  1.0000 -0.2010451842
C   C92       1.0  0.09808  0.05438  0.87529  1.0000 0.0869099062
C   C93       1.0  0.34729  0.13311  0.94185  1.0000 -0.1011208551
C   C94       1.0  0.20114  0.11088  0.87993  1.0000 0.0655480572
C   C95       1.0  0.25118  0.08027  0.93421  1.0000 -0.156205694
C   C96       1.0  0.25092  0.19625  0.83232  1.0000 -0.1499146671
C   C97       1.0  0.39645  0.21712  0.89197  1.0000 -0.0285191804
C   C98       1.0  0.34742  0.24783  0.83668  1.0000 -0.0947208778
C   C99       1.0  0.50075  0.27164  0.89882  1.0000 0.6028464001
C   C100      1.0  0.90306  0.94647  0.87518  1.0000 -0.2010451842
C   C101      1.0  0.94562  0.04370  0.87529  1.0000 0.0869099062
C   C102      1.0  0.86689  0.21418  0.94185  1.0000 -0.1011208551
C   C103      1.0  0.88912  0.09026  0.87993  1.0000 0.0655480572
C   C104      1.0  0.91973  0.17091  0.93421  1.0000 -0.156205694
C   C105      1.0  0.80375  0.05467  0.83232  1.0000 -0.1499146671
C   C106      1.0  0.78288  0.17933  0.89197  1.0000 -0.0285191804
C   C107      1.0  0.75217  0.09959  0.83668  1.0000 -0.0947208778
C   C108      1.0  0.72836  0.22911  0.89882  1.0000 0.6028464001
O   O1        1.0  0.32926  0.54733  0.33525  1.0000 -0.5581378777
O   O2        1.0  0.25554  0.53517  0.47165  1.0000 -0.5581378777
O   O3        1.0  0.21807  0.67074  0.33525  1.0000 -0.5581378777
O   O4        1.0  0.27963  0.74446  0.47165  1.0000 -0.5581378777
O   O5        1.0  0.45267  0.78193  0.33525  1.0000 -0.5581378777
O   O6        1.0  0.46483  0.72037  0.47165  1.0000 -0.5581378777
O   O7        1.0  0.21807  0.54733  0.16475  1.0000 -0.5581378777
O   O8        1.0  0.27963  0.53517  0.02835  1.0000 -0.5581378777
O   O9        1.0  0.45267  0.67074  0.16475  1.0000 -0.5581378777
O   O10       1.0  0.46483  0.74446  0.02835  1.0000 -0.5581378777
O   O11       1.0  0.32926  0.78193  0.16475  1.0000 -0.5581378777
O   O12       1.0  0.25554  0.72037  0.02835  1.0000 -0.5581378777
O   O13       1.0  0.67074  0.45267  0.66475  1.0000 -0.5581378777
O   O14       1.0  0.74446  0.46483  0.52835  1.0000 -0.5581378777
O   O15       1.0  0.78193  0.32926  0.66475  1.0000 -0.5581378777
O   O16       1.0  0.72037  0.25554  0.52835  1.0000 -0.5581378777
O   O17       1.0  0.54733  0.21807  0.66475  1.0000 -0.5581378777
O   O18       1.0  0.53517  0.27963  0.52835  1.0000 -0.5581378777
O   O19       1.0  0.78193  0.45267  0.83525  1.0000 -0.5581378777
O   O20       1.0  0.72037  0.46483  0.97165  1.0000 -0.5581378777
O   O21       1.0  0.54733  0.32926  0.83525  1.0000 -0.5581378777
O   O22       1.0  0.53517  0.25554  0.97165  1.0000 -0.5581378777
O   O23       1.0  0.67074  0.21807  0.83525  1.0000 -0.5581378777
O   O24       1.0  0.74446  0.27963  0.97165  1.0000 -0.5581378777
