# DDEC6 charges by PACMAN v1.1 (https://github.com/mtap-research/PACMAN-charge/)
data_2018[Ce][nan]3[ASR]4
_chemical_formula_sum              "Ce4 C32 O20 F16"
_cell_length_a       14.1532
_cell_length_b       14.1532
_cell_length_c       8.0841
_cell_angle_alpha    84.4855
_cell_angle_beta     95.5145
_cell_angle_gamma    131.611

_symmetry_space_group_name_H-M    "P 1"
_symmetry_Int_Tables_number       1

loop_
  _symmetry_equiv_pos_as_xyz
  'x, y, z'

loop_
  _atom_site_type_symbol
  _atom_site_label
  _atom_site_symmetry_multiplicity
  _atom_site_fract_x
  _atom_site_fract_y
  _atom_site_fract_z
  _atom_site_occupancy
  _atom_site_charge
Ce  Ce1       1.0  0.07192  0.95436  0.15200  1.0000 2.1281675282
Ce  Ce2       1.0  0.95436  0.07192  0.34800  1.0000 2.1281675282
Ce  Ce3       1.0  0.92808  0.04564  0.84800  1.0000 2.1281675282
Ce  Ce4       1.0  0.04564  0.92808  0.65200  1.0000 2.1281675282
C   C1        1.0  0.50920  0.94220  0.40480  1.0000 0.1444388214
C   C2        1.0  0.94220  0.50920  0.09520  1.0000 0.1444388214
C   C3        1.0  0.49080  0.05780  0.59520  1.0000 0.1444388214
C   C4        1.0  0.05780  0.49080  0.90480  1.0000 0.1444388214
C   C5        1.0  0.39760  0.91340  0.39060  1.0000 0.1779715489
C   C6        1.0  0.91340  0.39760  0.10940  1.0000 0.1779715489
C   C7        1.0  0.60240  0.08660  0.60940  1.0000 0.1779715489
C   C8        1.0  0.08660  0.60240  0.89060  1.0000 0.1779715489
C   C9        1.0  0.38560  0.97820  0.49350  1.0000 -0.2368822139
C   C10       1.0  0.97820  0.38560  0.00650  1.0000 -0.2368822139
C   C11       1.0  0.61440  0.02180  0.50650  1.0000 -0.2368822139
C   C12       1.0  0.02180  0.61440  0.99350  1.0000 -0.2368822139
C   C13       1.0  0.28170  0.97690  0.46260  1.0000 0.6794928892
C   C14       1.0  0.97690  0.28170  0.03740  1.0000 0.6794928892
C   C15       1.0  0.71830  0.02310  0.53740  1.0000 0.6794928892
C   C16       1.0  0.02310  0.71830  0.96260  1.0000 0.6794928892
C   C17       1.0  0.41055  0.49965  0.19170  1.0000 0.1628277633
C   C18       1.0  0.49965  0.41055  0.30830  1.0000 0.1628277633
C   C19       1.0  0.58945  0.50035  0.80830  1.0000 0.1628277633
C   C20       1.0  0.50035  0.58945  0.69170  1.0000 0.1628277633
C   C21       1.0  0.52909  0.61811  0.19100  1.0000 0.16722976
C   C22       1.0  0.61811  0.52909  0.30900  1.0000 0.16722976
C   C23       1.0  0.47091  0.38189  0.80900  1.0000 0.16722976
C   C24       1.0  0.38189  0.47091  0.69100  1.0000 0.16722976
C   C25       1.0  0.39590  0.39590  0.25000  1.0000 -0.2368822139
C   C26       1.0  0.60410  0.60410  0.75000  1.0000 -0.2368822139
C   C27       1.0  0.63290  0.63290  0.25000  1.0000 -0.2328666863
C   C28       1.0  0.36710  0.36710  0.75000  1.0000 -0.2328666863
C   C29       1.0  0.75990  0.75990  0.25000  1.0000 0.6794928892
C   C30       1.0  0.24010  0.24010  0.75000  1.0000 0.6794928892
C   C31       1.0  0.26900  0.26900  0.25000  1.0000 0.6854357902
C   C32       1.0  0.73100  0.73100  0.75000  1.0000 0.6854357902
O   O1        1.0  0.24880  0.97900  0.31590  1.0000 -0.5546548184
O   O2        1.0  0.97900  0.24880  0.18410  1.0000 -0.5546548184
O   O3        1.0  0.75120  0.02100  0.68410  1.0000 -0.5546548184
O   O4        1.0  0.02100  0.75120  0.81590  1.0000 -0.5546548184
O   O5        1.0  0.20940  0.94140  0.57440  1.0000 -0.5574096408
O   O6        1.0  0.94140  0.20940  0.92560  1.0000 -0.5574096408
O   O7        1.0  0.79060  0.05860  0.42560  1.0000 -0.5574096408
O   O8        1.0  0.05860  0.79060  0.07440  1.0000 -0.5574096408
O   O9        1.0  0.84420  0.78200  0.17300  1.0000 -0.5574096408
O   O10       1.0  0.78200  0.84420  0.32700  1.0000 -0.5574096408
O   O11       1.0  0.15580  0.21800  0.82700  1.0000 -0.5574096408
O   O12       1.0  0.21800  0.15580  0.67300  1.0000 -0.5574096408
O   O13       1.0  0.24780  0.18340  0.17600  1.0000 -0.5716735836
O   O14       1.0  0.18340  0.24780  0.32400  1.0000 -0.5716735836
O   O15       1.0  0.75220  0.81660  0.82400  1.0000 -0.5716735836
O   O16       1.0  0.81660  0.75220  0.67600  1.0000 -0.5716735836
O   O17       1.0  0.04640  0.97120  0.42080  1.0000 -1.0821200427
O   O18       1.0  0.97120  0.04640  0.07920  1.0000 -1.0821200427
O   O19       1.0  0.95360  0.02880  0.57920  1.0000 -1.0821200427
O   O20       1.0  0.02880  0.95360  0.92080  1.0000 -1.0821200427
F   F1        1.0  0.32680  0.86720  0.24990  1.0000 -0.0926970061
F   F2        1.0  0.86720  0.32680  0.25010  1.0000 -0.0926970061
F   F3        1.0  0.67320  0.13280  0.75010  1.0000 -0.0926970061
F   F4        1.0  0.13280  0.67320  0.74990  1.0000 -0.0926970061
F   F5        1.0  0.53720  0.89940  0.29510  1.0000 -0.0970188346
F   F6        1.0  0.89940  0.53720  0.20490  1.0000 -0.0970188346
F   F7        1.0  0.46280  0.10060  0.70490  1.0000 -0.0970188346
F   F8        1.0  0.10060  0.46280  0.79510  1.0000 -0.0970188346
F   F9        1.0  0.54210  0.71830  0.14760  1.0000 -0.0789262098
F   F10       1.0  0.71830  0.54210  0.35240  1.0000 -0.0789262098
F   F11       1.0  0.45790  0.28170  0.85240  1.0000 -0.0789262098
F   F12       1.0  0.28170  0.45790  0.64760  1.0000 -0.0789262098
F   F13       1.0  0.31190  0.48430  0.12560  1.0000 -0.0789262098
F   F14       1.0  0.48430  0.31190  0.37440  1.0000 -0.0789262098
F   F15       1.0  0.68810  0.51570  0.87440  1.0000 -0.0789262098
F   F16       1.0  0.51570  0.68810  0.62560  1.0000 -0.0789262098
