# DDEC6 charges by PACMAN v1.1 (https://github.com/mtap-research/PACMAN-charge/)
data_2018[Co][fes]2[ASR]1
_chemical_formula_sum              "Co8 P16 H32 C16 O56"
_cell_length_a       10.5158
_cell_length_b       18.9596
_cell_length_c       14.9538
_cell_angle_alpha    90
_cell_angle_beta     104.814
_cell_angle_gamma    90

_symmetry_space_group_name_H-M    "P 1"
_symmetry_Int_Tables_number       1

loop_
  _symmetry_equiv_pos_as_xyz
  'x, y, z'

loop_
  _atom_site_type_symbol
  _atom_site_label
  _atom_site_symmetry_multiplicity
  _atom_site_fract_x
  _atom_site_fract_y
  _atom_site_fract_z
  _atom_site_occupancy
  _atom_site_charge
Co  Co1       1.0  0.96471  0.58795  0.60991  1.0000 1.1705903388
Co  Co2       1.0  0.90760  0.74504  0.34290  1.0000 1.2425271101
Co  Co3       1.0  0.03529  0.08795  0.89009  1.0000 1.1705903388
Co  Co4       1.0  0.09240  0.24504  0.15710  1.0000 1.2425271101
Co  Co5       1.0  0.03529  0.41205  0.39009  1.0000 1.1705903388
Co  Co6       1.0  0.09240  0.25496  0.65710  1.0000 1.2425271101
Co  Co7       1.0  0.96471  0.91205  0.10991  1.0000 1.1705903388
Co  Co8       1.0  0.90760  0.75496  0.84290  1.0000 1.2425271101
P   P1        1.0  0.15216  0.67632  0.77414  1.0000 1.2589389659
P   P2        1.0  0.94180  0.58836  0.82779  1.0000 1.2526458677
P   P3        1.0  0.93663  0.57676  0.39283  1.0000 1.2425271101
P   P4        1.0  0.73829  0.66165  0.46607  1.0000 1.2774290717
P   P5        1.0  0.84784  0.17632  0.72586  1.0000 1.2589389659
P   P6        1.0  0.05820  0.08836  0.67221  1.0000 1.2589389659
P   P7        1.0  0.06337  0.07676  0.10717  1.0000 1.2425271101
P   P8        1.0  0.26171  0.16165  0.03393  1.0000 1.2774290717
P   P9        1.0  0.84784  0.32368  0.22586  1.0000 1.2589389659
P   P10       1.0  0.05820  0.41164  0.17221  1.0000 1.2526458677
P   P11       1.0  0.06337  0.42324  0.60717  1.0000 1.2425271101
P   P12       1.0  0.26171  0.33835  0.53393  1.0000 1.2774290717
P   P13       1.0  0.15216  0.82368  0.27414  1.0000 1.2589389659
P   P14       1.0  0.94180  0.91164  0.32779  1.0000 1.2526458677
P   P15       1.0  0.93663  0.92324  0.89283  1.0000 1.2425271101
P   P16       1.0  0.73829  0.83835  0.96607  1.0000 1.2774290717
H   H1        1.0  0.27660  0.61414  0.95855  1.0000 0.1880129118
H   H2        1.0  0.16002  0.66471  0.96201  1.0000 0.1880129118
H   H3        1.0  0.15163  0.58435  0.98451  1.0000 0.2130496628
H   H4        1.0  0.59226  0.54090  0.36407  1.0000 0.1978519461
H   H5        1.0  0.65349  0.58210  0.29428  1.0000 0.1978519461
H   H6        1.0  0.69778  0.50446  0.32213  1.0000 0.1880129118
H   H7        1.0  0.12712  0.52300  0.76584  1.0000 0.3927993155
H   H8        1.0  0.85467  0.48871  0.50806  1.0000 0.4009520686
H   H9        1.0  0.72340  0.11414  0.54145  1.0000 0.1880129118
H   H10       1.0  0.83998  0.16471  0.53799  1.0000 0.1880129118
H   H11       1.0  0.84837  0.08435  0.51549  1.0000 0.2130496628
H   H12       1.0  0.40774  0.04090  0.13593  1.0000 0.1978519461
H   H13       1.0  0.34651  0.08210  0.20572  1.0000 0.1978519461
H   H14       1.0  0.30222  0.00446  0.17787  1.0000 0.1880129118
H   H15       1.0  0.87288  0.02300  0.73416  1.0000 0.3927993155
H   H16       1.0  0.14533  0.98871  0.99194  1.0000 0.4009520686
H   H17       1.0  0.72340  0.38586  0.04145  1.0000 0.1880129118
H   H18       1.0  0.83998  0.33529  0.03799  1.0000 0.1880129118
H   H19       1.0  0.84837  0.41565  0.01549  1.0000 0.2130496628
H   H20       1.0  0.40774  0.45910  0.63593  1.0000 0.1978519461
H   H21       1.0  0.34651  0.41790  0.70572  1.0000 0.1978519461
H   H22       1.0  0.30222  0.49554  0.67787  1.0000 0.1880129118
H   H23       1.0  0.87288  0.47700  0.23416  1.0000 0.3927993155
H   H24       1.0  0.14533  0.51129  0.49194  1.0000 0.4009520686
H   H25       1.0  0.27660  0.88586  0.45855  1.0000 0.1880129118
H   H26       1.0  0.16002  0.83529  0.46201  1.0000 0.1880129118
H   H27       1.0  0.15163  0.91565  0.48451  1.0000 0.2130496628
H   H28       1.0  0.59226  0.95910  0.86407  1.0000 0.1978519461
H   H29       1.0  0.65349  0.91790  0.79428  1.0000 0.1978519461
H   H30       1.0  0.69778  0.99554  0.82213  1.0000 0.1880129118
H   H31       1.0  0.12712  0.97700  0.26584  1.0000 0.3927993155
H   H32       1.0  0.85467  0.01129  0.00806  1.0000 0.4009520686
C   C1        1.0  0.11930  0.60300  0.84520  1.0000 -0.1366765012
C   C2        1.0  0.18280  0.61790  0.94700  1.0000 -0.3313164138
C   C3        1.0  0.77890  0.57560  0.42340  1.0000 -0.1338420981
C   C4        1.0  0.67070  0.54830  0.34370  1.0000 -0.3428292708
C   C5        1.0  0.88070  0.10300  0.65480  1.0000 -0.1366765012
C   C6        1.0  0.81720  0.11790  0.55300  1.0000 -0.3313164138
C   C7        1.0  0.22110  0.07560  0.07660  1.0000 -0.1366765012
C   C8        1.0  0.32930  0.04830  0.15630  1.0000 -0.3428292708
C   C9        1.0  0.88070  0.39700  0.15480  1.0000 -0.1366765012
C   C10       1.0  0.81720  0.38210  0.05300  1.0000 -0.3313164138
C   C11       1.0  0.22110  0.42440  0.57660  1.0000 -0.1366765012
C   C12       1.0  0.32930  0.45170  0.65630  1.0000 -0.3428292708
C   C13       1.0  0.11930  0.89700  0.34520  1.0000 -0.1366765012
C   C14       1.0  0.18280  0.88210  0.44700  1.0000 -0.3313164138
C   C15       1.0  0.77890  0.92440  0.92340  1.0000 -0.1366765012
C   C16       1.0  0.67070  0.95170  0.84370  1.0000 -0.3428292708
O   O1        1.0  0.12340  0.64806  0.67575  1.0000 -0.6516879671
O   O2        1.0  0.29730  0.69590  0.80820  1.0000 -0.5531635308
O   O3        1.0  0.06350  0.73600  0.78590  1.0000 -0.6891181343
O   O4        1.0  0.88260  0.58172  0.72400  1.0000 -0.6687707589
O   O5        1.0  0.88790  0.65014  0.87120  1.0000 -0.678159649
O   O6        1.0  0.92800  0.52099  0.88020  1.0000 -0.5315441214
O   O7        1.0  0.93750  0.63683  0.32591  1.0000 -0.6687707589
O   O8        1.0  0.03830  0.58408  0.48590  1.0000 -0.6891181343
O   O9        1.0  0.94880  0.50620  0.34735  1.0000 -0.6687707589
O   O10       1.0  0.74590  0.71737  0.39530  1.0000 -0.678159649
O   O11       1.0  0.84340  0.67160  0.55710  1.0000 -0.6687707589
O   O12       1.0  0.60130  0.65518  0.48050  1.0000 -0.5589467608
O   O13       1.0  0.18010  0.53810  0.82420  1.0000 -0.3428292708
O   O14       1.0  0.79860  0.52891  0.50370  1.0000 -0.4181750738
O   O15       1.0  0.87660  0.14806  0.82425  1.0000 -0.6516879671
O   O16       1.0  0.70270  0.19590  0.69180  1.0000 -0.5531635308
O   O17       1.0  0.93650  0.23600  0.71410  1.0000 -0.6891181343
O   O18       1.0  0.11740  0.08172  0.77600  1.0000 -0.6687707589
O   O19       1.0  0.11210  0.15014  0.62880  1.0000 -0.678159649
O   O20       1.0  0.07200  0.02099  0.61980  1.0000 -0.5315441214
O   O21       1.0  0.06250  0.13683  0.17409  1.0000 -0.6687707589
O   O22       1.0  0.96170  0.08408  0.01410  1.0000 -0.6891181343
O   O23       1.0  0.05120  0.00620  0.15265  1.0000 -0.6687707589
O   O24       1.0  0.25410  0.21737  0.10470  1.0000 -0.678159649
O   O25       1.0  0.15660  0.17160  0.94290  1.0000 -0.6687707589
O   O26       1.0  0.39870  0.15518  0.01950  1.0000 -0.5589467608
O   O27       1.0  0.81990  0.03810  0.67580  1.0000 -0.3428292708
O   O28       1.0  0.20140  0.02891  0.99630  1.0000 -0.4181750738
O   O29       1.0  0.87660  0.35194  0.32425  1.0000 -0.6516879671
O   O30       1.0  0.70270  0.30410  0.19180  1.0000 -0.5531635308
O   O31       1.0  0.93650  0.26400  0.21410  1.0000 -0.6891181343
O   O32       1.0  0.11740  0.41828  0.27600  1.0000 -0.6687707589
O   O33       1.0  0.11210  0.34986  0.12880  1.0000 -0.678159649
O   O34       1.0  0.07200  0.47901  0.11980  1.0000 -0.5315441214
O   O35       1.0  0.06250  0.36317  0.67409  1.0000 -0.6687707589
O   O36       1.0  0.96170  0.41592  0.51410  1.0000 -0.6891181343
O   O37       1.0  0.05120  0.49380  0.65265  1.0000 -0.6687707589
O   O38       1.0  0.25410  0.28263  0.60470  1.0000 -0.678159649
O   O39       1.0  0.15660  0.32840  0.44290  1.0000 -0.6687707589
O   O40       1.0  0.39870  0.34482  0.51950  1.0000 -0.5589467608
O   O41       1.0  0.81990  0.46190  0.17580  1.0000 -0.3428292708
O   O42       1.0  0.20140  0.47109  0.49630  1.0000 -0.4181750738
O   O43       1.0  0.12340  0.85194  0.17575  1.0000 -0.6516879671
O   O44       1.0  0.29730  0.80410  0.30820  1.0000 -0.5531635308
O   O45       1.0  0.06350  0.76400  0.28590  1.0000 -0.6891181343
O   O46       1.0  0.88260  0.91828  0.22400  1.0000 -0.6687707589
O   O47       1.0  0.88790  0.84986  0.37120  1.0000 -0.678159649
O   O48       1.0  0.92800  0.97901  0.38020  1.0000 -0.5315441214
O   O49       1.0  0.93750  0.86317  0.82591  1.0000 -0.6687707589
O   O50       1.0  0.03830  0.91592  0.98590  1.0000 -0.6891181343
O   O51       1.0  0.94880  0.99380  0.84735  1.0000 -0.6687707589
O   O52       1.0  0.74590  0.78263  0.89530  1.0000 -0.678159649
O   O53       1.0  0.84340  0.82840  0.05710  1.0000 -0.6687707589
O   O54       1.0  0.60130  0.84482  0.98050  1.0000 -0.5589467608
O   O55       1.0  0.18010  0.96190  0.32420  1.0000 -0.3428292708
O   O56       1.0  0.79860  0.97109  0.00370  1.0000 -0.4181750738
