# DDEC6 charges by PACMAN v1.1 (https://github.com/mtap-research/PACMAN-charge/)
data_2018[Cu][lvt]3[ASR]1
_chemical_formula_sum              "Cu4 H8 C32 O16 F4"
_cell_length_a       13.3298
_cell_length_b       13.3298
_cell_length_c       13.3298
_cell_angle_alpha    127.328
_cell_angle_beta     111.902
_cell_angle_gamma    91.1801

_symmetry_space_group_name_H-M    "P 1"
_symmetry_Int_Tables_number       1

loop_
  _symmetry_equiv_pos_as_xyz
  'x, y, z'

loop_
  _atom_site_type_symbol
  _atom_site_label
  _atom_site_symmetry_multiplicity
  _atom_site_fract_x
  _atom_site_fract_y
  _atom_site_fract_z
  _atom_site_occupancy
  _atom_site_charge
Cu  Cu1       1.0  0.05494  0.48444  0.42950  1.0000 0.8556962984
Cu  Cu2       1.0  0.44506  0.87456  0.42950  1.0000 0.8556962984
Cu  Cu3       1.0  0.94506  0.51556  0.57050  1.0000 0.8556962984
Cu  Cu4       1.0  0.55494  0.12544  0.57050  1.0000 0.8556962984
H   H1        1.0  0.04990  0.83990  0.49700  1.0000 0.1278432162
H   H2        1.0  0.45010  0.94710  0.79000  1.0000 0.1278432162
H   H3        1.0  0.65710  0.16010  0.21000  1.0000 0.1278432162
H   H4        1.0  0.84290  0.05290  0.50300  1.0000 0.1278432162
H   H5        1.0  0.95010  0.16010  0.50300  1.0000 0.1278432162
H   H6        1.0  0.54990  0.05290  0.21000  1.0000 0.1278432162
H   H7        1.0  0.34290  0.83990  0.79000  1.0000 0.1278432162
H   H8        1.0  0.15710  0.94710  0.49700  1.0000 0.1278432162
C   C1        1.0  0.91140  0.78440  0.50020  1.0000 -0.1264457812
C   C2        1.0  0.98340  0.85820  0.49880  1.0000 -0.1158153114
C   C3        1.0  0.94170  0.67580  0.49670  1.0000 0.5978033545
C   C4        1.0  0.58860  0.08880  0.87300  1.0000 -0.1264457812
C   C5        1.0  0.51660  0.01540  0.87480  1.0000 -0.1158153114
C   C6        1.0  0.55830  0.05500  0.73410  1.0000 0.5978033545
C   C7        1.0  0.71580  0.21560  0.12700  1.0000 -0.1264457812
C   C8        1.0  0.64060  0.14180  0.12520  1.0000 -0.1158153114
C   C9        1.0  0.82090  0.32420  0.26590  1.0000 0.5978033545
C   C10       1.0  0.78420  0.91120  0.49980  1.0000 -0.1264457812
C   C11       1.0  0.85940  0.98460  0.50120  1.0000 -0.1158153114
C   C12       1.0  0.67910  0.94500  0.50330  1.0000 0.5978033545
C   C13       1.0  0.08860  0.21560  0.49980  1.0000 -0.1264457812
C   C14       1.0  0.01660  0.14180  0.50120  1.0000 -0.1158153114
C   C15       1.0  0.05830  0.32420  0.50330  1.0000 0.5978033545
C   C16       1.0  0.41140  0.91120  0.12700  1.0000 -0.1264457812
C   C17       1.0  0.48340  0.98460  0.12520  1.0000 -0.1158153114
C   C18       1.0  0.44170  0.94500  0.26590  1.0000 0.5978033545
C   C19       1.0  0.28420  0.78440  0.87300  1.0000 -0.1264457812
C   C20       1.0  0.35940  0.85820  0.87480  1.0000 -0.1158153114
C   C21       1.0  0.17910  0.67580  0.73410  1.0000 0.5978033545
C   C22       1.0  0.21580  0.08880  0.50020  1.0000 -0.1264457812
C   C23       1.0  0.14060  0.01540  0.49880  1.0000 -0.1158153114
C   C24       1.0  0.32090  0.05500  0.49670  1.0000 0.5978033545
C   C25       1.0  0.81030  0.81030  0.50000  1.0000 0.2597293484
C   C26       1.0  0.95910  0.95910  0.50000  1.0000 0.0669166969
C   C27       1.0  0.68970  0.18970  0.00000  1.0000 0.2597293484
C   C28       1.0  0.54090  0.04090  0.00000  1.0000 0.0669166969
C   C29       1.0  0.18970  0.18970  0.50000  1.0000 0.2597293484
C   C30       1.0  0.04090  0.04090  0.50000  1.0000 0.0669166969
C   C31       1.0  0.31030  0.81030  0.00000  1.0000 0.2597293484
C   C32       1.0  0.45910  0.95910  0.00000  1.0000 0.0669166969
O   O1        1.0  0.00020  0.62400  0.43960  1.0000 -0.4919085389
O   O2        1.0  0.90640  0.64690  0.55590  1.0000 -0.5194252206
O   O3        1.0  0.49980  0.93940  0.62380  1.0000 -0.4919085389
O   O4        1.0  0.59360  0.14950  0.74050  1.0000 -0.5194252206
O   O5        1.0  0.81560  0.37600  0.37620  1.0000 -0.4919085389
O   O6        1.0  0.90900  0.35310  0.25950  1.0000 -0.5194252206
O   O7        1.0  0.68440  0.06060  0.56040  1.0000 -0.4919085389
O   O8        1.0  0.59100  0.85050  0.44410  1.0000 -0.5194252206
O   O9        1.0  0.99980  0.37600  0.56040  1.0000 -0.4919085389
O   O10       1.0  0.09360  0.35310  0.44410  1.0000 -0.5194252206
O   O11       1.0  0.50020  0.06060  0.37620  1.0000 -0.4919085389
O   O12       1.0  0.40640  0.85050  0.25950  1.0000 -0.5194252206
O   O13       1.0  0.18440  0.62400  0.62380  1.0000 -0.4919085389
O   O14       1.0  0.09100  0.64690  0.74050  1.0000 -0.5194252206
O   O15       1.0  0.31560  0.93940  0.43960  1.0000 -0.4919085389
O   O16       1.0  0.40900  0.14950  0.55590  1.0000 -0.5194252206
F   F1        1.0  0.73850  0.73850  0.50000  1.0000 -0.1264457812
F   F2        1.0  0.76150  0.26150  0.00000  1.0000 -0.1264457812
F   F3        1.0  0.26150  0.26150  0.50000  1.0000 -0.1264457812
F   F4        1.0  0.23850  0.73850  0.00000  1.0000 -0.1264457812
