# DDEC6 charges by PACMAN v1.1 (https://github.com/mtap-research/PACMAN-charge/)
data_2018[Co][nan]3[ASR]2
_chemical_formula_sum              "Co12 H172 C264 N8 O52"
_cell_length_a       17.7046
_cell_length_b       17.7046
_cell_length_c       29.3546
_cell_angle_alpha    75.8893
_cell_angle_beta     104.111
_cell_angle_gamma    113.712

_symmetry_space_group_name_H-M    "P 1"
_symmetry_Int_Tables_number       1

loop_
  _symmetry_equiv_pos_as_xyz
  'x, y, z'

loop_
  _atom_site_type_symbol
  _atom_site_label
  _atom_site_symmetry_multiplicity
  _atom_site_fract_x
  _atom_site_fract_y
  _atom_site_fract_z
  _atom_site_occupancy
  _atom_site_charge
Co  Co1       1.0  0.36158  0.97848  0.79979  1.0000 0.9918236919
Co  Co2       1.0  0.52681  0.12647  0.76970  1.0000 0.9918236919
Co  Co3       1.0  0.48965  0.11769  0.88166  1.0000 0.9374478199
Co  Co4       1.0  0.02152  0.63842  0.29979  1.0000 0.9918236919
Co  Co5       1.0  0.87353  0.47319  0.26970  1.0000 0.9918236919
Co  Co6       1.0  0.88231  0.51035  0.38166  1.0000 0.9374478199
Co  Co7       1.0  0.97848  0.36158  0.70021  1.0000 0.9918236919
Co  Co8       1.0  0.12647  0.52681  0.73030  1.0000 0.9918236919
Co  Co9       1.0  0.11769  0.48965  0.61834  1.0000 0.9374478199
Co  Co10      1.0  0.63842  0.02152  0.20021  1.0000 0.9918236919
Co  Co11      1.0  0.47319  0.87353  0.23030  1.0000 0.9918236919
Co  Co12      1.0  0.51035  0.88231  0.11834  1.0000 0.9374478199
H   H1        1.0  0.08170  0.99810  0.79640  1.0000 0.1283189189
H   H2        1.0  0.94180  0.92520  0.80040  1.0000 0.1116981494
H   H3        1.0  0.98360  0.71280  0.84240  1.0000 0.1191838384
H   H4        1.0  0.12220  0.78440  0.83400  1.0000 0.1116981494
H   H5        1.0  0.47560  0.05700  0.98850  1.0000 0.1116981494
H   H6        1.0  0.53360  0.09480  0.06110  1.0000 0.1622839123
H   H7        1.0  0.65680  0.31660  0.99560  1.0000 0.1401583391
H   H8        1.0  0.63120  0.24400  0.93020  1.0000 0.1191838384
H   H9        1.0  0.37200  0.18740  0.62540  1.0000 0.1191838384
H   H10       1.0  0.28850  0.18810  0.55090  1.0000 0.1191838384
H   H11       1.0  0.14830  0.94850  0.58930  1.0000 0.1116981494
H   H12       1.0  0.22740  0.94860  0.66400  1.0000 0.1283189189
H   H13       1.0  0.14730  0.17830  0.50370  1.0000 0.1191838384
H   H14       1.0  0.00470  0.04350  0.40130  1.0000 0.1116981494
H   H15       1.0  0.14890  0.95090  0.50890  1.0000 0.1191838384
H   H16       1.0  0.92220  0.90100  0.40600  1.0000 0.1116981494
H   H17       1.0  0.86880  0.76920  0.38590  1.0000 0.1283189189
H   H18       1.0  0.09150  0.74730  0.43420  1.0000 0.1191838384
H   H19       1.0  0.14630  0.87790  0.45470  1.0000 0.1191838384
H   H20       1.0  0.00290  0.16430  0.35910  1.0000 0.1116981494
H   H21       1.0  0.93920  0.26040  0.32660  1.0000 0.1191838384
H   H22       1.0  0.55710  0.37530  0.86320  1.0000 0.1191838384
H   H23       1.0  0.62290  0.51390  0.86680  1.0000 0.1191838384
H   H24       1.0  0.75360  0.53940  0.76750  1.0000 0.1116981494
H   H25       1.0  0.68360  0.40000  0.76200  1.0000 0.1191838384
H   H26       1.0  0.62510  0.64990  0.81500  1.0000 0.1191838384
H   H27       1.0  0.82450  0.86270  0.81910  1.0000 0.1191838384
H   H28       1.0  0.85340  0.65060  0.81900  1.0000 0.1191838384
H   H29       1.0  0.91180  0.47620  0.17350  1.0000 0.1191838384
H   H30       1.0  0.85790  0.40690  0.11010  1.0000 0.1401583391
H   H31       1.0  0.76140  0.29520  0.07150  1.0000 0.1116981494
H   H32       1.0  0.74300  0.20960  0.10660  1.0000 0.1401583391
H   H33       1.0  0.61410  0.20410  0.10960  1.0000 0.1283189189
H   H34       1.0  0.63280  0.29540  0.08170  1.0000 0.1191838384
H   H35       1.0  0.69460  0.22600  0.18690  1.0000 0.1480020731
H   H36       1.0  0.74830  0.30330  0.24720  1.0000 0.1191838384
H   H37       1.0  0.49090  0.79170  0.84590  1.0000 0.1191838384
H   H38       1.0  0.58050  0.72310  0.85470  1.0000 0.1191838384
H   H39       1.0  0.71850  0.90990  0.76730  1.0000 0.1191838384
H   H40       1.0  0.62350  0.97570  0.75380  1.0000 0.1191838384
H   H41       1.0  0.98890  0.33110  0.45370  1.0000 0.1191838384
H   H42       1.0  0.04440  0.22820  0.48810  1.0000 0.1116981494
H   H43       1.0  0.41170  0.12230  0.80300  1.0000 0.3886127658
H   H44       1.0  0.00190  0.91830  0.29640  1.0000 0.1283189189
H   H45       1.0  0.07480  0.05820  0.30040  1.0000 0.1116981494
H   H46       1.0  0.28720  0.01640  0.34240  1.0000 0.1191838384
H   H47       1.0  0.21560  0.87780  0.33400  1.0000 0.1116981494
H   H48       1.0  0.94300  0.52440  0.48850  1.0000 0.1116981494
H   H49       1.0  0.90520  0.46640  0.56110  1.0000 0.1622839123
H   H50       1.0  0.68340  0.34320  0.49560  1.0000 0.1401583391
H   H51       1.0  0.75600  0.36880  0.43020  1.0000 0.1191838384
H   H52       1.0  0.81260  0.62800  0.12540  1.0000 0.1191838384
H   H53       1.0  0.81190  0.71150  0.05090  1.0000 0.1191838384
H   H54       1.0  0.05150  0.85170  0.08930  1.0000 0.1116981494
H   H55       1.0  0.05140  0.77260  0.16400  1.0000 0.1283189189
H   H56       1.0  0.82170  0.85270  0.00370  1.0000 0.1191838384
H   H57       1.0  0.95650  0.99530  0.90130  1.0000 0.1116981494
H   H58       1.0  0.04910  0.85110  0.00890  1.0000 0.1191838384
H   H59       1.0  0.09900  0.07780  0.90600  1.0000 0.1116981494
H   H60       1.0  0.23080  0.13120  0.88590  1.0000 0.1283189189
H   H61       1.0  0.25270  0.90850  0.93420  1.0000 0.1191838384
H   H62       1.0  0.12210  0.85370  0.95470  1.0000 0.1191838384
H   H63       1.0  0.83570  0.99710  0.85910  1.0000 0.1116981494
H   H64       1.0  0.73960  0.06080  0.82660  1.0000 0.1191838384
H   H65       1.0  0.62470  0.44290  0.36320  1.0000 0.1191838384
H   H66       1.0  0.48610  0.37710  0.36680  1.0000 0.1191838384
H   H67       1.0  0.46060  0.24640  0.26750  1.0000 0.1116981494
H   H68       1.0  0.60000  0.31640  0.26200  1.0000 0.1191838384
H   H69       1.0  0.35010  0.37490  0.31500  1.0000 0.1191838384
H   H70       1.0  0.13730  0.17550  0.31910  1.0000 0.1191838384
H   H71       1.0  0.34940  0.14660  0.31900  1.0000 0.1191838384
H   H72       1.0  0.52380  0.08820  0.67350  1.0000 0.1191838384
H   H73       1.0  0.59310  0.14210  0.61010  1.0000 0.1401583391
H   H74       1.0  0.70480  0.23860  0.57150  1.0000 0.1116981494
H   H75       1.0  0.79040  0.25700  0.60660  1.0000 0.1401583391
H   H76       1.0  0.79590  0.38590  0.60960  1.0000 0.1283189189
H   H77       1.0  0.70460  0.36720  0.58170  1.0000 0.1191838384
H   H78       1.0  0.77400  0.30540  0.68690  1.0000 0.1480020731
H   H79       1.0  0.69670  0.25170  0.74720  1.0000 0.1191838384
H   H80       1.0  0.20830  0.50910  0.34590  1.0000 0.1191838384
H   H81       1.0  0.27690  0.41950  0.35470  1.0000 0.1191838384
H   H82       1.0  0.09010  0.28150  0.26730  1.0000 0.1191838384
H   H83       1.0  0.02430  0.37650  0.25380  1.0000 0.1191838384
H   H84       1.0  0.66890  0.01110  0.95370  1.0000 0.1191838384
H   H85       1.0  0.77180  0.95560  0.98810  1.0000 0.1116981494
H   H86       1.0  0.87770  0.58830  0.30300  1.0000 0.3886127658
H   H87       1.0  0.99810  0.08170  0.70360  1.0000 0.1283189189
H   H88       1.0  0.92520  0.94180  0.69960  1.0000 0.1116981494
H   H89       1.0  0.71280  0.98360  0.65760  1.0000 0.1191838384
H   H90       1.0  0.78440  0.12220  0.66600  1.0000 0.1116981494
H   H91       1.0  0.05700  0.47560  0.51150  1.0000 0.1116981494
H   H92       1.0  0.09480  0.53360  0.43890  1.0000 0.1622839123
H   H93       1.0  0.31660  0.65680  0.50440  1.0000 0.1401583391
H   H94       1.0  0.24400  0.63120  0.56980  1.0000 0.1191838384
H   H95       1.0  0.18740  0.37200  0.87460  1.0000 0.1191838384
H   H96       1.0  0.18810  0.28850  0.94910  1.0000 0.1191838384
H   H97       1.0  0.94850  0.14830  0.91070  1.0000 0.1116981494
H   H98       1.0  0.94860  0.22740  0.83600  1.0000 0.1283189189
H   H99       1.0  0.17830  0.14730  0.99630  1.0000 0.1191838384
H   H100      1.0  0.04350  0.00470  0.09870  1.0000 0.1116981494
H   H101      1.0  0.95090  0.14890  0.99110  1.0000 0.1116981494
H   H102      1.0  0.90100  0.92220  0.09400  1.0000 0.1116981494
H   H103      1.0  0.76920  0.86880  0.11410  1.0000 0.1283189189
H   H104      1.0  0.74730  0.09150  0.06580  1.0000 0.1191838384
H   H105      1.0  0.87790  0.14630  0.04530  1.0000 0.1191838384
H   H106      1.0  0.16430  0.00290  0.14090  1.0000 0.1116981494
H   H107      1.0  0.26040  0.93920  0.17340  1.0000 0.1191838384
H   H108      1.0  0.37530  0.55710  0.63680  1.0000 0.1191838384
H   H109      1.0  0.51390  0.62290  0.63320  1.0000 0.1191838384
H   H110      1.0  0.53940  0.75360  0.73250  1.0000 0.1116981494
H   H111      1.0  0.40000  0.68360  0.73800  1.0000 0.1191838384
H   H112      1.0  0.64990  0.62510  0.68500  1.0000 0.1191838384
H   H113      1.0  0.86270  0.82450  0.68090  1.0000 0.1191838384
H   H114      1.0  0.65060  0.85340  0.68100  1.0000 0.1191838384
H   H115      1.0  0.47620  0.91180  0.32650  1.0000 0.1191838384
H   H116      1.0  0.40690  0.85790  0.38990  1.0000 0.1401583391
H   H117      1.0  0.29520  0.76140  0.42850  1.0000 0.1116981494
H   H118      1.0  0.20960  0.74300  0.39340  1.0000 0.1401583391
H   H119      1.0  0.20410  0.61410  0.39040  1.0000 0.1283189189
H   H120      1.0  0.29540  0.63280  0.41830  1.0000 0.1191838384
H   H121      1.0  0.22600  0.69460  0.31310  1.0000 0.1480020731
H   H122      1.0  0.30330  0.74830  0.25280  1.0000 0.1191838384
H   H123      1.0  0.79170  0.49090  0.65410  1.0000 0.1191838384
H   H124      1.0  0.72310  0.58050  0.64530  1.0000 0.1191838384
H   H125      1.0  0.90990  0.71850  0.73270  1.0000 0.1191838384
H   H126      1.0  0.97570  0.62350  0.74620  1.0000 0.1191838384
H   H127      1.0  0.33110  0.98890  0.04630  1.0000 0.1191838384
H   H128      1.0  0.22820  0.04440  0.01190  1.0000 0.1116981494
H   H129      1.0  0.12230  0.41170  0.69700  1.0000 0.3886127658
H   H130      1.0  0.91830  0.00190  0.20360  1.0000 0.1283189189
H   H131      1.0  0.05820  0.07480  0.19960  1.0000 0.1116981494
H   H132      1.0  0.01640  0.28720  0.15760  1.0000 0.1191838384
H   H133      1.0  0.87780  0.21560  0.16600  1.0000 0.1116981494
H   H134      1.0  0.52440  0.94300  0.01150  1.0000 0.1116981494
H   H135      1.0  0.46640  0.90520  0.93890  1.0000 0.1622839123
H   H136      1.0  0.34320  0.68340  0.00440  1.0000 0.1401583391
H   H137      1.0  0.36880  0.75600  0.06980  1.0000 0.1191838384
H   H138      1.0  0.62800  0.81260  0.37460  1.0000 0.1191838384
H   H139      1.0  0.71150  0.81190  0.44910  1.0000 0.1191838384
H   H140      1.0  0.85170  0.05150  0.41070  1.0000 0.1116981494
H   H141      1.0  0.77260  0.05140  0.33600  1.0000 0.1283189189
H   H142      1.0  0.85270  0.82170  0.49630  1.0000 0.1191838384
H   H143      1.0  0.99530  0.95650  0.59870  1.0000 0.1116981494
H   H144      1.0  0.85110  0.04910  0.49110  1.0000 0.1116981494
H   H145      1.0  0.07780  0.09900  0.59400  1.0000 0.1116981494
H   H146      1.0  0.13120  0.23080  0.61410  1.0000 0.1283189189
H   H147      1.0  0.90850  0.25270  0.56580  1.0000 0.1191838384
H   H148      1.0  0.85370  0.12210  0.54530  1.0000 0.1191838384
H   H149      1.0  0.99710  0.83570  0.64090  1.0000 0.1116981494
H   H150      1.0  0.06080  0.73960  0.67340  1.0000 0.1191838384
H   H151      1.0  0.44290  0.62470  0.13680  1.0000 0.1191838384
H   H152      1.0  0.37710  0.48610  0.13320  1.0000 0.1191838384
H   H153      1.0  0.24640  0.46060  0.23250  1.0000 0.1116981494
H   H154      1.0  0.31640  0.60000  0.23800  1.0000 0.1191838384
H   H155      1.0  0.37490  0.35010  0.18500  1.0000 0.1191838384
H   H156      1.0  0.17550  0.13730  0.18090  1.0000 0.1191838384
H   H157      1.0  0.14660  0.34940  0.18100  1.0000 0.1191838384
H   H158      1.0  0.08820  0.52380  0.82650  1.0000 0.1191838384
H   H159      1.0  0.14210  0.59310  0.88990  1.0000 0.1401583391
H   H160      1.0  0.23860  0.70480  0.92850  1.0000 0.1116981494
H   H161      1.0  0.25700  0.79040  0.89340  1.0000 0.1401583391
H   H162      1.0  0.38590  0.79590  0.89040  1.0000 0.1283189189
H   H163      1.0  0.36720  0.70460  0.91830  1.0000 0.1191838384
H   H164      1.0  0.30540  0.77400  0.81310  1.0000 0.1480020731
H   H165      1.0  0.25170  0.69670  0.75280  1.0000 0.1191838384
H   H166      1.0  0.50910  0.20830  0.15410  1.0000 0.1191838384
H   H167      1.0  0.41950  0.27690  0.14530  1.0000 0.1191838384
H   H168      1.0  0.28150  0.09010  0.23270  1.0000 0.1191838384
H   H169      1.0  0.37650  0.02430  0.24620  1.0000 0.1191838384
H   H170      1.0  0.01110  0.66890  0.54630  1.0000 0.1191838384
H   H171      1.0  0.95560  0.77180  0.51190  1.0000 0.1116981494
H   H172      1.0  0.58830  0.87770  0.19700  1.0000 0.3886127658
C   C1        1.0  0.20618  0.94522  0.80939  1.0000 0.5474661328
C   C2        1.0  0.11678  0.89922  0.81388  1.0000 -0.0223665685
C   C3        1.0  0.06218  0.94022  0.80460  1.0000 -0.0917169199
C   C4        1.0  0.97756  0.89584  0.80730  1.0000 -0.1501515699
C   C5        1.0  0.94560  0.81080  0.81960  1.0000 0.071773034
C   C6        1.0  0.00220  0.77020  0.83150  1.0000 -0.1602686989
C   C7        1.0  0.08630  0.81350  0.82750  1.0000 -0.0979056026
C   C8        1.0  0.85405  0.76335  0.81950  1.0000 0.0889506477
C   C9        1.0  0.51780  0.10920  0.99000  1.0000 0.0801920962
C   C10       1.0  0.54990  0.13270  0.03400  1.0000 -0.1976289675
C   C11       1.0  0.60480  0.21040  0.03800  1.0000 0.1622839123
C   C12       1.0  0.62670  0.25950  0.99720  1.0000 -0.2299326677
C   C13       1.0  0.60050  0.21850  0.95510  1.0000 0.1191838384
C   C14       1.0  0.93767  0.65533  0.39925  1.0000 0.5331426002
C   C15       1.0  0.35783  0.06557  0.70204  1.0000 0.5896553137
C   C16       1.0  0.30766  0.06774  0.65267  1.0000 -0.0291571681
C   C17       1.0  0.32657  0.13963  0.61833  1.0000 -0.0979056026
C   C18       1.0  0.27686  0.13954  0.57330  1.0000 -0.1602686989
C   C19       1.0  0.21090  0.06850  0.56167  1.0000 0.071773034
C   C20       1.0  0.19299  0.99681  0.59647  1.0000 -0.1501515699
C   C21       1.0  0.24050  0.99670  0.64123  1.0000 -0.0917169199
C   C22       1.0  0.15654  0.06546  0.51413  1.0000 0.0801920962
C   C23       1.0  0.12732  0.12908  0.49111  1.0000 -0.1887429654
C   C24       1.0  0.06863  0.12057  0.44946  1.0000 0.0801920962
C   C25       1.0  0.04234  0.04866  0.42969  1.0000 -0.1887429654
C   C26       1.0  0.07187  0.98313  0.45217  1.0000 0.0801920962
C   C27       1.0  0.12864  0.99336  0.49387  1.0000 -0.1887429654
C   C28       1.0  0.03929  0.90351  0.43362  1.0000 0.071773034
C   C29       1.0  0.95635  0.87005  0.41229  1.0000 -0.1501515699
C   C30       1.0  0.92436  0.79084  0.40044  1.0000 -0.0917169199
C   C31       1.0  0.97404  0.74316  0.40996  1.0000 -0.0099857182
C   C32       1.0  0.05706  0.77774  0.42926  1.0000 -0.0979056026
C   C33       1.0  0.09029  0.85611  0.44138  1.0000 -0.1501515699
C   C34       1.0  0.03195  0.18545  0.42767  1.0000 0.071773034
C   C35       1.0  0.99926  0.19674  0.37851  1.0000 -0.1602686989
C   C36       1.0  0.96206  0.25534  0.35881  1.0000 -0.0917169199
C   C37       1.0  0.57346  0.27994  0.81352  1.0000 0.5953170993
C   C38       1.0  0.61556  0.37204  0.81340  1.0000 -0.0291571681
C   C39       1.0  0.59700  0.40820  0.84380  1.0000 -0.0979056026
C   C40       1.0  0.63590  0.49110  0.84570  1.0000 -0.1425781213
C   C41       1.0  0.69479  0.54281  0.81670  1.0000 0.071773034
C   C42       1.0  0.71308  0.50672  0.78650  1.0000 -0.1501515699
C   C43       1.0  0.67242  0.42258  0.78390  1.0000 -0.0979056026
C   C44       1.0  0.73330  0.63430  0.81800  1.0000 0.0889506477
C   C45       1.0  0.68250  0.67810  0.81630  1.0000 -0.1887429654
C   C46       1.0  0.71693  0.76407  0.81660  1.0000 0.0801920962
C   C47       1.0  0.80156  0.80544  0.81850  1.0000 -0.1887429654
C   C48       1.0  0.81905  0.67895  0.81890  1.0000 -0.1887429654
C   C49       1.0  0.86600  0.42620  0.17574  1.0000 0.0889506477
C   C50       1.0  0.83460  0.38420  0.13790  1.0000 -0.2140287124
C   C51       1.0  0.76890  0.30830  0.14044  1.0000 0.1717476882
C   C52       1.0  0.73320  0.26180  0.09830  1.0000 -0.2299326677
C   C53       1.0  0.64260  0.24420  0.08450  1.0000 -0.2160483338
C   C54       1.0  0.73770  0.27770  0.18291  1.0000 -0.1976289675
C   C55       1.0  0.77079  0.32441  0.21922  1.0000 0.1116981494
C   C56       1.0  0.48942  0.93718  0.79131  1.0000 0.5711148717
C   C57       1.0  0.54747  0.89093  0.79830  1.0000 -0.0223665685
C   C58       1.0  0.53561  0.81499  0.82920  1.0000 -0.0979056026
C   C59       1.0  0.59000  0.77480  0.83510  1.0000 -0.1501515699
C   C60       1.0  0.65898  0.80982  0.81220  1.0000 0.0801920962
C   C61       1.0  0.67185  0.88535  0.78250  1.0000 -0.1501515699
C   C62       1.0  0.61540  0.92540  0.77480  1.0000 -0.0917169199
C   C63       1.0  0.92417  0.37463  0.36486  1.0000 0.5840776004
C   C64       1.0  0.95854  0.30666  0.38666  1.0000 -0.0291571681
C   C65       1.0  0.99051  0.29669  0.43482  1.0000 -0.0979056026
C   C66       1.0  0.02543  0.23557  0.45544  1.0000 -0.1501515699
C   C67       1.0  0.05478  0.79382  0.30939  1.0000 0.5474661328
C   C68       1.0  0.10078  0.88322  0.31388  1.0000 -0.0223665685
C   C69       1.0  0.05978  0.93782  0.30460  1.0000 -0.0917169199
C   C70       1.0  0.10416  0.02244  0.30730  1.0000 -0.1501515699
C   C71       1.0  0.18920  0.05440  0.31960  1.0000 0.071773034
C   C72       1.0  0.22980  0.99780  0.33150  1.0000 -0.1602686989
C   C73       1.0  0.18650  0.91370  0.32750  1.0000 -0.0979056026
C   C74       1.0  0.23665  0.14595  0.31950  1.0000 0.0889506477
C   C75       1.0  0.89080  0.48220  0.49000  1.0000 0.0801920962
C   C76       1.0  0.86730  0.45010  0.53400  1.0000 -0.1976289675
C   C77       1.0  0.78960  0.39520  0.53800  1.0000 0.1622839123
C   C78       1.0  0.74050  0.37330  0.49720  1.0000 -0.2299326677
C   C79       1.0  0.78150  0.39950  0.45510  1.0000 0.1191838384
C   C80       1.0  0.34467  0.06233  0.89925  1.0000 0.5331426002
C   C81       1.0  0.93443  0.64217  0.20204  1.0000 0.5896553137
C   C82       1.0  0.93226  0.69234  0.15267  1.0000 -0.0291571681
C   C83       1.0  0.86037  0.67343  0.11833  1.0000 -0.0979056026
C   C84       1.0  0.86046  0.72314  0.07330  1.0000 -0.1602686989
C   C85       1.0  0.93150  0.78910  0.06167  1.0000 0.071773034
C   C86       1.0  0.00319  0.80701  0.09647  1.0000 -0.1501515699
C   C87       1.0  0.00330  0.75950  0.14123  1.0000 -0.0917169199
C   C88       1.0  0.93454  0.84346  0.01413  1.0000 0.0801920962
C   C89       1.0  0.87092  0.87268  0.99111  1.0000 -0.1887429654
C   C90       1.0  0.87943  0.93137  0.94946  1.0000 0.0801920962
C   C91       1.0  0.95134  0.95766  0.92969  1.0000 -0.1887429654
C   C92       1.0  0.01687  0.92813  0.95217  1.0000 0.0801920962
C   C93       1.0  0.00664  0.87136  0.99387  1.0000 -0.1887429654
C   C94       1.0  0.09649  0.96071  0.93362  1.0000 0.071773034
C   C95       1.0  0.12995  0.04365  0.91229  1.0000 -0.1501515699
C   C96       1.0  0.20916  0.07564  0.90044  1.0000 -0.0917169199
C   C97       1.0  0.25684  0.02596  0.90996  1.0000 -0.0099857182
C   C98       1.0  0.22226  0.94294  0.92926  1.0000 -0.0979056026
C   C99       1.0  0.14389  0.90971  0.94138  1.0000 -0.1501515699
C   C100      1.0  0.81455  0.96805  0.92767  1.0000 0.071773034
C   C101      1.0  0.80326  0.00074  0.87851  1.0000 -0.1602686989
C   C102      1.0  0.74466  0.03794  0.85881  1.0000 -0.0917169199
C   C103      1.0  0.72006  0.42654  0.31352  1.0000 0.5953170993
C   C104      1.0  0.62796  0.38444  0.31340  1.0000 -0.0291571681
C   C105      1.0  0.59180  0.40300  0.34380  1.0000 -0.0979056026
C   C106      1.0  0.50890  0.36410  0.34570  1.0000 -0.1425781213
C   C107      1.0  0.45719  0.30521  0.31670  1.0000 0.071773034
C   C108      1.0  0.49328  0.28692  0.28650  1.0000 -0.1501515699
C   C109      1.0  0.57742  0.32758  0.28390  1.0000 -0.0979056026
C   C110      1.0  0.36570  0.26670  0.31800  1.0000 0.0889506477
C   C111      1.0  0.32190  0.31750  0.31630  1.0000 -0.1887429654
C   C112      1.0  0.23593  0.28307  0.31660  1.0000 0.0801920962
C   C113      1.0  0.19456  0.19844  0.31850  1.0000 -0.1887429654
C   C114      1.0  0.32105  0.18095  0.31890  1.0000 -0.1887429654
C   C115      1.0  0.57380  0.13400  0.67574  1.0000 0.0889506477
C   C116      1.0  0.61580  0.16540  0.63790  1.0000 -0.2140287124
C   C117      1.0  0.69170  0.23110  0.64044  1.0000 0.1717476882
C   C118      1.0  0.73820  0.26680  0.59830  1.0000 -0.2299326677
C   C119      1.0  0.75580  0.35740  0.58450  1.0000 -0.2160483338
C   C120      1.0  0.72230  0.26230  0.68291  1.0000 -0.1976289675
C   C121      1.0  0.67559  0.22921  0.71922  1.0000 0.1116981494
C   C122      1.0  0.06282  0.51058  0.29131  1.0000 0.5711148717
C   C123      1.0  0.10907  0.45253  0.29830  1.0000 -0.0223665685
C   C124      1.0  0.18501  0.46439  0.32920  1.0000 -0.0979056026
C   C125      1.0  0.22520  0.41000  0.33510  1.0000 -0.1501515699
C   C126      1.0  0.19018  0.34102  0.31220  1.0000 0.0801920962
C   C127      1.0  0.11465  0.32815  0.28250  1.0000 -0.1501515699
C   C128      1.0  0.07460  0.38460  0.27480  1.0000 -0.0917169199
C   C129      1.0  0.62537  0.07583  0.86486  1.0000 0.5840776004
C   C130      1.0  0.69334  0.04146  0.88666  1.0000 -0.0291571681
C   C131      1.0  0.70331  0.00949  0.93482  1.0000 -0.0979056026
C   C132      1.0  0.76443  0.97457  0.95544  1.0000 -0.1501515699
C   C133      1.0  0.94522  0.20618  0.69061  1.0000 0.5474661328
C   C134      1.0  0.89922  0.11678  0.68612  1.0000 -0.0223665685
C   C135      1.0  0.94022  0.06218  0.69540  1.0000 -0.0917169199
C   C136      1.0  0.89584  0.97756  0.69270  1.0000 -0.1602686989
C   C137      1.0  0.81080  0.94560  0.68040  1.0000 0.071773034
C   C138      1.0  0.77020  0.00220  0.66850  1.0000 -0.1602686989
C   C139      1.0  0.81350  0.08630  0.67250  1.0000 -0.0979056026
C   C140      1.0  0.76335  0.85405  0.68050  1.0000 0.0889506477
C   C141      1.0  0.10920  0.51780  0.51000  1.0000 0.0801920962
C   C142      1.0  0.13270  0.54990  0.46600  1.0000 -0.1976289675
C   C143      1.0  0.21040  0.60480  0.46200  1.0000 0.1622839123
C   C144      1.0  0.25950  0.62670  0.50280  1.0000 -0.2299326677
C   C145      1.0  0.21850  0.60050  0.54490  1.0000 0.1191838384
C   C146      1.0  0.65533  0.93767  0.10075  1.0000 0.5331426002
C   C147      1.0  0.06557  0.35783  0.79796  1.0000 0.5896553137
C   C148      1.0  0.06774  0.30766  0.84733  1.0000 -0.0291571681
C   C149      1.0  0.13963  0.32657  0.88167  1.0000 -0.0979056026
C   C150      1.0  0.13954  0.27686  0.92670  1.0000 -0.1602686989
C   C151      1.0  0.06850  0.21090  0.93833  1.0000 0.071773034
C   C152      1.0  0.99681  0.19299  0.90353  1.0000 -0.1501515699
C   C153      1.0  0.99670  0.24050  0.85877  1.0000 -0.0917169199
C   C154      1.0  0.06546  0.15654  0.98587  1.0000 0.0801920962
C   C155      1.0  0.12908  0.12732  0.00889  1.0000 -0.1887429654
C   C156      1.0  0.12057  0.06863  0.05054  1.0000 0.0801920962
C   C157      1.0  0.04866  0.04234  0.07031  1.0000 -0.1887429654
C   C158      1.0  0.98313  0.07187  0.04783  1.0000 0.0801920962
C   C159      1.0  0.99336  0.12864  0.00613  1.0000 -0.1887429654
C   C160      1.0  0.90351  0.03929  0.06638  1.0000 0.071773034
C   C161      1.0  0.87005  0.95635  0.08771  1.0000 -0.1501515699
C   C162      1.0  0.79084  0.92436  0.09956  1.0000 -0.0917169199
C   C163      1.0  0.74316  0.97404  0.09004  1.0000 -0.0099857182
C   C164      1.0  0.77774  0.05706  0.07074  1.0000 -0.0979056026
C   C165      1.0  0.85611  0.09029  0.05862  1.0000 -0.1501515699
C   C166      1.0  0.18545  0.03195  0.07233  1.0000 0.071773034
C   C167      1.0  0.19674  0.99926  0.12149  1.0000 -0.1602686989
C   C168      1.0  0.25534  0.96206  0.14119  1.0000 -0.0917169199
C   C169      1.0  0.27994  0.57346  0.68648  1.0000 0.5953170993
C   C170      1.0  0.37204  0.61556  0.68660  1.0000 -0.0291571681
C   C171      1.0  0.40820  0.59700  0.65620  1.0000 -0.0979056026
C   C172      1.0  0.49110  0.63590  0.65430  1.0000 -0.1425781213
C   C173      1.0  0.54281  0.69479  0.68330  1.0000 0.071773034
C   C174      1.0  0.50672  0.71308  0.71350  1.0000 -0.1501515699
C   C175      1.0  0.42258  0.67242  0.71610  1.0000 -0.0979056026
C   C176      1.0  0.63430  0.73330  0.68200  1.0000 0.0889506477
C   C177      1.0  0.67810  0.68250  0.68370  1.0000 -0.1887429654
C   C178      1.0  0.76407  0.71693  0.68340  1.0000 0.0801920962
C   C179      1.0  0.80544  0.80156  0.68150  1.0000 -0.1887429654
C   C180      1.0  0.67895  0.81905  0.68110  1.0000 -0.1887429654
C   C181      1.0  0.42620  0.86600  0.32426  1.0000 0.0889506477
C   C182      1.0  0.38420  0.83460  0.36210  1.0000 -0.2140287124
C   C183      1.0  0.30830  0.76890  0.35956  1.0000 0.1717476882
C   C184      1.0  0.26180  0.73320  0.40170  1.0000 -0.2299326677
C   C185      1.0  0.24420  0.64260  0.41550  1.0000 -0.2160483338
C   C186      1.0  0.27770  0.73770  0.31709  1.0000 -0.1976289675
C   C187      1.0  0.32441  0.77079  0.28078  1.0000 0.1116981494
C   C188      1.0  0.93718  0.48942  0.70869  1.0000 0.5711148717
C   C189      1.0  0.89093  0.54747  0.70170  1.0000 -0.0223665685
C   C190      1.0  0.81499  0.53561  0.67080  1.0000 -0.0979056026
C   C191      1.0  0.77480  0.59000  0.66490  1.0000 -0.1501515699
C   C192      1.0  0.80982  0.65898  0.68780  1.0000 0.071773034
C   C193      1.0  0.88535  0.67185  0.71750  1.0000 -0.1501515699
C   C194      1.0  0.92540  0.61540  0.72520  1.0000 -0.0917169199
C   C195      1.0  0.37463  0.92417  0.13514  1.0000 0.5840776004
C   C196      1.0  0.30666  0.95854  0.11334  1.0000 -0.0291571681
C   C197      1.0  0.29669  0.99051  0.06518  1.0000 -0.0979056026
C   C198      1.0  0.23557  0.02543  0.04456  1.0000 -0.1501515699
C   C199      1.0  0.79382  0.05478  0.19061  1.0000 0.5474661328
C   C200      1.0  0.88322  0.10078  0.18612  1.0000 -0.0223665685
C   C201      1.0  0.93782  0.05978  0.19540  1.0000 -0.0917169199
C   C202      1.0  0.02244  0.10416  0.19270  1.0000 -0.1602686989
C   C203      1.0  0.05440  0.18920  0.18040  1.0000 0.071773034
C   C204      1.0  0.99780  0.22980  0.16850  1.0000 -0.1602686989
C   C205      1.0  0.91370  0.18650  0.17250  1.0000 -0.0979056026
C   C206      1.0  0.14595  0.23665  0.18050  1.0000 0.0889506477
C   C207      1.0  0.48220  0.89080  0.01000  1.0000 0.071773034
C   C208      1.0  0.45010  0.86730  0.96600  1.0000 -0.1976289675
C   C209      1.0  0.39520  0.78960  0.96200  1.0000 0.1622839123
C   C210      1.0  0.37330  0.74050  0.00280  1.0000 -0.2299326677
C   C211      1.0  0.39950  0.78150  0.04490  1.0000 0.1191838384
C   C212      1.0  0.06233  0.34467  0.60075  1.0000 0.5331426002
C   C213      1.0  0.64217  0.93443  0.29796  1.0000 0.5896553137
C   C214      1.0  0.69234  0.93226  0.34733  1.0000 -0.0291571681
C   C215      1.0  0.67343  0.86037  0.38167  1.0000 -0.0979056026
C   C216      1.0  0.72314  0.86046  0.42670  1.0000 -0.1602686989
C   C217      1.0  0.78910  0.93150  0.43833  1.0000 0.0649302416
C   C218      1.0  0.80701  0.00319  0.40353  1.0000 -0.1501515699
C   C219      1.0  0.75950  0.00330  0.35877  1.0000 -0.0917169199
C   C220      1.0  0.84346  0.93454  0.48587  1.0000 0.0801920962
C   C221      1.0  0.87268  0.87092  0.50889  1.0000 -0.1887429654
C   C222      1.0  0.93137  0.87943  0.55054  1.0000 0.0801920962
C   C223      1.0  0.95766  0.95134  0.57031  1.0000 -0.1887429654
C   C224      1.0  0.92813  0.01687  0.54783  1.0000 0.0801920962
C   C225      1.0  0.87136  0.00664  0.50613  1.0000 -0.1887429654
C   C226      1.0  0.96071  0.09649  0.56638  1.0000 0.071773034
C   C227      1.0  0.04365  0.12995  0.58771  1.0000 -0.1501515699
C   C228      1.0  0.07564  0.20916  0.59956  1.0000 -0.0917169199
C   C229      1.0  0.02596  0.25684  0.59004  1.0000 -0.0099857182
C   C230      1.0  0.94294  0.22226  0.57074  1.0000 -0.0979056026
C   C231      1.0  0.90971  0.14389  0.55862  1.0000 -0.1501515699
C   C232      1.0  0.96805  0.81455  0.57233  1.0000 0.071773034
C   C233      1.0  0.00074  0.80326  0.62149  1.0000 -0.1602686989
C   C234      1.0  0.03794  0.74466  0.64119  1.0000 -0.0979056026
C   C235      1.0  0.42654  0.72006  0.18648  1.0000 0.5953170993
C   C236      1.0  0.38444  0.62796  0.18660  1.0000 -0.0291571681
C   C237      1.0  0.40300  0.59180  0.15620  1.0000 -0.0979056026
C   C238      1.0  0.36410  0.50890  0.15430  1.0000 -0.1425781213
C   C239      1.0  0.30521  0.45719  0.18330  1.0000 0.071773034
C   C240      1.0  0.28692  0.49328  0.21350  1.0000 -0.1501515699
C   C241      1.0  0.32758  0.57742  0.21610  1.0000 -0.0979056026
C   C242      1.0  0.26670  0.36570  0.18200  1.0000 0.0889506477
C   C243      1.0  0.31750  0.32190  0.18370  1.0000 -0.1887429654
C   C244      1.0  0.28307  0.23593  0.18340  1.0000 0.0801920962
C   C245      1.0  0.19844  0.19456  0.18150  1.0000 -0.1887429654
C   C246      1.0  0.18095  0.32105  0.18110  1.0000 -0.1887429654
C   C247      1.0  0.13400  0.57380  0.82426  1.0000 0.0889506477
C   C248      1.0  0.16540  0.61580  0.86210  1.0000 -0.2140287124
C   C249      1.0  0.23110  0.69170  0.85956  1.0000 0.1717476882
C   C250      1.0  0.26680  0.73820  0.90170  1.0000 -0.2299326677
C   C251      1.0  0.35740  0.75580  0.91550  1.0000 -0.2160483338
C   C252      1.0  0.26230  0.72230  0.81709  1.0000 -0.1976289675
C   C253      1.0  0.22921  0.67559  0.78078  1.0000 0.1116981494
C   C254      1.0  0.51058  0.06282  0.20869  1.0000 0.5711148717
C   C255      1.0  0.45253  0.10907  0.20170  1.0000 -0.0223665685
C   C256      1.0  0.46439  0.18501  0.17080  1.0000 -0.0979056026
C   C257      1.0  0.41000  0.22520  0.16490  1.0000 -0.1501515699
C   C258      1.0  0.34102  0.19018  0.18780  1.0000 0.0801920962
C   C259      1.0  0.32815  0.11465  0.21750  1.0000 -0.1501515699
C   C260      1.0  0.38460  0.07460  0.22520  1.0000 -0.0917169199
C   C261      1.0  0.07583  0.62537  0.63514  1.0000 0.5840776004
C   C262      1.0  0.04146  0.69334  0.61334  1.0000 -0.0291571681
C   C263      1.0  0.00949  0.70331  0.56518  1.0000 -0.0979056026
C   C264      1.0  0.97457  0.76443  0.54456  1.0000 -0.1501515699
N   N1        1.0  0.83326  0.39794  0.21621  1.0000 -0.2360626086
N   N2        1.0  0.54100  0.15340  0.95061  1.0000 -0.1976289675
N   N3        1.0  0.60206  0.16674  0.71621  1.0000 -0.2360626086
N   N4        1.0  0.84660  0.45900  0.45061  1.0000 -0.1976289675
N   N5        1.0  0.39794  0.83326  0.28379  1.0000 -0.2360626086
N   N6        1.0  0.15340  0.54100  0.54939  1.0000 -0.1976289675
N   N7        1.0  0.16674  0.60206  0.78379  1.0000 -0.2360626086
N   N8        1.0  0.45900  0.84660  0.04939  1.0000 -0.1976289675
O   O1        1.0  0.25458  0.90448  0.82208  1.0000 -0.5511821024
O   O2        1.0  0.23178  0.02222  0.79297  1.0000 -0.5268636607
O   O3        1.0  0.43095  0.90665  0.81609  1.0000 -0.5511821024
O   O4        1.0  0.50313  0.00313  0.76241  1.0000 -0.560657274
O   O5        1.0  0.42291  0.12773  0.71143  1.0000 -0.5682094954
O   O6        1.0  0.32865  0.99829  0.72972  1.0000 -0.5511821024
O   O7        1.0  0.93647  0.42637  0.39094  1.0000 -0.560657274
O   O8        1.0  0.88582  0.37442  0.32266  1.0000 -0.560657274
O   O9        1.0  0.56444  0.25194  0.77616  1.0000 -0.5511821024
O   O10       1.0  0.55000  0.23770  0.85261  1.0000 -0.5758516304
O   O11       1.0  0.43809  0.08951  0.81318  1.0000 -0.8719829582
O   O12       1.0  0.98400  0.61440  0.40697  1.0000 -0.560657274
O   O13       1.0  0.86088  0.62476  0.38245  1.0000 -0.5359166227
O   O14       1.0  0.09552  0.74542  0.32208  1.0000 -0.5511821024
O   O15       1.0  0.97778  0.76822  0.29297  1.0000 -0.5268636607
O   O16       1.0  0.09335  0.56905  0.31609  1.0000 -0.5511821024
O   O17       1.0  0.99687  0.49687  0.26241  1.0000 -0.560657274
O   O18       1.0  0.87227  0.57709  0.21143  1.0000 -0.5682094954
O   O19       1.0  0.00171  0.67135  0.22972  1.0000 -0.5511821024
O   O20       1.0  0.57363  0.06353  0.89094  1.0000 -0.560657274
O   O21       1.0  0.62558  0.11418  0.82266  1.0000 -0.560657274
O   O22       1.0  0.74806  0.43556  0.27616  1.0000 -0.5511821024
O   O23       1.0  0.76230  0.45000  0.35261  1.0000 -0.5758516304
O   O24       1.0  0.91049  0.56191  0.31318  1.0000 -0.8719829582
O   O25       1.0  0.38560  0.01600  0.90697  1.0000 -0.560657274
O   O26       1.0  0.37524  0.13912  0.88245  1.0000 -0.5359166227
O   O27       1.0  0.90448  0.25458  0.67792  1.0000 -0.5511821024
O   O28       1.0  0.02222  0.23178  0.70703  1.0000 -0.5268636607
O   O29       1.0  0.90665  0.43095  0.68391  1.0000 -0.5511821024
O   O30       1.0  0.00313  0.50313  0.73759  1.0000 -0.560657274
O   O31       1.0  0.12773  0.42291  0.78857  1.0000 -0.5682094954
O   O32       1.0  0.99829  0.32865  0.77028  1.0000 -0.5511821024
O   O33       1.0  0.42637  0.93647  0.10906  1.0000 -0.560657274
O   O34       1.0  0.37442  0.88582  0.17734  1.0000 -0.560657274
O   O35       1.0  0.25194  0.56444  0.72384  1.0000 -0.5511821024
O   O36       1.0  0.23770  0.55000  0.64739  1.0000 -0.5758516304
O   O37       1.0  0.08951  0.43809  0.68682  1.0000 -0.8719829582
O   O38       1.0  0.61440  0.98400  0.09303  1.0000 -0.560657274
O   O39       1.0  0.62476  0.86088  0.11755  1.0000 -0.5359166227
O   O40       1.0  0.74542  0.09552  0.17792  1.0000 -0.5511821024
O   O41       1.0  0.76822  0.97778  0.20703  1.0000 -0.5268636607
O   O42       1.0  0.56905  0.09335  0.18391  1.0000 -0.5511821024
O   O43       1.0  0.49687  0.99687  0.23759  1.0000 -0.560657274
O   O44       1.0  0.57709  0.87227  0.28857  1.0000 -0.5682094954
O   O45       1.0  0.67135  0.00171  0.27028  1.0000 -0.5511821024
O   O46       1.0  0.06353  0.57363  0.60906  1.0000 -0.560657274
O   O47       1.0  0.11418  0.62558  0.67734  1.0000 -0.560657274
O   O48       1.0  0.43556  0.74806  0.22384  1.0000 -0.5511821024
O   O49       1.0  0.45000  0.76230  0.14739  1.0000 -0.5758516304
O   O50       1.0  0.56191  0.91049  0.18682  1.0000 -0.8719829582
O   O51       1.0  0.01600  0.38560  0.59303  1.0000 -0.560657274
O   O52       1.0  0.13912  0.37524  0.61755  1.0000 -0.5359166227
