# DDEC6 charges by PACMAN v1.1 (https://github.com/mtap-research/PACMAN-charge/)
data_2018[La][nan]3[ASR]1
_chemical_formula_sum              "La4 H36 C30 O24"
_cell_length_a       9.0304
_cell_length_b       9.8208
_cell_length_c       16.1928
_cell_angle_alpha    103.565
_cell_angle_beta     103.873
_cell_angle_gamma    98.589

_symmetry_space_group_name_H-M    "P 1"
_symmetry_Int_Tables_number       1

loop_
  _symmetry_equiv_pos_as_xyz
  'x, y, z'

loop_
  _atom_site_type_symbol
  _atom_site_label
  _atom_site_symmetry_multiplicity
  _atom_site_fract_x
  _atom_site_fract_y
  _atom_site_fract_z
  _atom_site_occupancy
  _atom_site_charge
La  La1       1.0  0.19289  0.95166  0.09802  1.0000 1.8444121765
La  La2       1.0  0.34751  0.92512  0.36470  1.0000 1.8763670611
La  La3       1.0  0.80711  0.04834  0.90198  1.0000 1.8444121765
La  La4       1.0  0.65249  0.07488  0.63530  1.0000 1.8763670611
H   H1        1.0  0.74590  0.94050  0.21390  1.0000 0.1469007569
H   H2        1.0  0.70260  0.97910  0.30540  1.0000 0.1228770452
H   H3        1.0  0.77250  0.22510  0.32150  1.0000 0.0922451776
H   H4        1.0  0.79500  0.19490  0.22410  1.0000 0.0999663497
H   H5        1.0  0.03840  0.25450  0.34290  1.0000 0.1289257007
H   H6        1.0  0.98400  0.10590  0.36260  1.0000 0.1289257007
H   H7        1.0  0.86750  0.52480  0.11230  1.0000 0.1390586185
H   H8        1.0  0.89430  0.55910  0.21710  1.0000 0.1289257007
H   H9        1.0  0.94150  0.32980  0.15980  1.0000 0.0804951365
H   H10       1.0  0.09710  0.43310  0.23010  1.0000 0.0999663497
H   H11       1.0  0.04480  0.39820  0.04340  1.0000 0.1228770452
H   H12       1.0  0.20790  0.46720  0.11890  1.0000 0.1469007569
H   H13       1.0  0.78130  0.73750  0.51010  1.0000 0.1289257007
H   H14       1.0  0.87240  0.85730  0.47760  1.0000 0.1390586185
H   H15       1.0  0.80920  0.68050  0.33410  1.0000 0.0922451776
H   H16       1.0  0.74900  0.56350  0.37960  1.0000 0.0922451776
H   H17       1.0  0.00930  0.63020  0.48500  1.0000 0.1228770452
H   H18       1.0  0.00010  0.54440  0.38640  1.0000 0.1289257007
H   H19       1.0  0.25410  0.05950  0.78610  1.0000 0.1469007569
H   H20       1.0  0.29740  0.02090  0.69460  1.0000 0.1228770452
H   H21       1.0  0.22750  0.77490  0.67850  1.0000 0.0922451776
H   H22       1.0  0.20500  0.80510  0.77590  1.0000 0.0999663497
H   H23       1.0  0.96160  0.74550  0.65710  1.0000 0.1289257007
H   H24       1.0  0.01600  0.89410  0.63740  1.0000 0.1289257007
H   H25       1.0  0.13250  0.47520  0.88770  1.0000 0.1390586185
H   H26       1.0  0.10570  0.44090  0.78290  1.0000 0.1289257007
H   H27       1.0  0.05850  0.67020  0.84020  1.0000 0.0804951365
H   H28       1.0  0.90290  0.56690  0.76990  1.0000 0.0999663497
H   H29       1.0  0.95520  0.60180  0.95660  1.0000 0.1228770452
H   H30       1.0  0.79210  0.53280  0.88110  1.0000 0.1469007569
H   H31       1.0  0.21870  0.26250  0.48990  1.0000 0.1289257007
H   H32       1.0  0.12760  0.14270  0.52240  1.0000 0.1390586185
H   H33       1.0  0.19080  0.31950  0.66590  1.0000 0.0922451776
H   H34       1.0  0.25100  0.43650  0.62040  1.0000 0.0922451776
H   H35       1.0  0.99070  0.36980  0.51500  1.0000 0.1228770452
H   H36       1.0  0.99990  0.45560  0.61360  1.0000 0.1289257007
C   C1        1.0  0.53350  0.99810  0.20079  1.0000 0.6510630088
C   C2        1.0  0.70130  0.00880  0.25094  1.0000 -0.3291016979
C   C3        1.0  0.80590  0.15870  0.27692  1.0000 -0.0912675069
C   C4        1.0  0.97710  0.15470  0.31526  1.0000 -0.3437300437
C   C5        1.0  0.05080  0.07960  0.24837  1.0000 0.6510630088
C   C6        1.0  0.06500  0.68160  0.18413  1.0000 0.6612901079
C   C7        1.0  0.94760  0.54510  0.16993  1.0000 -0.3291016979
C   C8        1.0  0.02320  0.41670  0.17089  1.0000 -0.1041912896
C   C9        1.0  0.11070  0.39220  0.10028  1.0000 -0.3437300437
C   C10       1.0  0.14960  0.24690  0.08847  1.0000 0.6510630088
C   C11       1.0  0.63520  0.81640  0.42479  1.0000 0.6510630088
C   C12       1.0  0.78560  0.77170  0.45775  1.0000 -0.3437300437
C   C13       1.0  0.82300  0.65540  0.39080  1.0000 -0.0912675069
C   C14       1.0  0.99040  0.63660  0.42337  1.0000 -0.3291016979
C   C15       1.0  0.11580  0.75500  0.42120  1.0000 0.6185760187
C   C16       1.0  0.46650  0.00190  0.79921  1.0000 0.6510630088
C   C17       1.0  0.29870  0.99120  0.74906  1.0000 -0.3291016979
C   C18       1.0  0.19410  0.84130  0.72308  1.0000 -0.0912675069
C   C19       1.0  0.02290  0.84530  0.68474  1.0000 -0.3437300437
C   C20       1.0  0.94920  0.92040  0.75163  1.0000 0.6510630088
C   C21       1.0  0.93500  0.31840  0.81587  1.0000 0.6612901079
C   C22       1.0  0.05240  0.45490  0.83007  1.0000 -0.3291016979
C   C23       1.0  0.97680  0.58330  0.82911  1.0000 -0.1041912896
C   C24       1.0  0.88930  0.60780  0.89972  1.0000 -0.3437300437
C   C25       1.0  0.85040  0.75310  0.91153  1.0000 0.6510630088
C   C26       1.0  0.36480  0.18360  0.57521  1.0000 0.6510630088
C   C27       1.0  0.21440  0.22830  0.54225  1.0000 -0.3437300437
C   C28       1.0  0.17700  0.34460  0.60920  1.0000 -0.0912675069
C   C29       1.0  0.00960  0.36340  0.57663  1.0000 -0.3291016979
C   C30       1.0  0.88420  0.24500  0.57880  1.0000 0.6185760187
O   O1        1.0  0.42338  0.93545  0.22470  1.0000 -0.6874920738
O   O2        1.0  0.50207  0.04528  0.13383  1.0000 -0.5710239721
O   O3        1.0  0.18387  0.05186  0.27612  1.0000 -0.6834537102
O   O4        1.0  0.98592  0.05113  0.16671  1.0000 -0.5476097775
O   O5        1.0  0.02940  0.75967  0.13365  1.0000 -0.6295677883
O   O6        1.0  0.19095  0.71002  0.24484  1.0000 -0.6097413016
O   O7        1.0  0.06254  0.14149  0.02510  1.0000 -0.6667824102
O   O8        1.0  0.26359  0.22660  0.14378  1.0000 -0.5768392993
O   O9        1.0  0.53987  0.75270  0.35026  1.0000 -0.5476097775
O   O10       1.0  0.60706  0.92491  0.47520  1.0000 -0.6955040408
O   O11       1.0  0.08188  0.85823  0.39271  1.0000 -0.5968256903
O   O12       1.0  0.25895  0.74344  0.44615  1.0000 -0.6295677883
O   O13       1.0  0.57662  0.06455  0.77530  1.0000 -0.6874920738
O   O14       1.0  0.49793  0.95472  0.86617  1.0000 -0.5710239721
O   O15       1.0  0.81613  0.94814  0.72388  1.0000 -0.6834537102
O   O16       1.0  0.01408  0.94887  0.83329  1.0000 -0.5476097775
O   O17       1.0  0.97060  0.24033  0.86635  1.0000 -0.6295677883
O   O18       1.0  0.80905  0.28998  0.75516  1.0000 -0.6097413016
O   O19       1.0  0.93746  0.85851  0.97490  1.0000 -0.6667824102
O   O20       1.0  0.73641  0.77340  0.85622  1.0000 -0.5768392993
O   O21       1.0  0.46013  0.24730  0.64974  1.0000 -0.5476097775
O   O22       1.0  0.39294  0.07509  0.52480  1.0000 -0.6955040408
O   O23       1.0  0.91812  0.14177  0.60729  1.0000 -0.5968256903
O   O24       1.0  0.74105  0.25656  0.55385  1.0000 -0.6295677883
