# DDEC6 charges by PACMAN v1.1 (https://github.com/mtap-research/PACMAN-charge/)
data_2018[CoFe][nan]3[ASR]1
_chemical_formula_sum              "Fe8 Co4 H120 C224 N16 O52"
_cell_length_a       25.6377
_cell_length_b       27.3535
_cell_length_c       27.4404
_cell_angle_alpha    90
_cell_angle_beta     90
_cell_angle_gamma    90

_symmetry_space_group_name_H-M    "P 1"
_symmetry_Int_Tables_number       1

loop_
  _symmetry_equiv_pos_as_xyz
  'x, y, z'

loop_
  _atom_site_type_symbol
  _atom_site_label
  _atom_site_symmetry_multiplicity
  _atom_site_fract_x
  _atom_site_fract_y
  _atom_site_fract_z
  _atom_site_occupancy
  _atom_site_charge
Fe  Fe1       1.0  0.64825  0.65667  0.75000  1.0000 1.1765233483
Fe  Fe2       1.0  0.69461  0.54527  0.75000  1.0000 1.2239334788
Fe  Fe3       1.0  0.14825  0.84333  0.25000  1.0000 1.1765233483
Fe  Fe4       1.0  0.19461  0.95473  0.25000  1.0000 1.2253754344
Fe  Fe5       1.0  0.35175  0.34333  0.25000  1.0000 1.1765233483
Fe  Fe6       1.0  0.30539  0.45473  0.25000  1.0000 1.2239334788
Fe  Fe7       1.0  0.85175  0.15667  0.75000  1.0000 1.1765233483
Fe  Fe8       1.0  0.80539  0.04527  0.75000  1.0000 1.2239334788
Co  Co1       1.0  0.56661  0.56489  0.75000  1.0000 1.1346434559
Co  Co2       1.0  0.06661  0.93511  0.25000  1.0000 1.1346434559
Co  Co3       1.0  0.43339  0.43511  0.25000  1.0000 1.1346434559
Co  Co4       1.0  0.93339  0.06489  0.75000  1.0000 1.1346434559
H   H1        1.0  0.43950  0.66020  0.49700  1.0000 0.2928687669
H   H2        1.0  0.45600  0.53840  0.37420  1.0000 0.1292726207
H   H3        1.0  0.46710  0.63180  0.64070  1.0000 0.1292726207
H   H4        1.0  0.22760  0.79720  0.37310  1.0000 0.1292726207
H   H5        1.0  0.30870  0.91780  0.36690  1.0000 0.1292726207
H   H6        1.0  0.46190  0.60240  0.42960  1.0000 0.1203357331
H   H7        1.0  0.28170  0.76850  0.43220  1.0000 0.1292726207
H   H8        1.0  0.31340  0.57660  0.33860  1.0000 0.1292726207
H   H9        1.0  0.57340  0.74020  0.64270  1.0000 0.1292726207
H   H10       1.0  0.42370  0.67010  0.57740  1.0000 0.1122896224
H   H11       1.0  0.52830  0.77870  0.57840  1.0000 0.1203357331
H   H12       1.0  0.36330  0.88770  0.42720  1.0000 0.1203357331
H   H13       1.0  0.31820  0.64740  0.38620  1.0000 0.1292726207
H   H14       1.0  0.43670  0.82310  0.56550  1.0000 0.1203357331
H   H15       1.0  0.38400  0.86100  0.51050  1.0000 0.1203357331
H   H16       1.0  0.93950  0.83980  0.50300  1.0000 0.2928687669
H   H17       1.0  0.95600  0.96160  0.62580  1.0000 0.1292726207
H   H18       1.0  0.96710  0.86820  0.35930  1.0000 0.1292726207
H   H19       1.0  0.72760  0.70280  0.62690  1.0000 0.1292726207
H   H20       1.0  0.80870  0.58220  0.63310  1.0000 0.1292726207
H   H21       1.0  0.96190  0.89760  0.57040  1.0000 0.1203357331
H   H22       1.0  0.78170  0.73150  0.56780  1.0000 0.1292726207
H   H23       1.0  0.81340  0.92340  0.66140  1.0000 0.1292726207
H   H24       1.0  0.07340  0.75980  0.35730  1.0000 0.1292726207
H   H25       1.0  0.92370  0.82990  0.42260  1.0000 0.1122896224
H   H26       1.0  0.02830  0.72130  0.42160  1.0000 0.1203357331
H   H27       1.0  0.86330  0.61230  0.57280  1.0000 0.1203357331
H   H28       1.0  0.81820  0.85260  0.61380  1.0000 0.1292726207
H   H29       1.0  0.93670  0.67690  0.43450  1.0000 0.1203357331
H   H30       1.0  0.88400  0.63900  0.48950  1.0000 0.1203357331
H   H31       1.0  0.56050  0.33980  0.99700  1.0000 0.2928687669
H   H32       1.0  0.54400  0.46160  0.87420  1.0000 0.1292726207
H   H33       1.0  0.53290  0.36820  0.14070  1.0000 0.1292726207
H   H34       1.0  0.77240  0.20280  0.87310  1.0000 0.1292726207
H   H35       1.0  0.69130  0.08220  0.86690  1.0000 0.1292726207
H   H36       1.0  0.53810  0.39760  0.92960  1.0000 0.1203357331
H   H37       1.0  0.71830  0.23150  0.93220  1.0000 0.1292726207
H   H38       1.0  0.68660  0.42340  0.83860  1.0000 0.1292726207
H   H39       1.0  0.42660  0.25980  0.14270  1.0000 0.1292726207
H   H40       1.0  0.57630  0.32990  0.07740  1.0000 0.1122896224
H   H41       1.0  0.47170  0.22130  0.07840  1.0000 0.1203357331
H   H42       1.0  0.63670  0.11230  0.92720  1.0000 0.1203357331
H   H43       1.0  0.68180  0.35260  0.88620  1.0000 0.1292726207
H   H44       1.0  0.56330  0.17690  0.06550  1.0000 0.1203357331
H   H45       1.0  0.61600  0.13900  0.01050  1.0000 0.1203357331
H   H46       1.0  0.06050  0.16020  0.00300  1.0000 0.2928687669
H   H47       1.0  0.04400  0.03840  0.12580  1.0000 0.1292726207
H   H48       1.0  0.03290  0.13180  0.85930  1.0000 0.1292726207
H   H49       1.0  0.27240  0.29720  0.12690  1.0000 0.1292726207
H   H50       1.0  0.19130  0.41780  0.13310  1.0000 0.1292726207
H   H51       1.0  0.03810  0.10240  0.07040  1.0000 0.1203357331
H   H52       1.0  0.21830  0.26850  0.06780  1.0000 0.1292726207
H   H53       1.0  0.18660  0.07660  0.16140  1.0000 0.1292726207
H   H54       1.0  0.92660  0.24020  0.85730  1.0000 0.1292726207
H   H55       1.0  0.07630  0.17010  0.92260  1.0000 0.1122896224
H   H56       1.0  0.97170  0.27870  0.92160  1.0000 0.1203357331
H   H57       1.0  0.13670  0.38770  0.07280  1.0000 0.1203357331
H   H58       1.0  0.18180  0.14740  0.11380  1.0000 0.1292726207
H   H59       1.0  0.06330  0.32310  0.93450  1.0000 0.1203357331
H   H60       1.0  0.11600  0.36100  0.98950  1.0000 0.1203357331
H   H61       1.0  0.56050  0.33980  0.50300  1.0000 0.2928687669
H   H62       1.0  0.54400  0.46160  0.62580  1.0000 0.1292726207
H   H63       1.0  0.53290  0.36820  0.35930  1.0000 0.1292726207
H   H64       1.0  0.77240  0.20280  0.62690  1.0000 0.1292726207
H   H65       1.0  0.69130  0.08220  0.63310  1.0000 0.1292726207
H   H66       1.0  0.53810  0.39760  0.57040  1.0000 0.1203357331
H   H67       1.0  0.71830  0.23150  0.56780  1.0000 0.1292726207
H   H68       1.0  0.68660  0.42340  0.66140  1.0000 0.1292726207
H   H69       1.0  0.42660  0.25980  0.35730  1.0000 0.1292726207
H   H70       1.0  0.57630  0.32990  0.42260  1.0000 0.1122896224
H   H71       1.0  0.47170  0.22130  0.42160  1.0000 0.1203357331
H   H72       1.0  0.63670  0.11230  0.57280  1.0000 0.1203357331
H   H73       1.0  0.68180  0.35260  0.61380  1.0000 0.1292726207
H   H74       1.0  0.56330  0.17690  0.43450  1.0000 0.1203357331
H   H75       1.0  0.61600  0.13900  0.48950  1.0000 0.1203357331
H   H76       1.0  0.06050  0.16020  0.49700  1.0000 0.2928687669
H   H77       1.0  0.04400  0.03840  0.37420  1.0000 0.1292726207
H   H78       1.0  0.03290  0.13180  0.64070  1.0000 0.1292726207
H   H79       1.0  0.27240  0.29720  0.37310  1.0000 0.1292726207
H   H80       1.0  0.19130  0.41780  0.36690  1.0000 0.1292726207
H   H81       1.0  0.03810  0.10240  0.42960  1.0000 0.1203357331
H   H82       1.0  0.21830  0.26850  0.43220  1.0000 0.1292726207
H   H83       1.0  0.18660  0.07660  0.33860  1.0000 0.1292726207
H   H84       1.0  0.92660  0.24020  0.64270  1.0000 0.1292726207
H   H85       1.0  0.07630  0.17010  0.57740  1.0000 0.1122896224
H   H86       1.0  0.97170  0.27870  0.57840  1.0000 0.1203357331
H   H87       1.0  0.13670  0.38770  0.42720  1.0000 0.1203357331
H   H88       1.0  0.18180  0.14740  0.38620  1.0000 0.1292726207
H   H89       1.0  0.06330  0.32310  0.56550  1.0000 0.1203357331
H   H90       1.0  0.11600  0.36100  0.51050  1.0000 0.1203357331
H   H91       1.0  0.43950  0.66020  0.00300  1.0000 0.2928687669
H   H92       1.0  0.45600  0.53840  0.12580  1.0000 0.1292726207
H   H93       1.0  0.46710  0.63180  0.85930  1.0000 0.1292726207
H   H94       1.0  0.22760  0.79720  0.12690  1.0000 0.1292726207
H   H95       1.0  0.30870  0.91780  0.13310  1.0000 0.1292726207
H   H96       1.0  0.46190  0.60240  0.07040  1.0000 0.1203357331
H   H97       1.0  0.28170  0.76850  0.06780  1.0000 0.1292726207
H   H98       1.0  0.31340  0.57660  0.16140  1.0000 0.1292726207
H   H99       1.0  0.57340  0.74020  0.85730  1.0000 0.1292726207
H   H100      1.0  0.42370  0.67010  0.92260  1.0000 0.1122896224
H   H101      1.0  0.52830  0.77870  0.92160  1.0000 0.1203357331
H   H102      1.0  0.36330  0.88770  0.07280  1.0000 0.1203357331
H   H103      1.0  0.31820  0.64740  0.11380  1.0000 0.1292726207
H   H104      1.0  0.43670  0.82310  0.93450  1.0000 0.1203357331
H   H105      1.0  0.38400  0.86100  0.98950  1.0000 0.1203357331
H   H106      1.0  0.93950  0.83980  0.99700  1.0000 0.2928687669
H   H107      1.0  0.95600  0.96160  0.87420  1.0000 0.1292726207
H   H108      1.0  0.96710  0.86820  0.14070  1.0000 0.1292726207
H   H109      1.0  0.72760  0.70280  0.87310  1.0000 0.1292726207
H   H110      1.0  0.80870  0.58220  0.86690  1.0000 0.1292726207
H   H111      1.0  0.96190  0.89760  0.92960  1.0000 0.1203357331
H   H112      1.0  0.78170  0.73150  0.93220  1.0000 0.1292726207
H   H113      1.0  0.81340  0.92340  0.83860  1.0000 0.1292726207
H   H114      1.0  0.07340  0.75980  0.14270  1.0000 0.1292726207
H   H115      1.0  0.92370  0.82990  0.07740  1.0000 0.1122896224
H   H116      1.0  0.02830  0.72130  0.07840  1.0000 0.1203357331
H   H117      1.0  0.86330  0.61230  0.92720  1.0000 0.1203357331
H   H118      1.0  0.81820  0.85260  0.88620  1.0000 0.1292726207
H   H119      1.0  0.93670  0.67690  0.06550  1.0000 0.1203357331
H   H120      1.0  0.88400  0.63900  0.01050  1.0000 0.1203357331
C   C1        1.0  0.37910  0.50942  0.31662  1.0000 0.6036431771
C   C2        1.0  0.38530  0.55120  0.35023  1.0000 -0.0469122301
C   C3        1.0  0.55670  0.65500  0.68470  1.0000 0.6036431771
C   C4        1.0  0.26500  0.86110  0.35980  1.0000 -0.0688138672
C   C5        1.0  0.23430  0.87780  0.32010  1.0000 0.5871132817
C   C6        1.0  0.52630  0.68150  0.64680  1.0000 -0.0424429518
C   C7        1.0  0.42800  0.55980  0.37720  1.0000 -0.0688138672
C   C8        1.0  0.47980  0.66100  0.62820  1.0000 -0.0814584197
C   C9        1.0  0.39590  0.67880  0.44000  1.0000 0.2928687669
C   C10       1.0  0.25630  0.81580  0.38240  1.0000 -0.0814584197
C   C11       1.0  0.30310  0.88620  0.37830  1.0000 -0.0688138672
C   C12       1.0  0.43270  0.59910  0.40960  1.0000 -0.1610791679
C   C13       1.0  0.46910  0.72930  0.57410  1.0000 0.0816102233
C   C14       1.0  0.28910  0.79850  0.41780  1.0000 -0.1519204896
C   C15       1.0  0.33180  0.82320  0.43250  1.0000 0.0715784189
C   C16       1.0  0.39240  0.63280  0.41100  1.0000 0.0375812801
C   C17       1.0  0.34410  0.58330  0.35540  1.0000 -0.0851079915
C   C18       1.0  0.54370  0.72590  0.62960  1.0000 -0.0851079915
C   C19       1.0  0.45310  0.68480  0.59100  1.0000 -0.1683466919
C   C20       1.0  0.38370  0.75230  0.46340  1.0000 0.0816102233
C   C21       1.0  0.51570  0.74970  0.59160  1.0000 -0.1610791679
C   C22       1.0  0.41480  0.73000  0.49740  1.0000 0.0626191106
C   C23       1.0  0.33690  0.86780  0.41510  1.0000 -0.1610791679
C   C24       1.0  0.34600  0.62550  0.38450  1.0000 -0.1339532751
C   C25       1.0  0.36750  0.80200  0.46790  1.0000 0.0375812801
C   C26       1.0  0.42250  0.80450  0.54040  1.0000 -0.1519204896
C   C27       1.0  0.39050  0.82770  0.50710  1.0000 -0.1683466919
C   C28       1.0  0.43470  0.75490  0.53860  1.0000 -0.0057974735
C   C29       1.0  0.87910  0.99058  0.68338  1.0000 0.6036431771
C   C30       1.0  0.88530  0.94880  0.64977  1.0000 -0.0469122301
C   C31       1.0  0.05670  0.84500  0.31530  1.0000 0.6036431771
C   C32       1.0  0.76500  0.63890  0.64020  1.0000 -0.0688138672
C   C33       1.0  0.73430  0.62220  0.67990  1.0000 0.5871132817
C   C34       1.0  0.02630  0.81850  0.35320  1.0000 -0.0424429518
C   C35       1.0  0.92800  0.94020  0.62280  1.0000 -0.0688138672
C   C36       1.0  0.97980  0.83900  0.37180  1.0000 -0.0814584197
C   C37       1.0  0.89590  0.82120  0.56000  1.0000 0.2928687669
C   C38       1.0  0.75630  0.68420  0.61760  1.0000 -0.0814584197
C   C39       1.0  0.80310  0.61380  0.62170  1.0000 -0.0688138672
C   C40       1.0  0.93270  0.90090  0.59040  1.0000 -0.1610791679
C   C41       1.0  0.96910  0.77070  0.42590  1.0000 0.0816102233
C   C42       1.0  0.78910  0.70150  0.58220  1.0000 -0.1519204896
C   C43       1.0  0.83180  0.67680  0.56750  1.0000 0.0715784189
C   C44       1.0  0.89240  0.86720  0.58900  1.0000 0.0375812801
C   C45       1.0  0.84410  0.91670  0.64460  1.0000 -0.0851079915
C   C46       1.0  0.04370  0.77410  0.37040  1.0000 -0.0851079915
C   C47       1.0  0.95310  0.81520  0.40900  1.0000 -0.1683466919
C   C48       1.0  0.88370  0.74770  0.53660  1.0000 0.085848039
C   C49       1.0  0.01570  0.75030  0.40840  1.0000 -0.1610791679
C   C50       1.0  0.91480  0.77000  0.50260  1.0000 0.0626191106
C   C51       1.0  0.83690  0.63220  0.58490  1.0000 -0.1519204896
C   C52       1.0  0.84600  0.87450  0.61550  1.0000 -0.1339532751
C   C53       1.0  0.86750  0.69800  0.53210  1.0000 0.0375812801
C   C54       1.0  0.92250  0.69550  0.45960  1.0000 -0.1519204896
C   C55       1.0  0.89050  0.67230  0.49290  1.0000 -0.1683466919
C   C56       1.0  0.93470  0.74510  0.46140  1.0000 -0.0057974735
C   C57       1.0  0.62090  0.49058  0.81662  1.0000 0.6036431771
C   C58       1.0  0.61470  0.44880  0.85023  1.0000 -0.0469122301
C   C59       1.0  0.44330  0.34500  0.18470  1.0000 0.6036431771
C   C60       1.0  0.73500  0.13890  0.85980  1.0000 -0.0688138672
C   C61       1.0  0.76570  0.12220  0.82010  1.0000 0.5871132817
C   C62       1.0  0.47370  0.31850  0.14680  1.0000 -0.0424429518
C   C63       1.0  0.57200  0.44020  0.87720  1.0000 -0.0688138672
C   C64       1.0  0.52020  0.33900  0.12820  1.0000 -0.0814584197
C   C65       1.0  0.60410  0.32120  0.94000  1.0000 0.2928687669
C   C66       1.0  0.74370  0.18420  0.88240  1.0000 -0.0814584197
C   C67       1.0  0.69690  0.11380  0.87830  1.0000 -0.0688138672
C   C68       1.0  0.56730  0.40090  0.90960  1.0000 -0.1610791679
C   C69       1.0  0.53090  0.27070  0.07410  1.0000 0.0816102233
C   C70       1.0  0.71090  0.20150  0.91780  1.0000 -0.1519204896
C   C71       1.0  0.66820  0.17680  0.93250  1.0000 0.0715784189
C   C72       1.0  0.60760  0.36720  0.91100  1.0000 0.0375812801
C   C73       1.0  0.65590  0.41670  0.85540  1.0000 -0.0851079915
C   C74       1.0  0.45630  0.27410  0.12960  1.0000 -0.0851079915
C   C75       1.0  0.54690  0.31520  0.09100  1.0000 -0.1683466919
C   C76       1.0  0.61630  0.24770  0.96340  1.0000 0.085848039
C   C77       1.0  0.48430  0.25030  0.09160  1.0000 -0.1610791679
C   C78       1.0  0.58520  0.27000  0.99740  1.0000 0.0626191106
C   C79       1.0  0.66310  0.13220  0.91510  1.0000 -0.1519204896
C   C80       1.0  0.65400  0.37450  0.88450  1.0000 -0.1339532751
C   C81       1.0  0.63250  0.19800  0.96790  1.0000 0.0375812801
C   C82       1.0  0.57750  0.19550  0.04040  1.0000 -0.1519204896
C   C83       1.0  0.60950  0.17230  0.00710  1.0000 -0.1683466919
C   C84       1.0  0.56530  0.24510  0.03860  1.0000 -0.0057974735
C   C85       1.0  0.12090  0.00942  0.18338  1.0000 0.6036431771
C   C86       1.0  0.11470  0.05120  0.14977  1.0000 -0.0469122301
C   C87       1.0  0.94330  0.15500  0.81530  1.0000 0.6036431771
C   C88       1.0  0.23500  0.36110  0.14020  1.0000 -0.0688138672
C   C89       1.0  0.26570  0.37780  0.17990  1.0000 0.5871132817
C   C90       1.0  0.97370  0.18150  0.85320  1.0000 -0.0424429518
C   C91       1.0  0.07200  0.05980  0.12280  1.0000 -0.0688138672
C   C92       1.0  0.02020  0.16100  0.87180  1.0000 -0.0814584197
C   C93       1.0  0.10410  0.17880  0.06000  1.0000 0.2928687669
C   C94       1.0  0.24370  0.31580  0.11760  1.0000 -0.0814584197
C   C95       1.0  0.19690  0.38620  0.12170  1.0000 -0.0688138672
C   C96       1.0  0.06730  0.09910  0.09040  1.0000 -0.1610791679
C   C97       1.0  0.03090  0.22930  0.92590  1.0000 0.0816102233
C   C98       1.0  0.21090  0.29850  0.08220  1.0000 -0.1519204896
C   C99       1.0  0.16820  0.32320  0.06750  1.0000 0.0715784189
C   C100      1.0  0.10760  0.13280  0.08900  1.0000 0.0375812801
C   C101      1.0  0.15590  0.08330  0.14460  1.0000 -0.0851079915
C   C102      1.0  0.95630  0.22590  0.87040  1.0000 -0.0851079915
C   C103      1.0  0.04690  0.18480  0.90900  1.0000 -0.1683466919
C   C104      1.0  0.11630  0.25230  0.03660  1.0000 0.0816102233
C   C105      1.0  0.98430  0.24970  0.90840  1.0000 -0.1610791679
C   C106      1.0  0.08520  0.23000  0.00260  1.0000 0.0626191106
C   C107      1.0  0.16310  0.36780  0.08490  1.0000 -0.1610791679
C   C108      1.0  0.15400  0.12550  0.11550  1.0000 -0.1339532751
C   C109      1.0  0.13250  0.30200  0.03210  1.0000 0.0375812801
C   C110      1.0  0.07750  0.30450  0.95960  1.0000 -0.1519204896
C   C111      1.0  0.10950  0.32770  0.99290  1.0000 -0.1683466919
C   C112      1.0  0.06530  0.25490  0.96140  1.0000 -0.0057974735
C   C113      1.0  0.62090  0.49058  0.68338  1.0000 0.6036431771
C   C114      1.0  0.61470  0.44880  0.64977  1.0000 -0.0469122301
C   C115      1.0  0.44330  0.34500  0.31530  1.0000 0.6036431771
C   C116      1.0  0.73500  0.13890  0.64020  1.0000 -0.0688138672
C   C117      1.0  0.76570  0.12220  0.67990  1.0000 0.5871132817
C   C118      1.0  0.47370  0.31850  0.35320  1.0000 -0.0424429518
C   C119      1.0  0.57200  0.44020  0.62280  1.0000 -0.0688138672
C   C120      1.0  0.52020  0.33900  0.37180  1.0000 -0.0814584197
C   C121      1.0  0.60410  0.32120  0.56000  1.0000 0.2928687669
C   C122      1.0  0.74370  0.18420  0.61760  1.0000 -0.0814584197
C   C123      1.0  0.69690  0.11380  0.62170  1.0000 -0.0688138672
C   C124      1.0  0.56730  0.40090  0.59040  1.0000 -0.1610791679
C   C125      1.0  0.53090  0.27070  0.42590  1.0000 0.0816102233
C   C126      1.0  0.71090  0.20150  0.58220  1.0000 -0.1519204896
C   C127      1.0  0.66820  0.17680  0.56750  1.0000 0.0715784189
C   C128      1.0  0.60760  0.36720  0.58900  1.0000 0.0375812801
C   C129      1.0  0.65590  0.41670  0.64460  1.0000 -0.0851079915
C   C130      1.0  0.45630  0.27410  0.37040  1.0000 -0.0851079915
C   C131      1.0  0.54690  0.31520  0.40900  1.0000 -0.1683466919
C   C132      1.0  0.61630  0.24770  0.53660  1.0000 0.085848039
C   C133      1.0  0.48430  0.25030  0.40840  1.0000 -0.1610791679
C   C134      1.0  0.58520  0.27000  0.50260  1.0000 0.0626191106
C   C135      1.0  0.66310  0.13220  0.58490  1.0000 -0.1519204896
C   C136      1.0  0.65400  0.37450  0.61550  1.0000 -0.1339532751
C   C137      1.0  0.63250  0.19800  0.53210  1.0000 0.0375812801
C   C138      1.0  0.57750  0.19550  0.45960  1.0000 -0.1519204896
C   C139      1.0  0.60950  0.17230  0.49290  1.0000 -0.1683466919
C   C140      1.0  0.56530  0.24510  0.46140  1.0000 -0.0057974735
C   C141      1.0  0.12090  0.00942  0.31662  1.0000 0.6036431771
C   C142      1.0  0.11470  0.05120  0.35023  1.0000 -0.0469122301
C   C143      1.0  0.94330  0.15500  0.68470  1.0000 0.6036431771
C   C144      1.0  0.23500  0.36110  0.35980  1.0000 -0.0688138672
C   C145      1.0  0.26570  0.37780  0.32010  1.0000 0.5871132817
C   C146      1.0  0.97370  0.18150  0.64680  1.0000 -0.0424429518
C   C147      1.0  0.07200  0.05980  0.37720  1.0000 -0.0688138672
C   C148      1.0  0.02020  0.16100  0.62820  1.0000 -0.0814584197
C   C149      1.0  0.10410  0.17880  0.44000  1.0000 0.2928687669
C   C150      1.0  0.24370  0.31580  0.38240  1.0000 -0.0814584197
C   C151      1.0  0.19690  0.38620  0.37830  1.0000 -0.0688138672
C   C152      1.0  0.06730  0.09910  0.40960  1.0000 -0.1610791679
C   C153      1.0  0.03090  0.22930  0.57410  1.0000 0.0816102233
C   C154      1.0  0.21090  0.29850  0.41780  1.0000 -0.1519204896
C   C155      1.0  0.16820  0.32320  0.43250  1.0000 0.0715784189
C   C156      1.0  0.10760  0.13280  0.41100  1.0000 0.0375812801
C   C157      1.0  0.15590  0.08330  0.35540  1.0000 -0.0851079915
C   C158      1.0  0.95630  0.22590  0.62960  1.0000 -0.0851079915
C   C159      1.0  0.04690  0.18480  0.59100  1.0000 -0.1683466919
C   C160      1.0  0.11630  0.25230  0.46340  1.0000 0.0816102233
C   C161      1.0  0.98430  0.24970  0.59160  1.0000 -0.1610791679
C   C162      1.0  0.08520  0.23000  0.49740  1.0000 0.0626191106
C   C163      1.0  0.16310  0.36780  0.41510  1.0000 -0.1610791679
C   C164      1.0  0.15400  0.12550  0.38450  1.0000 -0.1339532751
C   C165      1.0  0.13250  0.30200  0.46790  1.0000 0.0375812801
C   C166      1.0  0.07750  0.30450  0.54040  1.0000 -0.1519204896
C   C167      1.0  0.10950  0.32770  0.50710  1.0000 -0.1683466919
C   C168      1.0  0.06530  0.25490  0.53860  1.0000 -0.0057974735
C   C169      1.0  0.37910  0.50942  0.18338  1.0000 0.6036431771
C   C170      1.0  0.38530  0.55120  0.14977  1.0000 -0.0469122301
C   C171      1.0  0.55670  0.65500  0.81530  1.0000 0.6036431771
C   C172      1.0  0.26500  0.86110  0.14020  1.0000 -0.0688138672
C   C173      1.0  0.23430  0.87780  0.17990  1.0000 0.5871132817
C   C174      1.0  0.52630  0.68150  0.85320  1.0000 -0.0424429518
C   C175      1.0  0.42800  0.55980  0.12280  1.0000 -0.0688138672
C   C176      1.0  0.47980  0.66100  0.87180  1.0000 -0.0814584197
C   C177      1.0  0.39590  0.67880  0.06000  1.0000 0.2928687669
C   C178      1.0  0.25630  0.81580  0.11760  1.0000 -0.0814584197
C   C179      1.0  0.30310  0.88620  0.12170  1.0000 -0.0688138672
C   C180      1.0  0.43270  0.59910  0.09040  1.0000 -0.1610791679
C   C181      1.0  0.46910  0.72930  0.92590  1.0000 0.0816102233
C   C182      1.0  0.28910  0.79850  0.08220  1.0000 -0.1519204896
C   C183      1.0  0.33180  0.82320  0.06750  1.0000 0.0715784189
C   C184      1.0  0.39240  0.63280  0.08900  1.0000 0.0375812801
C   C185      1.0  0.34410  0.58330  0.14460  1.0000 -0.0851079915
C   C186      1.0  0.54370  0.72590  0.87040  1.0000 -0.0814584197
C   C187      1.0  0.45310  0.68480  0.90900  1.0000 -0.1683466919
C   C188      1.0  0.38370  0.75230  0.03660  1.0000 0.0816102233
C   C189      1.0  0.51570  0.74970  0.90840  1.0000 -0.1610791679
C   C190      1.0  0.41480  0.73000  0.00260  1.0000 0.0626191106
C   C191      1.0  0.33690  0.86780  0.08490  1.0000 -0.1610791679
C   C192      1.0  0.34600  0.62550  0.11550  1.0000 -0.1339532751
C   C193      1.0  0.36750  0.80200  0.03210  1.0000 0.0375812801
C   C194      1.0  0.42250  0.80450  0.95960  1.0000 -0.1519204896
C   C195      1.0  0.39050  0.82770  0.99290  1.0000 -0.1683466919
C   C196      1.0  0.43470  0.75490  0.96140  1.0000 -0.0057974735
C   C197      1.0  0.87910  0.99058  0.81662  1.0000 0.6036431771
C   C198      1.0  0.88530  0.94880  0.85023  1.0000 -0.0469122301
C   C199      1.0  0.05670  0.84500  0.18470  1.0000 0.6036431771
C   C200      1.0  0.76500  0.63890  0.85980  1.0000 -0.0688138672
C   C201      1.0  0.73430  0.62220  0.82010  1.0000 0.5871132817
C   C202      1.0  0.02630  0.81850  0.14680  1.0000 -0.0424429518
C   C203      1.0  0.92800  0.94020  0.87720  1.0000 -0.0688138672
C   C204      1.0  0.97980  0.83900  0.12820  1.0000 -0.0814584197
C   C205      1.0  0.89590  0.82120  0.94000  1.0000 0.2928687669
C   C206      1.0  0.75630  0.68420  0.88240  1.0000 -0.0814584197
C   C207      1.0  0.80310  0.61380  0.87830  1.0000 -0.0688138672
C   C208      1.0  0.93270  0.90090  0.90960  1.0000 -0.1610791679
C   C209      1.0  0.96910  0.77070  0.07410  1.0000 0.0816102233
C   C210      1.0  0.78910  0.70150  0.91780  1.0000 -0.1519204896
C   C211      1.0  0.83180  0.67680  0.93250  1.0000 0.0715784189
C   C212      1.0  0.89240  0.86720  0.91100  1.0000 0.0375812801
C   C213      1.0  0.84410  0.91670  0.85540  1.0000 -0.0851079915
C   C214      1.0  0.04370  0.77410  0.12960  1.0000 -0.0851079915
C   C215      1.0  0.95310  0.81520  0.09100  1.0000 -0.1683466919
C   C216      1.0  0.88370  0.74770  0.96340  1.0000 0.085848039
C   C217      1.0  0.01570  0.75030  0.09160  1.0000 -0.1610791679
C   C218      1.0  0.91480  0.77000  0.99740  1.0000 0.0626191106
C   C219      1.0  0.83690  0.63220  0.91510  1.0000 -0.1519204896
C   C220      1.0  0.84600  0.87450  0.88450  1.0000 -0.1339532751
C   C221      1.0  0.86750  0.69800  0.96790  1.0000 0.0375812801
C   C222      1.0  0.92250  0.69550  0.04040  1.0000 -0.1519204896
C   C223      1.0  0.89050  0.67230  0.00710  1.0000 -0.1683466919
C   C224      1.0  0.93470  0.74510  0.03860  1.0000 -0.0057974735
N   N1        1.0  0.42200  0.68267  0.48240  1.0000 -0.2991705258
N   N2        1.0  0.37100  0.71842  0.42840  1.0000 -0.3638203476
N   N3        1.0  0.92200  0.81733  0.51760  1.0000 -0.2991705258
N   N4        1.0  0.87100  0.78158  0.57160  1.0000 -0.3638203476
N   N5        1.0  0.57800  0.31733  0.98240  1.0000 -0.2991705258
N   N6        1.0  0.62900  0.28158  0.92840  1.0000 -0.3638203476
N   N7        1.0  0.07800  0.18267  0.01760  1.0000 -0.2991705258
N   N8        1.0  0.12900  0.21842  0.07160  1.0000 -0.3653566235
N   N9        1.0  0.57800  0.31733  0.51760  1.0000 -0.2991705258
N   N10       1.0  0.62900  0.28158  0.57160  1.0000 -0.3638203476
N   N11       1.0  0.07800  0.18267  0.48240  1.0000 -0.2991705258
N   N12       1.0  0.12900  0.21842  0.42840  1.0000 -0.3653566235
N   N13       1.0  0.42200  0.68267  0.01760  1.0000 -0.2991705258
N   N14       1.0  0.37100  0.71842  0.07160  1.0000 -0.3653566235
N   N15       1.0  0.92200  0.81733  0.98240  1.0000 -0.2991705258
N   N16       1.0  0.87100  0.78158  0.92840  1.0000 -0.3638203476
O   O1        1.0  0.54051  0.61225  0.69722  1.0000 -0.5712615643
O   O2        1.0  0.33452  0.49907  0.30154  1.0000 -0.53880083
O   O3        1.0  0.42016  0.48764  0.30408  1.0000 -0.5478778277
O   O4        1.0  0.23616  0.92023  0.30332  1.0000 -0.5239584837
O   O5        1.0  0.59650  0.67606  0.69994  1.0000 -0.525823826
O   O6        1.0  0.20276  0.84543  0.30227  1.0000 -0.5478778277
O   O7        1.0  0.04051  0.88775  0.30278  1.0000 -0.5712615643
O   O8        1.0  0.83452  0.00093  0.69846  1.0000 -0.53880083
O   O9        1.0  0.92016  0.01236  0.69592  1.0000 -0.5478778277
O   O10       1.0  0.73616  0.57977  0.69668  1.0000 -0.5239584837
O   O11       1.0  0.09650  0.82394  0.30006  1.0000 -0.525823826
O   O12       1.0  0.70276  0.65457  0.69773  1.0000 -0.5478778277
O   O13       1.0  0.45949  0.38775  0.19722  1.0000 -0.5712615643
O   O14       1.0  0.66548  0.50093  0.80154  1.0000 -0.53880083
O   O15       1.0  0.57984  0.51236  0.80408  1.0000 -0.5478778277
O   O16       1.0  0.76384  0.07977  0.80332  1.0000 -0.5239584837
O   O17       1.0  0.40350  0.32394  0.19994  1.0000 -0.525823826
O   O18       1.0  0.79724  0.15457  0.80227  1.0000 -0.5478778277
O   O19       1.0  0.95949  0.11225  0.80278  1.0000 -0.5712615643
O   O20       1.0  0.16548  0.99907  0.19846  1.0000 -0.53880083
O   O21       1.0  0.07984  0.98764  0.19592  1.0000 -0.5478778277
O   O22       1.0  0.26384  0.42023  0.19668  1.0000 -0.5239584837
O   O23       1.0  0.90350  0.17606  0.80006  1.0000 -0.525823826
O   O24       1.0  0.29724  0.34543  0.19773  1.0000 -0.5478778277
O   O25       1.0  0.45949  0.38775  0.30278  1.0000 -0.5712615643
O   O26       1.0  0.66548  0.50093  0.69846  1.0000 -0.53880083
O   O27       1.0  0.57984  0.51236  0.69592  1.0000 -0.5478778277
O   O28       1.0  0.76384  0.07977  0.69668  1.0000 -0.5239584837
O   O29       1.0  0.40350  0.32394  0.30006  1.0000 -0.525823826
O   O30       1.0  0.79724  0.15457  0.69773  1.0000 -0.5478778277
O   O31       1.0  0.95949  0.11225  0.69722  1.0000 -0.5712615643
O   O32       1.0  0.16548  0.99907  0.30154  1.0000 -0.53880083
O   O33       1.0  0.07984  0.98764  0.30408  1.0000 -0.5478778277
O   O34       1.0  0.26384  0.42023  0.30332  1.0000 -0.5239584837
O   O35       1.0  0.90350  0.17606  0.69994  1.0000 -0.525823826
O   O36       1.0  0.29724  0.34543  0.30227  1.0000 -0.5478778277
O   O37       1.0  0.54051  0.61225  0.80278  1.0000 -0.5712615643
O   O38       1.0  0.33452  0.49907  0.19846  1.0000 -0.53880083
O   O39       1.0  0.42016  0.48764  0.19592  1.0000 -0.5478778277
O   O40       1.0  0.23616  0.92023  0.19668  1.0000 -0.5239584837
O   O41       1.0  0.59650  0.67606  0.80006  1.0000 -0.525823826
O   O42       1.0  0.20276  0.84543  0.19773  1.0000 -0.5478778277
O   O43       1.0  0.04051  0.88775  0.19722  1.0000 -0.5712615643
O   O44       1.0  0.83452  0.00093  0.80154  1.0000 -0.53880083
O   O45       1.0  0.92016  0.01236  0.80408  1.0000 -0.5478778277
O   O46       1.0  0.73616  0.57977  0.80332  1.0000 -0.5239584837
O   O47       1.0  0.09650  0.82394  0.19994  1.0000 -0.525823826
O   O48       1.0  0.70276  0.65457  0.80227  1.0000 -0.5478778277
O   O49       1.0  0.63657  0.58904  0.75000  1.0000 -0.9282644633
O   O50       1.0  0.13657  0.91096  0.25000  1.0000 -0.9282644633
O   O51       1.0  0.36343  0.41096  0.25000  1.0000 -0.9282644633
O   O52       1.0  0.86343  0.08904  0.75000  1.0000 -0.9282644633
