# DDEC6 charges by PACMAN v1.1 (https://github.com/mtap-research/PACMAN-charge/)
data_2018[Cu][hcb]2[ASR]1
_chemical_formula_sum              "Cu6 H32 C42 N12 O14"
_cell_length_a       10.6498
_cell_length_b       12.5501
_cell_length_c       16.9471
_cell_angle_alpha    99.125
_cell_angle_beta     97.698
_cell_angle_gamma    98.722

_symmetry_space_group_name_H-M    "P 1"
_symmetry_Int_Tables_number       1

loop_
  _symmetry_equiv_pos_as_xyz
  'x, y, z'

loop_
  _atom_site_type_symbol
  _atom_site_label
  _atom_site_symmetry_multiplicity
  _atom_site_fract_x
  _atom_site_fract_y
  _atom_site_fract_z
  _atom_site_occupancy
  _atom_site_charge
Cu  Cu1       1.0  0.59753  0.25984  0.77175  1.0000 0.7690128168
Cu  Cu2       1.0  0.33103  0.26032  0.64186  1.0000 0.7690128168
Cu  Cu3       1.0  0.31930  0.08906  0.77502  1.0000 0.7624336562
Cu  Cu4       1.0  0.40247  0.74016  0.22825  1.0000 0.7690128168
Cu  Cu5       1.0  0.66897  0.73968  0.35814  1.0000 0.7690128168
Cu  Cu6       1.0  0.68070  0.91094  0.22498  1.0000 0.7624336562
H   H1        1.0  0.44470  0.96450  0.90830  1.0000 0.1209764961
H   H2        1.0  0.67680  0.00770  0.96560  1.0000 0.1384610846
H   H3        1.0  0.77020  0.16180  0.90420  1.0000 0.1305773914
H   H4        1.0  0.77950  0.44030  0.70130  1.0000 0.1305773914
H   H5        1.0  0.69210  0.53270  0.59300  1.0000 0.1384610846
H   H6        1.0  0.46120  0.44910  0.55510  1.0000 0.1209764961
H   H7        1.0  0.04490  0.16430  0.54510  1.0000 0.1209764961
H   H8        1.0  0.89460  0.03140  0.59640  1.0000 0.1384610846
H   H9        1.0  0.01780  0.99080  0.71850  1.0000 0.1209764961
H   H10       1.0  0.03730  0.18660  0.00420  1.0000 0.1209764961
H   H11       1.0  0.08800  0.88650  0.91070  1.0000 0.1305773914
H   H12       1.0  0.98870  0.34300  0.90480  1.0000 0.1209764961
H   H13       1.0  0.17930  0.41840  0.99110  1.0000 0.1384610846
H   H14       1.0  0.03310  0.55810  0.63820  1.0000 0.1384610846
H   H15       1.0  0.10260  0.36400  0.44410  1.0000 0.1209764961
H   H16       1.0  0.45100  0.12900  0.68050  1.0000 0.3432696543
H   H17       1.0  0.55530  0.03550  0.09170  1.0000 0.1209764961
H   H18       1.0  0.32320  0.99230  0.03440  1.0000 0.1384610846
H   H19       1.0  0.22980  0.83820  0.09580  1.0000 0.1305773914
H   H20       1.0  0.22050  0.55970  0.29870  1.0000 0.1305773914
H   H21       1.0  0.30790  0.46730  0.40700  1.0000 0.1384610846
H   H22       1.0  0.53880  0.55090  0.44490  1.0000 0.1209764961
H   H23       1.0  0.95510  0.83570  0.45490  1.0000 0.1209764961
H   H24       1.0  0.10540  0.96860  0.40360  1.0000 0.1384610846
H   H25       1.0  0.98220  0.00920  0.28150  1.0000 0.1209764961
H   H26       1.0  0.96270  0.81340  0.99580  1.0000 0.1209764961
H   H27       1.0  0.91200  0.11350  0.08930  1.0000 0.1305773914
H   H28       1.0  0.01130  0.65700  0.09520  1.0000 0.1209764961
H   H29       1.0  0.82070  0.58160  0.00890  1.0000 0.1384610846
H   H30       1.0  0.96690  0.44190  0.36180  1.0000 0.1305773914
H   H31       1.0  0.89740  0.63600  0.55590  1.0000 0.1209764961
H   H32       1.0  0.54900  0.87100  0.31950  1.0000 0.3432696543
C   C1        1.0  0.50470  0.01890  0.89610  1.0000 0.0223446918
C   C2        1.0  0.63350  0.04220  0.92840  1.0000 -0.2010089078
C   C3        1.0  0.68440  0.12750  0.89390  1.0000 0.0223446918
C   C4        1.0  0.69470  0.42600  0.67490  1.0000 0.0308859802
C   C5        1.0  0.64750  0.47790  0.61490  1.0000 -0.2090393969
C   C6        1.0  0.51960  0.43080  0.59440  1.0000 0.0223446918
C   C7        1.0  0.06420  0.13370  0.59080  1.0000 0.0223446918
C   C8        1.0  0.98000  0.06010  0.61860  1.0000 -0.2179921636
C   C9        1.0  0.04930  0.03840  0.68610  1.0000 0.0223446918
C   C10       1.0  0.15860  0.09410  0.89235  1.0000 0.547540792
C   C11       1.0  0.07580  0.04500  0.94785  1.0000 -0.0183905841
C   C12       1.0  0.02250  0.11110  0.00211  1.0000 -0.1087451968
C   C13       1.0  0.05250  0.93270  0.94658  1.0000 -0.1087451968
C   C14       1.0  0.75970  0.40570  0.89273  1.0000 0.547540792
C   C15       1.0  0.88460  0.45440  0.94775  1.0000 -0.0183905841
C   C16       1.0  0.99290  0.40600  0.94290  1.0000 -0.1005359708
C   C17       1.0  0.10720  0.45140  0.99478  1.0000 -0.1005359708
C   C18       1.0  0.17290  0.40510  0.60480  1.0000 0.5449856601
C   C19       1.0  0.08300  0.45360  0.54977  1.0000 -0.0097040113
C   C20       1.0  0.02010  0.53460  0.58237  1.0000 -0.1005359708
C   C21       1.0  0.06170  0.41890  0.46690  1.0000 -0.1087451968
C   C22       1.0  0.49530  0.98110  0.10390  1.0000 0.0223446918
C   C23       1.0  0.36650  0.95780  0.07160  1.0000 -0.2010089078
C   C24       1.0  0.31560  0.87250  0.10610  1.0000 0.0223446918
C   C25       1.0  0.30530  0.57400  0.32510  1.0000 0.0308859802
C   C26       1.0  0.35250  0.52210  0.38510  1.0000 -0.2090393969
C   C27       1.0  0.48040  0.56920  0.40560  1.0000 0.0223446918
C   C28       1.0  0.93580  0.86630  0.40920  1.0000 0.0223446918
C   C29       1.0  0.02000  0.93990  0.38140  1.0000 -0.2179921636
C   C30       1.0  0.95070  0.96160  0.31390  1.0000 0.0223446918
C   C31       1.0  0.84140  0.90590  0.10765  1.0000 0.547540792
C   C32       1.0  0.92420  0.95500  0.05215  1.0000 -0.0183905841
C   C33       1.0  0.97750  0.88890  0.99789  1.0000 -0.1087451968
C   C34       1.0  0.94750  0.06730  0.05342  1.0000 -0.1087451968
C   C35       1.0  0.24030  0.59430  0.10727  1.0000 0.547540792
C   C36       1.0  0.11540  0.54560  0.05225  1.0000 -0.0183905841
C   C37       1.0  0.00710  0.59400  0.05710  1.0000 -0.1005359708
C   C38       1.0  0.89280  0.54860  0.00522  1.0000 -0.1005359708
C   C39       1.0  0.82710  0.59490  0.39520  1.0000 0.5449856601
C   C40       1.0  0.91700  0.54640  0.45023  1.0000 -0.0097040113
C   C41       1.0  0.97990  0.46540  0.41763  1.0000 -0.1005359708
C   C42       1.0  0.93830  0.58110  0.53310  1.0000 -0.1087451968
N   N1        1.0  0.47890  0.08567  0.84472  1.0000 -0.1897313328
N   N2        1.0  0.59060  0.15370  0.84305  1.0000 -0.1822471724
N   N3        1.0  0.60150  0.35198  0.68996  1.0000 -0.1897313328
N   N4        1.0  0.49170  0.35492  0.63939  1.0000 -0.1897313328
N   N5        1.0  0.17740  0.15460  0.63886  1.0000 -0.1822471724
N   N6        1.0  0.16820  0.09500  0.69862  1.0000 -0.1897313328
N   N7        1.0  0.52110  0.91433  0.15528  1.0000 -0.1897313328
N   N8        1.0  0.40940  0.84630  0.15695  1.0000 -0.1822471724
N   N9        1.0  0.39850  0.64802  0.31004  1.0000 -0.1897313328
N   N10       1.0  0.50830  0.64508  0.36061  1.0000 -0.1897313328
N   N11       1.0  0.82260  0.84540  0.36114  1.0000 -0.1822471724
N   N12       1.0  0.83180  0.90500  0.30138  1.0000 -0.1897313328
O   O1        1.0  0.42813  0.17794  0.71165  1.0000 -0.7491808453
O   O2        1.0  0.21320  0.02802  0.84981  1.0000 -0.54004423
O   O3        1.0  0.16990  0.19382  0.89276  1.0000 -0.5194114962
O   O4        1.0  0.76615  0.33602  0.83047  1.0000 -0.54004423
O   O5        1.0  0.65810  0.43304  0.90958  1.0000 -0.5194114962
O   O6        1.0  0.23460  0.33781  0.56970  1.0000 -0.54004423
O   O7        1.0  0.18210  0.43240  0.67836  1.0000 -0.5194114962
O   O8        1.0  0.57187  0.82206  0.28835  1.0000 -0.7491808453
O   O9        1.0  0.78680  0.97198  0.15019  1.0000 -0.54004423
O   O10       1.0  0.83010  0.80618  0.10724  1.0000 -0.5194114962
O   O11       1.0  0.23385  0.66398  0.16953  1.0000 -0.54004423
O   O12       1.0  0.34190  0.56696  0.09042  1.0000 -0.5194114962
O   O13       1.0  0.76540  0.66219  0.43030  1.0000 -0.54004423
O   O14       1.0  0.81790  0.56760  0.32164  1.0000 -0.5194114962
