# DDEC6 charges by PACMAN v1.1 (https://github.com/mtap-research/PACMAN-charge/)
data_2018[NiCo][scu]3[ASR]1
_chemical_formula_sum              "Co4 Ni2 P8 H48 C88 N8 O24"
_cell_length_a       21.98
_cell_length_b       21.98
_cell_length_c       8.96
_cell_angle_alpha    90
_cell_angle_beta     90
_cell_angle_gamma    90

_symmetry_space_group_name_H-M    "P 1"
_symmetry_Int_Tables_number       1

loop_
  _symmetry_equiv_pos_as_xyz
  'x, y, z'

loop_
  _atom_site_type_symbol
  _atom_site_label
  _atom_site_symmetry_multiplicity
  _atom_site_fract_x
  _atom_site_fract_y
  _atom_site_fract_z
  _atom_site_occupancy
  _atom_site_charge
Co  Co1       1.0  0.00000  0.50000  0.92840  1.0000 1.2831896735
Co  Co2       1.0  0.50000  0.00000  0.07160  1.0000 1.2831896735
Co  Co3       1.0  0.00000  0.50000  0.42840  1.0000 1.2831896735
Co  Co4       1.0  0.50000  0.00000  0.57160  1.0000 1.2831896735
Ni  Ni1       1.0  0.50000  0.50000  0.00000  1.0000 0.3768750918
Ni  Ni2       1.0  0.50000  0.50000  0.50000  1.0000 0.3768750918
P   P1        1.0  0.92300  0.58100  0.18290  1.0000 1.3162715924
P   P2        1.0  0.07700  0.41900  0.18290  1.0000 1.3162715924
P   P3        1.0  0.41900  0.92300  0.81710  1.0000 1.3162715924
P   P4        1.0  0.58100  0.07700  0.81710  1.0000 1.3162715924
P   P5        1.0  0.92300  0.41900  0.68290  1.0000 1.3162715924
P   P6        1.0  0.07700  0.58100  0.68290  1.0000 1.3162715924
P   P7        1.0  0.41900  0.07700  0.31710  1.0000 1.3162715924
P   P8        1.0  0.58100  0.92300  0.31710  1.0000 1.3162715924
H   H1        1.0  0.57250  0.71120  0.87160  1.0000 0.1386897904
H   H2        1.0  0.66940  0.65650  0.94480  1.0000 0.1386897904
H   H3        1.0  0.75350  0.49650  0.89870  1.0000 0.1217353763
H   H4        1.0  0.85610  0.51080  0.96510  1.0000 0.1518928153
H   H5        1.0  0.80850  0.63020  0.28230  1.0000 0.134971906
H   H6        1.0  0.70480  0.61270  0.23830  1.0000 0.1217353763
H   H7        1.0  0.42750  0.28880  0.87160  1.0000 0.1386897904
H   H8        1.0  0.33060  0.34350  0.94480  1.0000 0.1386897904
H   H9        1.0  0.24650  0.50350  0.89870  1.0000 0.1217353763
H   H10       1.0  0.14390  0.48920  0.96510  1.0000 0.1518928153
H   H11       1.0  0.19150  0.36980  0.28230  1.0000 0.134971906
H   H12       1.0  0.29520  0.38730  0.23830  1.0000 0.1217353763
H   H13       1.0  0.28880  0.57250  0.12840  1.0000 0.1386897904
H   H14       1.0  0.34350  0.66940  0.05520  1.0000 0.1386897904
H   H15       1.0  0.50350  0.75350  0.10130  1.0000 0.1217353763
H   H16       1.0  0.48920  0.85610  0.03490  1.0000 0.1518928153
H   H17       1.0  0.36980  0.80850  0.71770  1.0000 0.134971906
H   H18       1.0  0.38730  0.70480  0.76170  1.0000 0.1217353763
H   H19       1.0  0.71120  0.42750  0.12840  1.0000 0.1386897904
H   H20       1.0  0.65650  0.33060  0.05520  1.0000 0.1386897904
H   H21       1.0  0.49650  0.24650  0.10130  1.0000 0.1217353763
H   H22       1.0  0.51080  0.14390  0.03490  1.0000 0.1518928153
H   H23       1.0  0.63020  0.19150  0.71770  1.0000 0.134971906
H   H24       1.0  0.61270  0.29520  0.76170  1.0000 0.1217353763
H   H25       1.0  0.57250  0.28880  0.37160  1.0000 0.1386897904
H   H26       1.0  0.66940  0.34350  0.44480  1.0000 0.1386897904
H   H27       1.0  0.75350  0.50350  0.39870  1.0000 0.1217353763
H   H28       1.0  0.85610  0.48920  0.46510  1.0000 0.1518928153
H   H29       1.0  0.80850  0.36980  0.78230  1.0000 0.134971906
H   H30       1.0  0.70480  0.38730  0.73830  1.0000 0.1217353763
H   H31       1.0  0.42750  0.71120  0.37160  1.0000 0.1386897904
H   H32       1.0  0.33060  0.65650  0.44480  1.0000 0.1386897904
H   H33       1.0  0.24650  0.49650  0.39870  1.0000 0.1217353763
H   H34       1.0  0.14390  0.51080  0.46510  1.0000 0.1518928153
H   H35       1.0  0.19150  0.63020  0.78230  1.0000 0.134971906
H   H36       1.0  0.29520  0.61270  0.73830  1.0000 0.1217353763
H   H37       1.0  0.28880  0.42750  0.62840  1.0000 0.1386897904
H   H38       1.0  0.34350  0.33060  0.55520  1.0000 0.1386897904
H   H39       1.0  0.50350  0.24650  0.60130  1.0000 0.1217353763
H   H40       1.0  0.48920  0.14390  0.53490  1.0000 0.1518928153
H   H41       1.0  0.36980  0.19150  0.21770  1.0000 0.134971906
H   H42       1.0  0.38730  0.29520  0.26170  1.0000 0.1217353763
H   H43       1.0  0.71120  0.57250  0.62840  1.0000 0.1386897904
H   H44       1.0  0.65650  0.66940  0.55520  1.0000 0.1386897904
H   H45       1.0  0.49650  0.75350  0.60130  1.0000 0.1217353763
H   H46       1.0  0.51080  0.85610  0.53490  1.0000 0.1518928153
H   H47       1.0  0.63020  0.80850  0.21770  1.0000 0.134971906
H   H48       1.0  0.61270  0.70480  0.26170  1.0000 0.1217353763
C   C1        1.0  0.52830  0.63210  0.95300  1.0000 0.1820804966
C   C2        1.0  0.57600  0.67170  0.91390  1.0000 -0.1772434371
C   C3        1.0  0.62910  0.64120  0.95010  1.0000 -0.1728955074
C   C4        1.0  0.61010  0.58070  0.99800  1.0000 0.1860853029
C   C5        1.0  0.65150  0.53560  0.04550  1.0000 -0.0300953421
C   C6        1.0  0.71680  0.54950  0.07020  1.0000 0.0982896635
C   C7        1.0  0.76380  0.52160  0.98120  1.0000 -0.1249881643
C   C8        1.0  0.82530  0.53210  0.01820  1.0000 -0.0621924582
C   C9        1.0  0.84200  0.57190  0.12810  1.0000 -0.1466879896
C   C10       1.0  0.79700  0.60180  0.20760  1.0000 -0.0704802531
C   C11       1.0  0.73470  0.59160  0.18160  1.0000 -0.1466879896
C   C12       1.0  0.47170  0.36790  0.95300  1.0000 0.1820804966
C   C13       1.0  0.42400  0.32830  0.91390  1.0000 -0.1772434371
C   C14       1.0  0.37090  0.35880  0.95010  1.0000 -0.1728955074
C   C15       1.0  0.38990  0.41930  0.99800  1.0000 0.1860853029
C   C16       1.0  0.34850  0.46440  0.04550  1.0000 -0.0300953421
C   C17       1.0  0.28320  0.45050  0.07020  1.0000 0.0982896635
C   C18       1.0  0.23620  0.47840  0.98120  1.0000 -0.1249881643
C   C19       1.0  0.17470  0.46790  0.01820  1.0000 -0.0621924582
C   C20       1.0  0.15800  0.42810  0.12810  1.0000 -0.1466879896
C   C21       1.0  0.20300  0.39820  0.20760  1.0000 -0.0704802531
C   C22       1.0  0.26530  0.40840  0.18160  1.0000 -0.1466879896
C   C23       1.0  0.36790  0.52830  0.04700  1.0000 0.1820804966
C   C24       1.0  0.32830  0.57600  0.08610  1.0000 -0.1772434371
C   C25       1.0  0.35880  0.62910  0.04990  1.0000 -0.1728955074
C   C26       1.0  0.41930  0.61010  0.00200  1.0000 0.1860853029
C   C27       1.0  0.46440  0.65150  0.95450  1.0000 -0.0300953421
C   C28       1.0  0.45050  0.71680  0.92980  1.0000 0.0982896635
C   C29       1.0  0.47840  0.76380  0.01880  1.0000 -0.1249881643
C   C30       1.0  0.46790  0.82530  0.98180  1.0000 -0.0621924582
C   C31       1.0  0.42810  0.84200  0.87190  1.0000 -0.1466879896
C   C32       1.0  0.39820  0.79700  0.79240  1.0000 -0.0704802531
C   C33       1.0  0.40840  0.73470  0.81840  1.0000 -0.1466879896
C   C34       1.0  0.63210  0.47170  0.04700  1.0000 0.1820804966
C   C35       1.0  0.67170  0.42400  0.08610  1.0000 -0.1772434371
C   C36       1.0  0.64120  0.37090  0.04990  1.0000 -0.1728955074
C   C37       1.0  0.58070  0.38990  0.00200  1.0000 0.1860853029
C   C38       1.0  0.53560  0.34850  0.95450  1.0000 -0.0300953421
C   C39       1.0  0.54950  0.28320  0.92980  1.0000 0.0982896635
C   C40       1.0  0.52160  0.23620  0.01880  1.0000 -0.1249881643
C   C41       1.0  0.53210  0.17470  0.98180  1.0000 -0.0621924582
C   C42       1.0  0.57190  0.15800  0.87190  1.0000 -0.1466879896
C   C43       1.0  0.60180  0.20300  0.79240  1.0000 -0.0704802531
C   C44       1.0  0.59160  0.26530  0.81840  1.0000 -0.1466879896
C   C45       1.0  0.52830  0.36790  0.45300  1.0000 0.1820804966
C   C46       1.0  0.57600  0.32830  0.41390  1.0000 -0.1772434371
C   C47       1.0  0.62910  0.35880  0.45010  1.0000 -0.1728955074
C   C48       1.0  0.61010  0.41930  0.49800  1.0000 0.1860853029
C   C49       1.0  0.65150  0.46440  0.54550  1.0000 -0.0300953421
C   C50       1.0  0.71680  0.45050  0.57020  1.0000 0.0982896635
C   C51       1.0  0.76380  0.47840  0.48120  1.0000 -0.1249881643
C   C52       1.0  0.82530  0.46790  0.51820  1.0000 -0.0621924582
C   C53       1.0  0.84200  0.42810  0.62810  1.0000 -0.1466879896
C   C54       1.0  0.79700  0.39820  0.70760  1.0000 -0.0704802531
C   C55       1.0  0.73470  0.40840  0.68160  1.0000 -0.1466879896
C   C56       1.0  0.47170  0.63210  0.45300  1.0000 0.1820804966
C   C57       1.0  0.42400  0.67170  0.41390  1.0000 -0.1772434371
C   C58       1.0  0.37090  0.64120  0.45010  1.0000 -0.1728955074
C   C59       1.0  0.38990  0.58070  0.49800  1.0000 0.1860853029
C   C60       1.0  0.34850  0.53560  0.54550  1.0000 -0.0300953421
C   C61       1.0  0.28320  0.54950  0.57020  1.0000 0.0982896635
C   C62       1.0  0.23620  0.52160  0.48120  1.0000 -0.1249881643
C   C63       1.0  0.17470  0.53210  0.51820  1.0000 -0.0621924582
C   C64       1.0  0.15800  0.57190  0.62810  1.0000 -0.1466879896
C   C65       1.0  0.20300  0.60180  0.70760  1.0000 -0.0704802531
C   C66       1.0  0.26530  0.59160  0.68160  1.0000 -0.1466879896
C   C67       1.0  0.36790  0.47170  0.54700  1.0000 0.1820804966
C   C68       1.0  0.32830  0.42400  0.58610  1.0000 -0.1772434371
C   C69       1.0  0.35880  0.37090  0.54990  1.0000 -0.1728955074
C   C70       1.0  0.41930  0.38990  0.50200  1.0000 0.1860853029
C   C71       1.0  0.46440  0.34850  0.45450  1.0000 -0.0300953421
C   C72       1.0  0.45050  0.28320  0.42980  1.0000 0.0982896635
C   C73       1.0  0.47840  0.23620  0.51880  1.0000 -0.1249881643
C   C74       1.0  0.46790  0.17470  0.48180  1.0000 -0.0621924582
C   C75       1.0  0.42810  0.15800  0.37190  1.0000 -0.1466879896
C   C76       1.0  0.39820  0.20300  0.29240  1.0000 -0.0704802531
C   C77       1.0  0.40840  0.26530  0.31840  1.0000 -0.1466879896
C   C78       1.0  0.63210  0.52830  0.54700  1.0000 0.1820804966
C   C79       1.0  0.67170  0.57600  0.58610  1.0000 -0.1772434371
C   C80       1.0  0.64120  0.62910  0.54990  1.0000 -0.1728955074
C   C81       1.0  0.58070  0.61010  0.50200  1.0000 0.1860853029
C   C82       1.0  0.53560  0.65150  0.45450  1.0000 -0.0300953421
C   C83       1.0  0.54950  0.71680  0.42980  1.0000 0.0982896635
C   C84       1.0  0.52160  0.76380  0.51880  1.0000 -0.1249881643
C   C85       1.0  0.53210  0.82530  0.48180  1.0000 -0.0621924582
C   C86       1.0  0.57190  0.84200  0.37190  1.0000 -0.1466879896
C   C87       1.0  0.60180  0.79700  0.29240  1.0000 -0.0704802531
C   C88       1.0  0.59160  0.73470  0.31840  1.0000 -0.1466879896
N   N1        1.0  0.54780  0.57440  0.98950  1.0000 -0.2965928944
N   N2        1.0  0.45220  0.42560  0.98950  1.0000 -0.2965928944
N   N3        1.0  0.42560  0.54780  0.01050  1.0000 -0.2965928944
N   N4        1.0  0.57440  0.45220  0.01050  1.0000 -0.2965928944
N   N5        1.0  0.54780  0.42560  0.48950  1.0000 -0.2965928944
N   N6        1.0  0.45220  0.57440  0.48950  1.0000 -0.2965928944
N   N7        1.0  0.42560  0.45220  0.51050  1.0000 -0.2965928944
N   N8        1.0  0.57440  0.54780  0.51050  1.0000 -0.2965928944
O   O1        1.0  0.96220  0.56540  0.03420  1.0000 -0.7552030491
O   O2        1.0  0.93470  0.53300  0.31140  1.0000 -0.7734717535
O   O3        1.0  0.93390  0.64540  0.23400  1.0000 -0.5699408459
O   O4        1.0  0.03780  0.43460  0.03420  1.0000 -0.7552030491
O   O5        1.0  0.06530  0.46700  0.31140  1.0000 -0.7734717535
O   O6        1.0  0.06610  0.35460  0.23400  1.0000 -0.5699408459
O   O7        1.0  0.43460  0.96220  0.96580  1.0000 -0.7552030491
O   O8        1.0  0.46700  0.93470  0.68860  1.0000 -0.7734717535
O   O9        1.0  0.35460  0.93390  0.76600  1.0000 -0.5699408459
O   O10       1.0  0.56540  0.03780  0.96580  1.0000 -0.7543071913
O   O11       1.0  0.53300  0.06530  0.68860  1.0000 -0.7734717535
O   O12       1.0  0.64540  0.06610  0.76600  1.0000 -0.5699408459
O   O13       1.0  0.96220  0.43460  0.53420  1.0000 -0.7543071913
O   O14       1.0  0.93470  0.46700  0.81140  1.0000 -0.7734717535
O   O15       1.0  0.93390  0.35460  0.73400  1.0000 -0.5699408459
O   O16       1.0  0.03780  0.56540  0.53420  1.0000 -0.7552030491
O   O17       1.0  0.06530  0.53300  0.81140  1.0000 -0.7734717535
O   O18       1.0  0.06610  0.64540  0.73400  1.0000 -0.5699408459
O   O19       1.0  0.43460  0.03780  0.46580  1.0000 -0.7552030491
O   O20       1.0  0.46700  0.06530  0.18860  1.0000 -0.7734717535
O   O21       1.0  0.35460  0.06610  0.26600  1.0000 -0.5699408459
O   O22       1.0  0.56540  0.96220  0.46580  1.0000 -0.7552030491
O   O23       1.0  0.53300  0.93470  0.18860  1.0000 -0.7734717535
O   O24       1.0  0.64540  0.93390  0.26600  1.0000 -0.5699408459
