# DDEC6 charges by PACMAN v1.1 (https://github.com/mtap-research/PACMAN-charge/)
data_2018[Cd][nan]3[ASR]1
_chemical_formula_sum              "Cd20 H208 C208 N24 O80"
_cell_length_a       20.566
_cell_length_b       20.566
_cell_length_c       16.547
_cell_angle_alpha    90
_cell_angle_beta     90
_cell_angle_gamma    90

_symmetry_space_group_name_H-M    "P 1"
_symmetry_Int_Tables_number       1

loop_
  _symmetry_equiv_pos_as_xyz
  'x, y, z'

loop_
  _atom_site_type_symbol
  _atom_site_label
  _atom_site_symmetry_multiplicity
  _atom_site_fract_x
  _atom_site_fract_y
  _atom_site_fract_z
  _atom_site_occupancy
  _atom_site_charge
Cd  Cd1       1.0  0.98034  0.41061  0.97644  1.0000 0.8452916836
Cd  Cd2       1.0  0.48313  0.21725  0.20249  1.0000 1.0303077644
Cd  Cd3       1.0  0.01966  0.58939  0.97644  1.0000 0.8452916836
Cd  Cd4       1.0  0.51687  0.78275  0.20249  1.0000 1.0303077644
Cd  Cd5       1.0  0.91061  0.51966  0.47644  1.0000 0.8452916836
Cd  Cd6       1.0  0.71725  0.01687  0.70249  1.0000 1.0303077644
Cd  Cd7       1.0  0.08939  0.48034  0.47644  1.0000 0.8452916836
Cd  Cd8       1.0  0.28275  0.98313  0.70249  1.0000 1.0303077644
Cd  Cd9       1.0  0.51966  0.08939  0.52356  1.0000 0.8452916836
Cd  Cd10      1.0  0.01687  0.28275  0.29751  1.0000 1.0303077644
Cd  Cd11      1.0  0.48034  0.91061  0.52356  1.0000 0.8452916836
Cd  Cd12      1.0  0.98313  0.71725  0.29751  1.0000 1.0303077644
Cd  Cd13      1.0  0.58939  0.98034  0.02356  1.0000 0.8452916836
Cd  Cd14      1.0  0.78275  0.48313  0.79751  1.0000 1.0303077644
Cd  Cd15      1.0  0.41061  0.01966  0.02356  1.0000 0.8452916836
Cd  Cd16      1.0  0.21725  0.51687  0.79751  1.0000 1.0303077644
Cd  Cd17      1.0  0.00000  0.50000  0.72871  1.0000 0.9809821343
Cd  Cd18      1.0  0.00000  0.50000  0.22871  1.0000 0.9809821343
Cd  Cd19      1.0  0.50000  0.00000  0.77129  1.0000 0.9809821343
Cd  Cd20      1.0  0.50000  0.00000  0.27129  1.0000 0.9809821343
H   H1        1.0  0.84800  0.26680  0.02520  1.0000 0.1200019878
H   H2        1.0  0.84400  0.31490  0.94920  1.0000 0.1097872585
H   H3        1.0  0.91300  0.22790  0.91660  1.0000 0.1200019878
H   H4        1.0  0.95650  0.24130  0.99510  1.0000 0.1097872585
H   H5        1.0  0.03550  0.23320  0.88250  1.0000 0.1097872585
H   H6        1.0  0.05840  0.30170  0.84660  1.0000 0.1032783959
H   H7        1.0  0.12670  0.27340  0.95450  1.0000 0.1200019878
H   H8        1.0  0.06560  0.26500  0.01350  1.0000 0.1032783959
H   H9        1.0  0.85860  0.43530  0.09280  1.0000 0.1200019878
H   H10       1.0  0.82500  0.41650  0.00900  1.0000 0.1200019878
H   H11       1.0  0.73360  0.34400  0.00500  1.0000 0.1097872585
H   H12       1.0  0.64520  0.29720  0.07180  1.0000 0.1200019878
H   H13       1.0  0.72130  0.34940  0.28650  1.0000 0.1097872585
H   H14       1.0  0.81360  0.38940  0.22010  1.0000 0.1200019878
H   H15       1.0  0.10980  0.41420  0.08960  1.0000 0.1284866882
H   H16       1.0  0.07870  0.34560  0.11220  1.0000 0.1032783959
H   H17       1.0  0.14970  0.24870  0.12440  1.0000 0.1200019878
H   H18       1.0  0.25100  0.21030  0.16460  1.0000 0.1097872585
H   H19       1.0  0.32940  0.38510  0.11340  1.0000 0.1200019878
H   H20       1.0  0.22730  0.42470  0.07520  1.0000 0.1284866882
H   H21       1.0  0.89040  0.31200  0.15500  1.0000 0.139467051
H   H22       1.0  0.95420  0.29170  0.10560  1.0000 0.1284866882
H   H23       1.0  0.95230  0.28220  0.78900  1.0000 0.139467051
H   H24       1.0  0.89520  0.32320  0.83090  1.0000 0.1463643986
H   H25       1.0  0.17470  0.38910  0.94620  1.0000 0.139467051
H   H26       1.0  0.11970  0.38290  0.87830  1.0000 0.139467051
H   H27       1.0  0.15200  0.73320  0.02520  1.0000 0.1200019878
H   H28       1.0  0.15600  0.68510  0.94920  1.0000 0.1097872585
H   H29       1.0  0.08700  0.77210  0.91660  1.0000 0.1200019878
H   H30       1.0  0.04350  0.75870  0.99510  1.0000 0.1097872585
H   H31       1.0  0.96450  0.76680  0.88250  1.0000 0.1097872585
H   H32       1.0  0.94160  0.69830  0.84660  1.0000 0.1032783959
H   H33       1.0  0.87330  0.72660  0.95450  1.0000 0.1200019878
H   H34       1.0  0.93440  0.73500  0.01350  1.0000 0.1032783959
H   H35       1.0  0.14140  0.56470  0.09280  1.0000 0.1200019878
H   H36       1.0  0.17500  0.58350  0.00900  1.0000 0.1200019878
H   H37       1.0  0.26640  0.65600  0.00500  1.0000 0.1097872585
H   H38       1.0  0.35480  0.70280  0.07180  1.0000 0.1200019878
H   H39       1.0  0.27870  0.65060  0.28650  1.0000 0.1097872585
H   H40       1.0  0.18640  0.61060  0.22010  1.0000 0.1200019878
H   H41       1.0  0.89020  0.58580  0.08960  1.0000 0.1284866882
H   H42       1.0  0.92130  0.65440  0.11220  1.0000 0.1032783959
H   H43       1.0  0.85030  0.75130  0.12440  1.0000 0.1200019878
H   H44       1.0  0.74900  0.78970  0.16460  1.0000 0.1097872585
H   H45       1.0  0.67060  0.61490  0.11340  1.0000 0.1200019878
H   H46       1.0  0.77270  0.57530  0.07520  1.0000 0.1284866882
H   H47       1.0  0.10960  0.68800  0.15500  1.0000 0.139467051
H   H48       1.0  0.04580  0.70830  0.10560  1.0000 0.1284866882
H   H49       1.0  0.04770  0.71780  0.78900  1.0000 0.139467051
H   H50       1.0  0.10480  0.67680  0.83090  1.0000 0.1463643986
H   H51       1.0  0.82530  0.61090  0.94620  1.0000 0.139467051
H   H52       1.0  0.88030  0.61710  0.87830  1.0000 0.139467051
H   H53       1.0  0.76680  0.65200  0.52520  1.0000 0.1200019878
H   H54       1.0  0.81490  0.65600  0.44920  1.0000 0.1097872585
H   H55       1.0  0.72790  0.58700  0.41660  1.0000 0.1200019878
H   H56       1.0  0.74130  0.54350  0.49510  1.0000 0.1097872585
H   H57       1.0  0.73320  0.46450  0.38250  1.0000 0.1097872585
H   H58       1.0  0.80170  0.44160  0.34660  1.0000 0.1032783959
H   H59       1.0  0.77340  0.37330  0.45450  1.0000 0.1200019878
H   H60       1.0  0.76500  0.43440  0.51350  1.0000 0.1032783959
H   H61       1.0  0.93530  0.64140  0.59280  1.0000 0.1200019878
H   H62       1.0  0.91650  0.67500  0.50900  1.0000 0.1200019878
H   H63       1.0  0.84400  0.76640  0.50500  1.0000 0.1097872585
H   H64       1.0  0.79720  0.85480  0.57180  1.0000 0.1200019878
H   H65       1.0  0.84940  0.77870  0.78650  1.0000 0.1097872585
H   H66       1.0  0.88940  0.68640  0.72010  1.0000 0.1200019878
H   H67       1.0  0.91420  0.39020  0.58960  1.0000 0.1284866882
H   H68       1.0  0.84560  0.42130  0.61220  1.0000 0.1032783959
H   H69       1.0  0.74870  0.35030  0.62440  1.0000 0.1200019878
H   H70       1.0  0.71030  0.24900  0.66460  1.0000 0.1097872585
H   H71       1.0  0.88510  0.17060  0.61340  1.0000 0.1200019878
H   H72       1.0  0.92470  0.27270  0.57520  1.0000 0.1284866882
H   H73       1.0  0.81200  0.60960  0.65500  1.0000 0.139467051
H   H74       1.0  0.79170  0.54580  0.60560  1.0000 0.1284866882
H   H75       1.0  0.78220  0.54770  0.28900  1.0000 0.139467051
H   H76       1.0  0.82320  0.60480  0.33090  1.0000 0.1463643986
H   H77       1.0  0.88910  0.32530  0.44620  1.0000 0.139467051
H   H78       1.0  0.88290  0.38030  0.37830  1.0000 0.139467051
H   H79       1.0  0.23320  0.34800  0.52520  1.0000 0.1200019878
H   H80       1.0  0.18510  0.34400  0.44920  1.0000 0.1097872585
H   H81       1.0  0.27210  0.41300  0.41660  1.0000 0.1200019878
H   H82       1.0  0.25870  0.45650  0.49510  1.0000 0.1097872585
H   H83       1.0  0.26680  0.53550  0.38250  1.0000 0.1097872585
H   H84       1.0  0.19830  0.55840  0.34660  1.0000 0.1032783959
H   H85       1.0  0.22660  0.62670  0.45450  1.0000 0.1200019878
H   H86       1.0  0.23500  0.56560  0.51350  1.0000 0.1032783959
H   H87       1.0  0.06470  0.35860  0.59280  1.0000 0.1200019878
H   H88       1.0  0.08350  0.32500  0.50900  1.0000 0.1200019878
H   H89       1.0  0.15600  0.23360  0.50500  1.0000 0.1097872585
H   H90       1.0  0.20280  0.14520  0.57180  1.0000 0.1200019878
H   H91       1.0  0.15060  0.22130  0.78650  1.0000 0.1097872585
H   H92       1.0  0.11060  0.31360  0.72010  1.0000 0.1200019878
H   H93       1.0  0.08580  0.60980  0.58960  1.0000 0.1284866882
H   H94       1.0  0.15440  0.57870  0.61220  1.0000 0.1032783959
H   H95       1.0  0.25130  0.64970  0.62440  1.0000 0.1200019878
H   H96       1.0  0.28970  0.75100  0.66460  1.0000 0.1097872585
H   H97       1.0  0.11490  0.82940  0.61340  1.0000 0.1200019878
H   H98       1.0  0.07530  0.72730  0.57520  1.0000 0.1284866882
H   H99       1.0  0.18800  0.39040  0.65500  1.0000 0.139467051
H   H100      1.0  0.20830  0.45420  0.60560  1.0000 0.1284866882
H   H101      1.0  0.21780  0.45230  0.28900  1.0000 0.139467051
H   H102      1.0  0.17680  0.39520  0.33090  1.0000 0.1463643986
H   H103      1.0  0.11090  0.67470  0.44620  1.0000 0.139467051
H   H104      1.0  0.11710  0.61970  0.37830  1.0000 0.139467051
H   H105      1.0  0.65200  0.23320  0.47480  1.0000 0.1200019878
H   H106      1.0  0.65600  0.18510  0.55080  1.0000 0.1097872585
H   H107      1.0  0.58700  0.27210  0.58340  1.0000 0.1200019878
H   H108      1.0  0.54350  0.25870  0.50490  1.0000 0.1097872585
H   H109      1.0  0.46450  0.26680  0.61750  1.0000 0.1097872585
H   H110      1.0  0.44160  0.19830  0.65340  1.0000 0.1032783959
H   H111      1.0  0.37330  0.22660  0.54550  1.0000 0.1200019878
H   H112      1.0  0.43440  0.23500  0.48650  1.0000 0.1032783959
H   H113      1.0  0.64140  0.06470  0.40720  1.0000 0.1200019878
H   H114      1.0  0.67500  0.08350  0.49100  1.0000 0.1200019878
H   H115      1.0  0.76640  0.15600  0.49500  1.0000 0.1097872585
H   H116      1.0  0.85480  0.20280  0.42820  1.0000 0.1200019878
H   H117      1.0  0.77870  0.15060  0.21350  1.0000 0.1097872585
H   H118      1.0  0.68640  0.11060  0.27990  1.0000 0.1200019878
H   H119      1.0  0.39020  0.08580  0.41040  1.0000 0.1284866882
H   H120      1.0  0.42130  0.15440  0.38780  1.0000 0.1032783959
H   H121      1.0  0.35030  0.25130  0.37560  1.0000 0.1200019878
H   H122      1.0  0.24900  0.28970  0.33540  1.0000 0.1097872585
H   H123      1.0  0.17060  0.11490  0.38660  1.0000 0.1200019878
H   H124      1.0  0.27270  0.07530  0.42480  1.0000 0.1284866882
H   H125      1.0  0.60960  0.18800  0.34500  1.0000 0.139467051
H   H126      1.0  0.54580  0.20830  0.39440  1.0000 0.1284866882
H   H127      1.0  0.54770  0.21780  0.71100  1.0000 0.139467051
H   H128      1.0  0.60480  0.17680  0.66910  1.0000 0.1463643986
H   H129      1.0  0.32530  0.11090  0.55380  1.0000 0.139467051
H   H130      1.0  0.38030  0.11710  0.62170  1.0000 0.139467051
H   H131      1.0  0.34800  0.76680  0.47480  1.0000 0.1200019878
H   H132      1.0  0.34400  0.81490  0.55080  1.0000 0.1097872585
H   H133      1.0  0.41300  0.72790  0.58340  1.0000 0.1200019878
H   H134      1.0  0.45650  0.74130  0.50490  1.0000 0.1097872585
H   H135      1.0  0.53550  0.73320  0.61750  1.0000 0.1097872585
H   H136      1.0  0.55840  0.80170  0.65340  1.0000 0.1032783959
H   H137      1.0  0.62670  0.77340  0.54550  1.0000 0.1200019878
H   H138      1.0  0.56560  0.76500  0.48650  1.0000 0.1032783959
H   H139      1.0  0.35860  0.93530  0.40720  1.0000 0.1200019878
H   H140      1.0  0.32500  0.91650  0.49100  1.0000 0.1200019878
H   H141      1.0  0.23360  0.84400  0.49500  1.0000 0.1097872585
H   H142      1.0  0.14520  0.79720  0.42820  1.0000 0.1200019878
H   H143      1.0  0.22130  0.84940  0.21350  1.0000 0.1097872585
H   H144      1.0  0.31360  0.88940  0.27990  1.0000 0.1200019878
H   H145      1.0  0.60980  0.91420  0.41040  1.0000 0.1284866882
H   H146      1.0  0.57870  0.84560  0.38780  1.0000 0.1032783959
H   H147      1.0  0.64970  0.74870  0.37560  1.0000 0.1200019878
H   H148      1.0  0.75100  0.71030  0.33540  1.0000 0.1097872585
H   H149      1.0  0.82940  0.88510  0.38660  1.0000 0.1200019878
H   H150      1.0  0.72730  0.92470  0.42480  1.0000 0.1284866882
H   H151      1.0  0.39040  0.81200  0.34500  1.0000 0.139467051
H   H152      1.0  0.45420  0.79170  0.39440  1.0000 0.1284866882
H   H153      1.0  0.45230  0.78220  0.71100  1.0000 0.139467051
H   H154      1.0  0.39520  0.82320  0.66910  1.0000 0.1463643986
H   H155      1.0  0.67470  0.88910  0.55380  1.0000 0.139467051
H   H156      1.0  0.61970  0.88290  0.62170  1.0000 0.139467051
H   H157      1.0  0.73320  0.84800  0.97480  1.0000 0.1200019878
H   H158      1.0  0.68510  0.84400  0.05080  1.0000 0.1097872585
H   H159      1.0  0.77210  0.91300  0.08340  1.0000 0.1200019878
H   H160      1.0  0.75870  0.95650  0.00490  1.0000 0.1097872585
H   H161      1.0  0.76680  0.03550  0.11750  1.0000 0.1097872585
H   H162      1.0  0.69830  0.05840  0.15340  1.0000 0.1032783959
H   H163      1.0  0.72660  0.12670  0.04550  1.0000 0.1200019878
H   H164      1.0  0.73500  0.06560  0.98650  1.0000 0.1032783959
H   H165      1.0  0.56470  0.85860  0.90720  1.0000 0.1200019878
H   H166      1.0  0.58350  0.82500  0.99100  1.0000 0.1200019878
H   H167      1.0  0.65600  0.73360  0.99500  1.0000 0.1097872585
H   H168      1.0  0.70280  0.64520  0.92820  1.0000 0.1200019878
H   H169      1.0  0.65060  0.72130  0.71350  1.0000 0.1097872585
H   H170      1.0  0.61060  0.81360  0.77990  1.0000 0.1200019878
H   H171      1.0  0.58580  0.10980  0.91040  1.0000 0.1284866882
H   H172      1.0  0.65440  0.07870  0.88780  1.0000 0.1032783959
H   H173      1.0  0.75130  0.14970  0.87560  1.0000 0.1200019878
H   H174      1.0  0.78970  0.25100  0.83540  1.0000 0.1097872585
H   H175      1.0  0.61490  0.32940  0.88660  1.0000 0.1200019878
H   H176      1.0  0.57530  0.22730  0.92480  1.0000 0.1284866882
H   H177      1.0  0.68800  0.89040  0.84500  1.0000 0.139467051
H   H178      1.0  0.70830  0.95420  0.89440  1.0000 0.1284866882
H   H179      1.0  0.71780  0.95230  0.21100  1.0000 0.139467051
H   H180      1.0  0.67680  0.89520  0.16910  1.0000 0.1463643986
H   H181      1.0  0.61090  0.17470  0.05380  1.0000 0.139467051
H   H182      1.0  0.61710  0.11970  0.12170  1.0000 0.139467051
H   H183      1.0  0.26680  0.15200  0.97480  1.0000 0.1200019878
H   H184      1.0  0.31490  0.15600  0.05080  1.0000 0.1097872585
H   H185      1.0  0.22790  0.08700  0.08340  1.0000 0.1200019878
H   H186      1.0  0.24130  0.04350  0.00490  1.0000 0.1097872585
H   H187      1.0  0.23320  0.96450  0.11750  1.0000 0.1097872585
H   H188      1.0  0.30170  0.94160  0.15340  1.0000 0.1032783959
H   H189      1.0  0.27340  0.87330  0.04550  1.0000 0.1200019878
H   H190      1.0  0.26500  0.93440  0.98650  1.0000 0.1032783959
H   H191      1.0  0.43530  0.14140  0.90720  1.0000 0.1200019878
H   H192      1.0  0.41650  0.17500  0.99100  1.0000 0.1200019878
H   H193      1.0  0.34400  0.26640  0.99500  1.0000 0.1097872585
H   H194      1.0  0.29720  0.35480  0.92820  1.0000 0.1200019878
H   H195      1.0  0.34940  0.27870  0.71350  1.0000 0.1097872585
H   H196      1.0  0.38940  0.18640  0.77990  1.0000 0.1200019878
H   H197      1.0  0.41420  0.89020  0.91040  1.0000 0.1284866882
H   H198      1.0  0.34560  0.92130  0.88780  1.0000 0.1032783959
H   H199      1.0  0.24870  0.85030  0.87560  1.0000 0.1200019878
H   H200      1.0  0.21030  0.74900  0.83540  1.0000 0.1097872585
H   H201      1.0  0.38510  0.67060  0.88660  1.0000 0.1200019878
H   H202      1.0  0.42470  0.77270  0.92480  1.0000 0.1284866882
H   H203      1.0  0.31200  0.10960  0.84500  1.0000 0.139467051
H   H204      1.0  0.29170  0.04580  0.89440  1.0000 0.1284866882
H   H205      1.0  0.28220  0.04770  0.21100  1.0000 0.139467051
H   H206      1.0  0.32320  0.10480  0.16910  1.0000 0.1463643986
H   H207      1.0  0.38910  0.82530  0.05380  1.0000 0.139467051
H   H208      1.0  0.38290  0.88030  0.12170  1.0000 0.139467051
C   C1        1.0  0.87320  0.29800  0.99190  1.0000 -0.1393246173
C   C2        1.0  0.93000  0.26240  0.95260  1.0000 -0.1393246173
C   C3        1.0  0.03840  0.28030  0.89420  1.0000 -0.1489030134
C   C4        1.0  0.08280  0.29030  0.96730  1.0000 -0.1489030134
C   C5        1.0  0.84080  0.39860  0.06100  1.0000 -0.1914164515
C   C6        1.0  0.78380  0.37130  0.10580  1.0000 0.1200019878
C   C7        1.0  0.73220  0.34430  0.06240  1.0000 -0.1489030134
C   C8        1.0  0.67880  0.31770  0.10190  1.0000 -0.099618294
C   C9        1.0  0.67470  0.32110  0.18450  1.0000 -0.0200132223
C   C10       1.0  0.72410  0.34760  0.22930  1.0000 -0.1086548234
C   C11       1.0  0.77880  0.37190  0.18920  1.0000 -0.1580915598
C   C12       1.0  0.61280  0.29730  0.22450  1.0000 0.5706042519
C   C13       1.0  0.11050  0.36730  0.07630  1.0000 -0.1954498904
C   C14       1.0  0.17760  0.34100  0.09590  1.0000 0.1200019878
C   C15       1.0  0.18620  0.27690  0.12230  1.0000 -0.1580915598
C   C16       1.0  0.24670  0.25370  0.14560  1.0000 -0.099618294
C   C17       1.0  0.30040  0.29330  0.14140  1.0000 -0.029192436
C   C18       1.0  0.29260  0.35720  0.11560  1.0000 -0.1086548234
C   C19       1.0  0.23170  0.38090  0.09290  1.0000 -0.1489030134
C   C20       1.0  0.36740  0.26800  0.16180  1.0000 0.5282765126
C   C21       1.0  0.92480  0.32840  0.11850  1.0000 -0.3007634485
C   C22       1.0  0.96260  0.38080  0.16070  1.0000 0.5872455483
C   C23       1.0  0.94300  0.31920  0.82550  1.0000 -0.2746522666
C   C24       1.0  0.97040  0.38130  0.78930  1.0000 0.5872455483
C   C25       1.0  0.12840  0.39770  0.93420  1.0000 -0.2928184772
C   C26       1.0  0.11600  0.47100  0.93940  1.0000 0.618802706
C   C27       1.0  0.12680  0.70200  0.99190  1.0000 -0.1393246173
C   C28       1.0  0.07000  0.73760  0.95260  1.0000 -0.1393246173
C   C29       1.0  0.96160  0.71970  0.89420  1.0000 -0.1489030134
C   C30       1.0  0.91720  0.70970  0.96730  1.0000 -0.1489030134
C   C31       1.0  0.15920  0.60140  0.06100  1.0000 -0.1914164515
C   C32       1.0  0.21620  0.62870  0.10580  1.0000 0.1200019878
C   C33       1.0  0.26780  0.65570  0.06240  1.0000 -0.1489030134
C   C34       1.0  0.32120  0.68230  0.10190  1.0000 -0.099618294
C   C35       1.0  0.32530  0.67890  0.18450  1.0000 -0.0200132223
C   C36       1.0  0.27590  0.65240  0.22930  1.0000 -0.1086548234
C   C37       1.0  0.22120  0.62810  0.18920  1.0000 -0.1580915598
C   C38       1.0  0.38720  0.70270  0.22450  1.0000 0.5706042519
C   C39       1.0  0.88950  0.63270  0.07630  1.0000 -0.1954498904
C   C40       1.0  0.82240  0.65900  0.09590  1.0000 0.1200019878
C   C41       1.0  0.81380  0.72310  0.12230  1.0000 -0.1580915598
C   C42       1.0  0.75330  0.74630  0.14560  1.0000 -0.099618294
C   C43       1.0  0.69960  0.70670  0.14140  1.0000 -0.029192436
C   C44       1.0  0.70740  0.64280  0.11560  1.0000 -0.1086548234
C   C45       1.0  0.76830  0.61910  0.09290  1.0000 -0.1489030134
C   C46       1.0  0.63260  0.73200  0.16180  1.0000 0.5282765126
C   C47       1.0  0.07520  0.67160  0.11850  1.0000 -0.3007634485
C   C48       1.0  0.03740  0.61920  0.16070  1.0000 0.5872455483
C   C49       1.0  0.05700  0.68080  0.82550  1.0000 -0.2746522666
C   C50       1.0  0.02960  0.61870  0.78930  1.0000 0.5872455483
C   C51       1.0  0.87160  0.60230  0.93420  1.0000 -0.2928184772
C   C52       1.0  0.88400  0.52900  0.93940  1.0000 0.618802706
C   C53       1.0  0.79800  0.62680  0.49190  1.0000 -0.1393246173
C   C54       1.0  0.76240  0.57000  0.45260  1.0000 -0.1393246173
C   C55       1.0  0.78030  0.46160  0.39420  1.0000 -0.1489030134
C   C56       1.0  0.79030  0.41720  0.46730  1.0000 -0.1489030134
C   C57       1.0  0.89860  0.65920  0.56100  1.0000 -0.1914164515
C   C58       1.0  0.87130  0.71620  0.60580  1.0000 0.1200019878
C   C59       1.0  0.84430  0.76780  0.56240  1.0000 -0.1489030134
C   C60       1.0  0.81770  0.82120  0.60190  1.0000 -0.099618294
C   C61       1.0  0.82110  0.82530  0.68450  1.0000 -0.0200132223
C   C62       1.0  0.84760  0.77590  0.72930  1.0000 -0.1086548234
C   C63       1.0  0.87190  0.72120  0.68920  1.0000 -0.1580915598
C   C64       1.0  0.79730  0.88720  0.72450  1.0000 0.5706042519
C   C65       1.0  0.86730  0.38950  0.57630  1.0000 -0.1954498904
C   C66       1.0  0.84100  0.32240  0.59590  1.0000 0.1200019878
C   C67       1.0  0.77690  0.31380  0.62230  1.0000 -0.1580915598
C   C68       1.0  0.75370  0.25330  0.64560  1.0000 -0.099618294
C   C69       1.0  0.79330  0.19960  0.64140  1.0000 -0.029192436
C   C70       1.0  0.85720  0.20740  0.61560  1.0000 -0.1086548234
C   C71       1.0  0.88090  0.26830  0.59290  1.0000 -0.1489030134
C   C72       1.0  0.76800  0.13260  0.66180  1.0000 0.5282765126
C   C73       1.0  0.82840  0.57520  0.61850  1.0000 -0.3007634485
C   C74       1.0  0.88080  0.53740  0.66070  1.0000 0.5872455483
C   C75       1.0  0.81920  0.55700  0.32550  1.0000 -0.2746522666
C   C76       1.0  0.88130  0.52960  0.28930  1.0000 0.5872455483
C   C77       1.0  0.89770  0.37160  0.43420  1.0000 -0.2928184772
C   C78       1.0  0.97100  0.38400  0.43940  1.0000 0.618802706
C   C79       1.0  0.20200  0.37320  0.49190  1.0000 -0.1393246173
C   C80       1.0  0.23760  0.43000  0.45260  1.0000 -0.1393246173
C   C81       1.0  0.21970  0.53840  0.39420  1.0000 -0.1489030134
C   C82       1.0  0.20970  0.58280  0.46730  1.0000 -0.1489030134
C   C83       1.0  0.10140  0.34080  0.56100  1.0000 -0.1914164515
C   C84       1.0  0.12870  0.28380  0.60580  1.0000 0.1200019878
C   C85       1.0  0.15570  0.23220  0.56240  1.0000 -0.1489030134
C   C86       1.0  0.18230  0.17880  0.60190  1.0000 -0.099618294
C   C87       1.0  0.17890  0.17470  0.68450  1.0000 -0.0200132223
C   C88       1.0  0.15240  0.22410  0.72930  1.0000 -0.1086548234
C   C89       1.0  0.12810  0.27880  0.68920  1.0000 -0.1580915598
C   C90       1.0  0.20270  0.11280  0.72450  1.0000 0.5706042519
C   C91       1.0  0.13270  0.61050  0.57630  1.0000 -0.1954498904
C   C92       1.0  0.15900  0.67760  0.59590  1.0000 0.1200019878
C   C93       1.0  0.22310  0.68620  0.62230  1.0000 -0.1580915598
C   C94       1.0  0.24630  0.74670  0.64560  1.0000 -0.099618294
C   C95       1.0  0.20670  0.80040  0.64140  1.0000 -0.029192436
C   C96       1.0  0.14280  0.79260  0.61560  1.0000 -0.1086548234
C   C97       1.0  0.11910  0.73170  0.59290  1.0000 -0.1489030134
C   C98       1.0  0.23200  0.86740  0.66180  1.0000 0.5282765126
C   C99       1.0  0.17160  0.42480  0.61850  1.0000 -0.3007634485
C   C100      1.0  0.11920  0.46260  0.66070  1.0000 0.5872455483
C   C101      1.0  0.18080  0.44300  0.32550  1.0000 -0.2746522666
C   C102      1.0  0.11870  0.47040  0.28930  1.0000 0.5872455483
C   C103      1.0  0.10230  0.62840  0.43420  1.0000 -0.2928184772
C   C104      1.0  0.02900  0.61600  0.43940  1.0000 0.618802706
C   C105      1.0  0.62680  0.20200  0.50810  1.0000 -0.1393246173
C   C106      1.0  0.57000  0.23760  0.54740  1.0000 -0.1393246173
C   C107      1.0  0.46160  0.21970  0.60580  1.0000 -0.1489030134
C   C108      1.0  0.41720  0.20970  0.53270  1.0000 -0.1489030134
C   C109      1.0  0.65920  0.10140  0.43900  1.0000 -0.1914164515
C   C110      1.0  0.71620  0.12870  0.39420  1.0000 0.1200019878
C   C111      1.0  0.76780  0.15570  0.43760  1.0000 -0.1489030134
C   C112      1.0  0.82120  0.18230  0.39810  1.0000 -0.099618294
C   C113      1.0  0.82530  0.17890  0.31550  1.0000 -0.0200132223
C   C114      1.0  0.77590  0.15240  0.27070  1.0000 -0.1086548234
C   C115      1.0  0.72120  0.12810  0.31080  1.0000 -0.1580915598
C   C116      1.0  0.88720  0.20270  0.27550  1.0000 0.5706042519
C   C117      1.0  0.38950  0.13270  0.42370  1.0000 -0.1954498904
C   C118      1.0  0.32240  0.15900  0.40410  1.0000 0.1200019878
C   C119      1.0  0.31380  0.22310  0.37770  1.0000 -0.1580915598
C   C120      1.0  0.25330  0.24630  0.35440  1.0000 -0.099618294
C   C121      1.0  0.19960  0.20670  0.35860  1.0000 -0.029192436
C   C122      1.0  0.20740  0.14280  0.38440  1.0000 -0.1086548234
C   C123      1.0  0.26830  0.11910  0.40710  1.0000 -0.1489030134
C   C124      1.0  0.13260  0.23200  0.33820  1.0000 0.5282765126
C   C125      1.0  0.57520  0.17160  0.38150  1.0000 -0.3007634485
C   C126      1.0  0.53740  0.11920  0.33930  1.0000 0.5872455483
C   C127      1.0  0.55700  0.18080  0.67450  1.0000 -0.2746522666
C   C128      1.0  0.52960  0.11870  0.71070  1.0000 0.5872455483
C   C129      1.0  0.37160  0.10230  0.56580  1.0000 -0.2928184772
C   C130      1.0  0.38400  0.02900  0.56060  1.0000 0.618802706
C   C131      1.0  0.37320  0.79800  0.50810  1.0000 -0.1393246173
C   C132      1.0  0.43000  0.76240  0.54740  1.0000 -0.1393246173
C   C133      1.0  0.53840  0.78030  0.60580  1.0000 -0.1489030134
C   C134      1.0  0.58280  0.79030  0.53270  1.0000 -0.1489030134
C   C135      1.0  0.34080  0.89860  0.43900  1.0000 -0.1914164515
C   C136      1.0  0.28380  0.87130  0.39420  1.0000 0.1200019878
C   C137      1.0  0.23220  0.84430  0.43760  1.0000 -0.1489030134
C   C138      1.0  0.17880  0.81770  0.39810  1.0000 -0.099618294
C   C139      1.0  0.17470  0.82110  0.31550  1.0000 -0.0200132223
C   C140      1.0  0.22410  0.84760  0.27070  1.0000 -0.1086548234
C   C141      1.0  0.27880  0.87190  0.31080  1.0000 -0.1580915598
C   C142      1.0  0.11280  0.79730  0.27550  1.0000 0.5706042519
C   C143      1.0  0.61050  0.86730  0.42370  1.0000 -0.1954498904
C   C144      1.0  0.67760  0.84100  0.40410  1.0000 0.1200019878
C   C145      1.0  0.68620  0.77690  0.37770  1.0000 -0.1580915598
C   C146      1.0  0.74670  0.75370  0.35440  1.0000 -0.099618294
C   C147      1.0  0.80040  0.79330  0.35860  1.0000 -0.029192436
C   C148      1.0  0.79260  0.85720  0.38440  1.0000 -0.1086548234
C   C149      1.0  0.73170  0.88090  0.40710  1.0000 -0.1489030134
C   C150      1.0  0.86740  0.76800  0.33820  1.0000 0.5282765126
C   C151      1.0  0.42480  0.82840  0.38150  1.0000 -0.3007634485
C   C152      1.0  0.46260  0.88080  0.33930  1.0000 0.5872455483
C   C153      1.0  0.44300  0.81920  0.67450  1.0000 -0.2746522666
C   C154      1.0  0.47040  0.88130  0.71070  1.0000 0.5872455483
C   C155      1.0  0.62840  0.89770  0.56580  1.0000 -0.2928184772
C   C156      1.0  0.61600  0.97100  0.56060  1.0000 0.618802706
C   C157      1.0  0.70200  0.87320  0.00810  1.0000 -0.1393246173
C   C158      1.0  0.73760  0.93000  0.04740  1.0000 -0.1393246173
C   C159      1.0  0.71970  0.03840  0.10580  1.0000 -0.1489030134
C   C160      1.0  0.70970  0.08280  0.03270  1.0000 -0.1489030134
C   C161      1.0  0.60140  0.84080  0.93900  1.0000 -0.1914164515
C   C162      1.0  0.62870  0.78380  0.89420  1.0000 0.1200019878
C   C163      1.0  0.65570  0.73220  0.93760  1.0000 -0.1489030134
C   C164      1.0  0.68230  0.67880  0.89810  1.0000 -0.099618294
C   C165      1.0  0.67890  0.67470  0.81550  1.0000 -0.0200132223
C   C166      1.0  0.65240  0.72410  0.77070  1.0000 -0.1086548234
C   C167      1.0  0.62810  0.77880  0.81080  1.0000 -0.1580915598
C   C168      1.0  0.70270  0.61280  0.77550  1.0000 0.5706042519
C   C169      1.0  0.63270  0.11050  0.92370  1.0000 -0.1954498904
C   C170      1.0  0.65900  0.17760  0.90410  1.0000 0.1200019878
C   C171      1.0  0.72310  0.18620  0.87770  1.0000 -0.1580915598
C   C172      1.0  0.74630  0.24670  0.85440  1.0000 -0.099618294
C   C173      1.0  0.70670  0.30040  0.85860  1.0000 -0.029192436
C   C174      1.0  0.64280  0.29260  0.88440  1.0000 -0.1086548234
C   C175      1.0  0.61910  0.23170  0.90710  1.0000 -0.1489030134
C   C176      1.0  0.73200  0.36740  0.83820  1.0000 0.5282765126
C   C177      1.0  0.67160  0.92480  0.88150  1.0000 -0.3007634485
C   C178      1.0  0.61920  0.96260  0.83930  1.0000 0.5872455483
C   C179      1.0  0.68080  0.94300  0.17450  1.0000 -0.2746522666
C   C180      1.0  0.61870  0.97040  0.21070  1.0000 0.5872455483
C   C181      1.0  0.60230  0.12840  0.06580  1.0000 -0.2928184772
C   C182      1.0  0.52900  0.11600  0.06060  1.0000 0.618802706
C   C183      1.0  0.29800  0.12680  0.00810  1.0000 -0.1393246173
C   C184      1.0  0.26240  0.07000  0.04740  1.0000 -0.1393246173
C   C185      1.0  0.28030  0.96160  0.10580  1.0000 -0.1489030134
C   C186      1.0  0.29030  0.91720  0.03270  1.0000 -0.1489030134
C   C187      1.0  0.39860  0.15920  0.93900  1.0000 -0.1914164515
C   C188      1.0  0.37130  0.21620  0.89420  1.0000 0.1200019878
C   C189      1.0  0.34430  0.26780  0.93760  1.0000 -0.1489030134
C   C190      1.0  0.31770  0.32120  0.89810  1.0000 -0.099618294
C   C191      1.0  0.32110  0.32530  0.81550  1.0000 -0.0200132223
C   C192      1.0  0.34760  0.27590  0.77070  1.0000 -0.1086548234
C   C193      1.0  0.37190  0.22120  0.81080  1.0000 -0.1580915598
C   C194      1.0  0.29730  0.38720  0.77550  1.0000 0.5706042519
C   C195      1.0  0.36730  0.88950  0.92370  1.0000 -0.1954498904
C   C196      1.0  0.34100  0.82240  0.90410  1.0000 0.1200019878
C   C197      1.0  0.27690  0.81380  0.87770  1.0000 -0.1580915598
C   C198      1.0  0.25370  0.75330  0.85440  1.0000 -0.099618294
C   C199      1.0  0.29330  0.69960  0.85860  1.0000 -0.029192436
C   C200      1.0  0.35720  0.70740  0.88440  1.0000 -0.1086548234
C   C201      1.0  0.38090  0.76830  0.90710  1.0000 -0.1489030134
C   C202      1.0  0.26800  0.63260  0.83820  1.0000 0.5282765126
C   C203      1.0  0.32840  0.07520  0.88150  1.0000 -0.3007634485
C   C204      1.0  0.38080  0.03740  0.83930  1.0000 0.5872455483
C   C205      1.0  0.31920  0.05700  0.17450  1.0000 -0.2746522666
C   C206      1.0  0.38130  0.02960  0.21070  1.0000 0.5872455483
C   C207      1.0  0.39770  0.87160  0.06580  1.0000 -0.2928184772
C   C208      1.0  0.47100  0.88400  0.06060  1.0000 0.618802706
N   N1        1.0  0.89490  0.35260  0.04350  1.0000 -0.071228909
N   N2        1.0  0.97170  0.30650  0.90530  1.0000 -0.0874512175
N   N3        1.0  0.08770  0.35940  0.99040  1.0000 -0.0874512175
N   N4        1.0  0.10510  0.64740  0.04350  1.0000 -0.071228909
N   N5        1.0  0.02830  0.69350  0.90530  1.0000 -0.0874512175
N   N6        1.0  0.91230  0.64060  0.99040  1.0000 -0.0874512175
N   N7        1.0  0.85260  0.60510  0.54350  1.0000 -0.071228909
N   N8        1.0  0.80650  0.52830  0.40530  1.0000 -0.0874512175
N   N9        1.0  0.85940  0.41230  0.49040  1.0000 -0.0874512175
N   N10       1.0  0.14740  0.39490  0.54350  1.0000 -0.071228909
N   N11       1.0  0.19350  0.47170  0.40530  1.0000 -0.0874512175
N   N12       1.0  0.14060  0.58770  0.49040  1.0000 -0.0874512175
N   N13       1.0  0.60510  0.14740  0.45650  1.0000 -0.071228909
N   N14       1.0  0.52830  0.19350  0.59470  1.0000 -0.0874512175
N   N15       1.0  0.41230  0.14060  0.50960  1.0000 -0.0874512175
N   N16       1.0  0.39490  0.85260  0.45650  1.0000 -0.071228909
N   N17       1.0  0.47170  0.80650  0.59470  1.0000 -0.0874512175
N   N18       1.0  0.58770  0.85940  0.50960  1.0000 -0.0874512175
N   N19       1.0  0.64740  0.89490  0.95650  1.0000 -0.071228909
N   N20       1.0  0.69350  0.97170  0.09470  1.0000 -0.0874512175
N   N21       1.0  0.64060  0.08770  0.00960  1.0000 -0.0874512175
N   N22       1.0  0.35260  0.10510  0.95650  1.0000 -0.071228909
N   N23       1.0  0.30650  0.02830  0.09470  1.0000 -0.0874512175
N   N24       1.0  0.35940  0.91230  0.00960  1.0000 -0.0874512175
O   O1        1.0  0.57820  0.26100  0.18130  1.0000 -0.5802471393
O   O2        1.0  0.60030  0.31450  0.29520  1.0000 -0.5722117925
O   O3        1.0  0.37190  0.21120  0.18950  1.0000 -0.5722117925
O   O4        1.0  0.41580  0.30220  0.14910  1.0000 -0.5303913632
O   O5        1.0  0.97820  0.43020  0.12150  1.0000 -0.5076754594
O   O6        1.0  0.97640  0.37450  0.23480  1.0000 -0.5802471393
O   O7        1.0  0.98750  0.42600  0.83700  1.0000 -0.5417370701
O   O8        1.0  0.97320  0.38730  0.71490  1.0000 -0.5222599858
O   O9        1.0  0.06490  0.48840  0.97640  1.0000 -0.5303913632
O   O10       1.0  0.15520  0.50900  0.90890  1.0000 -0.5417370701
O   O11       1.0  0.42180  0.73900  0.18130  1.0000 -0.5802471393
O   O12       1.0  0.39970  0.68550  0.29520  1.0000 -0.5722117925
O   O13       1.0  0.62810  0.78880  0.18950  1.0000 -0.5722117925
O   O14       1.0  0.58420  0.69780  0.14910  1.0000 -0.5303913632
O   O15       1.0  0.02180  0.56980  0.12150  1.0000 -0.5076754594
O   O16       1.0  0.02360  0.62550  0.23480  1.0000 -0.5802471393
O   O17       1.0  0.01250  0.57400  0.83700  1.0000 -0.5417370701
O   O18       1.0  0.02680  0.61270  0.71490  1.0000 -0.5222599858
O   O19       1.0  0.93510  0.51160  0.97640  1.0000 -0.5303913632
O   O20       1.0  0.84480  0.49100  0.90890  1.0000 -0.5417370701
O   O21       1.0  0.76100  0.92180  0.68130  1.0000 -0.5802471393
O   O22       1.0  0.81450  0.89970  0.79520  1.0000 -0.5722117925
O   O23       1.0  0.71120  0.12810  0.68950  1.0000 -0.5722117925
O   O24       1.0  0.80220  0.08420  0.64910  1.0000 -0.5303913632
O   O25       1.0  0.93020  0.52180  0.62150  1.0000 -0.5076754594
O   O26       1.0  0.87450  0.52360  0.73480  1.0000 -0.5802471393
O   O27       1.0  0.92600  0.51250  0.33700  1.0000 -0.5417370701
O   O28       1.0  0.88730  0.52680  0.21490  1.0000 -0.5222599858
O   O29       1.0  0.98840  0.43510  0.47640  1.0000 -0.5303913632
O   O30       1.0  0.00900  0.34480  0.40890  1.0000 -0.5417370701
O   O31       1.0  0.23900  0.07820  0.68130  1.0000 -0.5802471393
O   O32       1.0  0.18550  0.10030  0.79520  1.0000 -0.5722117925
O   O33       1.0  0.28880  0.87190  0.68950  1.0000 -0.5722117925
O   O34       1.0  0.19780  0.91580  0.64910  1.0000 -0.5303913632
O   O35       1.0  0.06980  0.47820  0.62150  1.0000 -0.5076754594
O   O36       1.0  0.12550  0.47640  0.73480  1.0000 -0.5802471393
O   O37       1.0  0.07400  0.48750  0.33700  1.0000 -0.5417370701
O   O38       1.0  0.11270  0.47320  0.21490  1.0000 -0.5222599858
O   O39       1.0  0.01160  0.56490  0.47640  1.0000 -0.5303913632
O   O40       1.0  0.99100  0.65520  0.40890  1.0000 -0.5417370701
O   O41       1.0  0.92180  0.23900  0.31870  1.0000 -0.5802471393
O   O42       1.0  0.89970  0.18550  0.20480  1.0000 -0.5722117925
O   O43       1.0  0.12810  0.28880  0.31050  1.0000 -0.5722117925
O   O44       1.0  0.08420  0.19780  0.35090  1.0000 -0.5303913632
O   O45       1.0  0.52180  0.06980  0.37850  1.0000 -0.5076754594
O   O46       1.0  0.52360  0.12550  0.26520  1.0000 -0.5802471393
O   O47       1.0  0.51250  0.07400  0.66300  1.0000 -0.5417370701
O   O48       1.0  0.52680  0.11270  0.78510  1.0000 -0.5222599858
O   O49       1.0  0.43510  0.01160  0.52360  1.0000 -0.5303913632
O   O50       1.0  0.34480  0.99100  0.59110  1.0000 -0.5417370701
O   O51       1.0  0.07820  0.76100  0.31870  1.0000 -0.5802471393
O   O52       1.0  0.10030  0.81450  0.20480  1.0000 -0.5722117925
O   O53       1.0  0.87190  0.71120  0.31050  1.0000 -0.5722117925
O   O54       1.0  0.91580  0.80220  0.35090  1.0000 -0.5303913632
O   O55       1.0  0.47820  0.93020  0.37850  1.0000 -0.5076754594
O   O56       1.0  0.47640  0.87450  0.26520  1.0000 -0.5802471393
O   O57       1.0  0.48750  0.92600  0.66300  1.0000 -0.5417370701
O   O58       1.0  0.47320  0.88730  0.78510  1.0000 -0.5222599858
O   O59       1.0  0.56490  0.98840  0.52360  1.0000 -0.5303913632
O   O60       1.0  0.65520  0.00900  0.59110  1.0000 -0.5417370701
O   O61       1.0  0.73900  0.57820  0.81870  1.0000 -0.5802471393
O   O62       1.0  0.68550  0.60030  0.70480  1.0000 -0.5722117925
O   O63       1.0  0.78880  0.37190  0.81050  1.0000 -0.5722117925
O   O64       1.0  0.69780  0.41580  0.85090  1.0000 -0.5303913632
O   O65       1.0  0.56980  0.97820  0.87850  1.0000 -0.5076754594
O   O66       1.0  0.62550  0.97640  0.76520  1.0000 -0.5802471393
O   O67       1.0  0.57400  0.98750  0.16300  1.0000 -0.5417370701
O   O68       1.0  0.61270  0.97320  0.28510  1.0000 -0.5222599858
O   O69       1.0  0.51160  0.06490  0.02360  1.0000 -0.5303913632
O   O70       1.0  0.49100  0.15520  0.09110  1.0000 -0.5417370701
O   O71       1.0  0.26100  0.42180  0.81870  1.0000 -0.5802471393
O   O72       1.0  0.31450  0.39970  0.70480  1.0000 -0.5722117925
O   O73       1.0  0.21120  0.62810  0.81050  1.0000 -0.5722117925
O   O74       1.0  0.30220  0.58420  0.85090  1.0000 -0.5303913632
O   O75       1.0  0.43020  0.02180  0.87850  1.0000 -0.5076754594
O   O76       1.0  0.37450  0.02360  0.76520  1.0000 -0.5802471393
O   O77       1.0  0.42600  0.01250  0.16300  1.0000 -0.5417370701
O   O78       1.0  0.38730  0.02680  0.28510  1.0000 -0.5222599858
O   O79       1.0  0.48840  0.93510  0.02360  1.0000 -0.5303913632
O   O80       1.0  0.50900  0.84480  0.09110  1.0000 -0.5417370701
