# DDEC6 charges by PACMAN v1.1 (https://github.com/mtap-research/PACMAN-charge/)
data_2018[Zn][sql]2[ASR]8
_chemical_formula_sum              "Zn16 H240 C384 I32 N64"
_cell_length_a       35.3614
_cell_length_b       35.3614
_cell_length_c       12.1103
_cell_angle_alpha    90
_cell_angle_beta     90
_cell_angle_gamma    90

_symmetry_space_group_name_H-M    "P 1"
_symmetry_Int_Tables_number       1

loop_
  _symmetry_equiv_pos_as_xyz
  'x, y, z'

loop_
  _atom_site_type_symbol
  _atom_site_label
  _atom_site_symmetry_multiplicity
  _atom_site_fract_x
  _atom_site_fract_y
  _atom_site_fract_z
  _atom_site_occupancy
  _atom_site_charge
Zn  Zn1       1.0  0.00000  0.76829  0.52600  1.0000 0.4513402462
Zn  Zn2       1.0  0.00000  0.23171  0.52600  1.0000 0.4513402462
Zn  Zn3       1.0  0.50000  0.73171  0.97400  1.0000 0.4513402462
Zn  Zn4       1.0  0.50000  0.26829  0.97400  1.0000 0.4513402462
Zn  Zn5       1.0  0.34876  0.50000  0.47130  1.0000 0.474326554
Zn  Zn6       1.0  0.65124  0.50000  0.47130  1.0000 0.4752455235
Zn  Zn7       1.0  0.84876  0.00000  0.02870  1.0000 0.4752455235
Zn  Zn8       1.0  0.15124  0.00000  0.02870  1.0000 0.4752455235
Zn  Zn9       1.0  0.73171  0.50000  0.02600  1.0000 0.4513402462
Zn  Zn10      1.0  0.26829  0.50000  0.02600  1.0000 0.4513402462
Zn  Zn11      1.0  0.23171  0.00000  0.47400  1.0000 0.4513402462
Zn  Zn12      1.0  0.76829  0.00000  0.47400  1.0000 0.4513402462
Zn  Zn13      1.0  0.00000  0.84876  0.97130  1.0000 0.474326554
Zn  Zn14      1.0  0.00000  0.15124  0.97130  1.0000 0.4752455235
Zn  Zn15      1.0  0.50000  0.65124  0.52870  1.0000 0.4752455235
Zn  Zn16      1.0  0.50000  0.34876  0.52870  1.0000 0.4752455235
H   H1        1.0  0.03865  0.69839  0.48408  1.0000 0.1041231914
H   H2        1.0  0.08382  0.67027  0.37560  1.0000 0.1402389288
H   H3        1.0  0.10925  0.77466  0.26363  1.0000 0.1402389288
H   H4        1.0  0.06156  0.79637  0.36817  1.0000 0.1197966875
H   H5        1.0  0.14782  0.66241  0.35238  1.0000 0.1287426099
H   H6        1.0  0.20483  0.62210  0.34851  1.0000 0.1197966875
H   H7        1.0  0.28073  0.63122  0.09521  1.0000 0.1287426099
H   H8        1.0  0.26509  0.67512  0.95147  1.0000 0.2745700807
H   H9        1.0  0.13521  0.74177  0.11505  1.0000 0.1287426099
H   H10       1.0  0.19883  0.77349  0.85438  1.0000 0.1197966875
H   H11       1.0  0.27888  0.69302  0.80535  1.0000 0.1041231914
H   H12       1.0  0.24914  0.59916  0.44250  1.0000 0.1287426099
H   H13       1.0  0.28967  0.55466  0.52543  1.0000 0.1041231914
H   H14       1.0  0.34444  0.53942  0.25697  1.0000 0.1099207106
H   H15       1.0  0.30902  0.58464  0.16489  1.0000 0.1287426099
H   H16       1.0  0.96135  0.30161  0.48408  1.0000 0.1041231914
H   H17       1.0  0.91618  0.32973  0.37560  1.0000 0.1402389288
H   H18       1.0  0.89075  0.22534  0.26363  1.0000 0.1402389288
H   H19       1.0  0.93844  0.20363  0.36817  1.0000 0.1197966875
H   H20       1.0  0.85218  0.33759  0.35238  1.0000 0.1287426099
H   H21       1.0  0.79517  0.37790  0.34851  1.0000 0.1197966875
H   H22       1.0  0.71927  0.36878  0.09521  1.0000 0.1287426099
H   H23       1.0  0.73491  0.32488  0.95147  1.0000 0.2745700807
H   H24       1.0  0.86479  0.25823  0.11505  1.0000 0.1287426099
H   H25       1.0  0.80117  0.22651  0.85438  1.0000 0.1197966875
H   H26       1.0  0.72112  0.30698  0.80535  1.0000 0.1041231914
H   H27       1.0  0.75086  0.40084  0.44250  1.0000 0.1287426099
H   H28       1.0  0.71033  0.44534  0.52543  1.0000 0.1041231914
H   H29       1.0  0.65556  0.46058  0.25697  1.0000 0.1099207106
H   H30       1.0  0.69098  0.41536  0.16489  1.0000 0.1287426099
H   H31       1.0  0.53865  0.80161  0.01592  1.0000 0.1041231914
H   H32       1.0  0.58382  0.82973  0.12440  1.0000 0.1402389288
H   H33       1.0  0.60925  0.72534  0.23637  1.0000 0.1402389288
H   H34       1.0  0.56156  0.70363  0.13183  1.0000 0.1197966875
H   H35       1.0  0.64782  0.83759  0.14762  1.0000 0.1287426099
H   H36       1.0  0.70483  0.87790  0.15149  1.0000 0.1197966875
H   H37       1.0  0.78073  0.86878  0.40479  1.0000 0.1287426099
H   H38       1.0  0.76509  0.82488  0.54853  1.0000 0.2745700807
H   H39       1.0  0.63521  0.75823  0.38495  1.0000 0.1287426099
H   H40       1.0  0.69883  0.72651  0.64562  1.0000 0.1197966875
H   H41       1.0  0.77888  0.80698  0.69465  1.0000 0.1041231914
H   H42       1.0  0.74914  0.90084  0.05750  1.0000 0.1287426099
H   H43       1.0  0.78967  0.94534  0.97457  1.0000 0.1041231914
H   H44       1.0  0.84444  0.96058  0.24303  1.0000 0.1099207106
H   H45       1.0  0.80902  0.91536  0.33511  1.0000 0.1287426099
H   H46       1.0  0.46135  0.19839  0.01592  1.0000 0.1041231914
H   H47       1.0  0.41618  0.17027  0.12440  1.0000 0.1402389288
H   H48       1.0  0.39075  0.27466  0.23637  1.0000 0.1402389288
H   H49       1.0  0.43844  0.29637  0.13183  1.0000 0.1197966875
H   H50       1.0  0.35218  0.16241  0.14762  1.0000 0.1287426099
H   H51       1.0  0.29517  0.12210  0.15149  1.0000 0.1197966875
H   H52       1.0  0.21927  0.13122  0.40479  1.0000 0.1287426099
H   H53       1.0  0.23491  0.17512  0.54853  1.0000 0.2745700807
H   H54       1.0  0.36479  0.24177  0.38495  1.0000 0.1287426099
H   H55       1.0  0.30117  0.27349  0.64562  1.0000 0.1197966875
H   H56       1.0  0.22112  0.19302  0.69465  1.0000 0.1041231914
H   H57       1.0  0.25086  0.09916  0.05750  1.0000 0.1287426099
H   H58       1.0  0.21033  0.05466  0.97457  1.0000 0.1041231914
H   H59       1.0  0.15556  0.03942  0.24303  1.0000 0.1099207106
H   H60       1.0  0.19098  0.08464  0.33511  1.0000 0.1287426099
H   H61       1.0  0.46135  0.80161  0.01592  1.0000 0.1041231914
H   H62       1.0  0.41618  0.82973  0.12440  1.0000 0.1402389288
H   H63       1.0  0.39075  0.72534  0.23637  1.0000 0.1402389288
H   H64       1.0  0.43844  0.70363  0.13183  1.0000 0.1197966875
H   H65       1.0  0.35218  0.83759  0.14762  1.0000 0.1287426099
H   H66       1.0  0.29517  0.87790  0.15149  1.0000 0.1197966875
H   H67       1.0  0.21927  0.86878  0.40479  1.0000 0.1287426099
H   H68       1.0  0.23491  0.82488  0.54853  1.0000 0.2745700807
H   H69       1.0  0.36479  0.75823  0.38495  1.0000 0.1287426099
H   H70       1.0  0.30117  0.72651  0.64562  1.0000 0.1197966875
H   H71       1.0  0.22112  0.80698  0.69465  1.0000 0.1041231914
H   H72       1.0  0.25086  0.90084  0.05750  1.0000 0.1287426099
H   H73       1.0  0.21033  0.94534  0.97457  1.0000 0.1041231914
H   H74       1.0  0.15556  0.96058  0.24303  1.0000 0.1099207106
H   H75       1.0  0.19098  0.91536  0.33511  1.0000 0.1287426099
H   H76       1.0  0.53865  0.19839  0.01592  1.0000 0.1041231914
H   H77       1.0  0.58382  0.17027  0.12440  1.0000 0.1402389288
H   H78       1.0  0.60925  0.27466  0.23637  1.0000 0.1402389288
H   H79       1.0  0.56156  0.29637  0.13183  1.0000 0.1197966875
H   H80       1.0  0.64782  0.16241  0.14762  1.0000 0.1287426099
H   H81       1.0  0.70483  0.12210  0.15149  1.0000 0.1197966875
H   H82       1.0  0.78073  0.13122  0.40479  1.0000 0.1287426099
H   H83       1.0  0.76509  0.17512  0.54853  1.0000 0.2745700807
H   H84       1.0  0.63521  0.24177  0.38495  1.0000 0.1287426099
H   H85       1.0  0.69883  0.27349  0.64562  1.0000 0.1197966875
H   H86       1.0  0.77888  0.19302  0.69465  1.0000 0.1041231914
H   H87       1.0  0.74914  0.09916  0.05750  1.0000 0.1287426099
H   H88       1.0  0.78967  0.05466  0.97457  1.0000 0.1041231914
H   H89       1.0  0.84444  0.03942  0.24303  1.0000 0.1099207106
H   H90       1.0  0.80902  0.08464  0.33511  1.0000 0.1287426099
H   H91       1.0  0.96135  0.69839  0.48408  1.0000 0.1041231914
H   H92       1.0  0.91618  0.67027  0.37560  1.0000 0.1402389288
H   H93       1.0  0.89075  0.77466  0.26363  1.0000 0.1402389288
H   H94       1.0  0.93844  0.79637  0.36817  1.0000 0.1197966875
H   H95       1.0  0.85218  0.66241  0.35238  1.0000 0.1287426099
H   H96       1.0  0.79517  0.62210  0.34851  1.0000 0.1197966875
H   H97       1.0  0.71927  0.63122  0.09521  1.0000 0.1287426099
H   H98       1.0  0.73491  0.67512  0.95147  1.0000 0.2745700807
H   H99       1.0  0.86479  0.74177  0.11505  1.0000 0.1287426099
H   H100      1.0  0.80117  0.77349  0.85438  1.0000 0.1197966875
H   H101      1.0  0.72112  0.69302  0.80535  1.0000 0.1041231914
H   H102      1.0  0.75086  0.59916  0.44250  1.0000 0.1287426099
H   H103      1.0  0.71033  0.55466  0.52543  1.0000 0.1041231914
H   H104      1.0  0.65556  0.53942  0.25697  1.0000 0.1099207106
H   H105      1.0  0.69098  0.58464  0.16489  1.0000 0.1287426099
H   H106      1.0  0.03865  0.30161  0.48408  1.0000 0.1041231914
H   H107      1.0  0.08382  0.32973  0.37560  1.0000 0.1402389288
H   H108      1.0  0.10925  0.22534  0.26363  1.0000 0.1402389288
H   H109      1.0  0.06156  0.20363  0.36817  1.0000 0.1197966875
H   H110      1.0  0.14782  0.33759  0.35238  1.0000 0.1287426099
H   H111      1.0  0.20483  0.37790  0.34851  1.0000 0.1197966875
H   H112      1.0  0.28073  0.36878  0.09521  1.0000 0.1287426099
H   H113      1.0  0.26509  0.32488  0.95147  1.0000 0.2745700807
H   H114      1.0  0.13521  0.25823  0.11505  1.0000 0.1287426099
H   H115      1.0  0.19883  0.22651  0.85438  1.0000 0.1197966875
H   H116      1.0  0.27888  0.30698  0.80535  1.0000 0.1041231914
H   H117      1.0  0.24914  0.40084  0.44250  1.0000 0.1287426099
H   H118      1.0  0.28967  0.44534  0.52543  1.0000 0.1041231914
H   H119      1.0  0.34444  0.46058  0.25697  1.0000 0.1099207106
H   H120      1.0  0.30902  0.41536  0.16489  1.0000 0.1287426099
H   H121      1.0  0.80161  0.53865  0.98408  1.0000 0.1041231914
H   H122      1.0  0.82973  0.58382  0.87560  1.0000 0.1402389288
H   H123      1.0  0.72534  0.60925  0.76363  1.0000 0.1402389288
H   H124      1.0  0.70363  0.56156  0.86817  1.0000 0.1197966875
H   H125      1.0  0.83759  0.64782  0.85238  1.0000 0.1287426099
H   H126      1.0  0.87790  0.70483  0.84851  1.0000 0.1197966875
H   H127      1.0  0.86878  0.78073  0.59521  1.0000 0.1287426099
H   H128      1.0  0.82488  0.76509  0.45147  1.0000 0.2745700807
H   H129      1.0  0.75823  0.63521  0.61505  1.0000 0.1287426099
H   H130      1.0  0.72651  0.69883  0.35438  1.0000 0.1197966875
H   H131      1.0  0.80698  0.77888  0.30535  1.0000 0.1041231914
H   H132      1.0  0.90084  0.74914  0.94250  1.0000 0.1287426099
H   H133      1.0  0.94534  0.78967  0.02543  1.0000 0.1041231914
H   H134      1.0  0.96058  0.84444  0.75697  1.0000 0.1099207106
H   H135      1.0  0.91536  0.80902  0.66489  1.0000 0.1287426099
H   H136      1.0  0.19839  0.46135  0.98408  1.0000 0.1041231914
H   H137      1.0  0.17027  0.41618  0.87560  1.0000 0.1402389288
H   H138      1.0  0.27466  0.39075  0.76363  1.0000 0.1402389288
H   H139      1.0  0.29637  0.43844  0.86817  1.0000 0.1197966875
H   H140      1.0  0.16241  0.35218  0.85238  1.0000 0.1287426099
H   H141      1.0  0.12210  0.29517  0.84851  1.0000 0.1197966875
H   H142      1.0  0.13122  0.21927  0.59521  1.0000 0.1287426099
H   H143      1.0  0.17512  0.23491  0.45147  1.0000 0.2745700807
H   H144      1.0  0.24177  0.36479  0.61505  1.0000 0.1287426099
H   H145      1.0  0.27349  0.30117  0.35438  1.0000 0.1197966875
H   H146      1.0  0.19302  0.22112  0.30535  1.0000 0.1041231914
H   H147      1.0  0.09916  0.25086  0.94250  1.0000 0.1287426099
H   H148      1.0  0.05466  0.21033  0.02543  1.0000 0.1041231914
H   H149      1.0  0.03942  0.15556  0.75697  1.0000 0.1099207106
H   H150      1.0  0.08464  0.19098  0.66489  1.0000 0.1287426099
H   H151      1.0  0.30161  0.96135  0.51592  1.0000 0.1041231914
H   H152      1.0  0.32973  0.91618  0.62440  1.0000 0.1402389288
H   H153      1.0  0.22534  0.89075  0.73637  1.0000 0.1402389288
H   H154      1.0  0.20363  0.93844  0.63183  1.0000 0.1197966875
H   H155      1.0  0.33759  0.85218  0.64762  1.0000 0.1287426099
H   H156      1.0  0.37790  0.79517  0.65149  1.0000 0.1197966875
H   H157      1.0  0.36878  0.71927  0.90479  1.0000 0.1287426099
H   H158      1.0  0.32488  0.73491  0.04853  1.0000 0.2745700807
H   H159      1.0  0.25823  0.86479  0.88495  1.0000 0.1287426099
H   H160      1.0  0.22651  0.80117  0.14562  1.0000 0.1197966875
H   H161      1.0  0.30698  0.72112  0.19465  1.0000 0.1041231914
H   H162      1.0  0.40084  0.75086  0.55750  1.0000 0.1287426099
H   H163      1.0  0.44534  0.71033  0.47457  1.0000 0.1041231914
H   H164      1.0  0.46058  0.65556  0.74303  1.0000 0.1099207106
H   H165      1.0  0.41536  0.69098  0.83511  1.0000 0.1287426099
H   H166      1.0  0.69839  0.03865  0.51592  1.0000 0.1041231914
H   H167      1.0  0.67027  0.08382  0.62440  1.0000 0.1402389288
H   H168      1.0  0.77466  0.10925  0.73637  1.0000 0.1402389288
H   H169      1.0  0.79637  0.06156  0.63183  1.0000 0.1197966875
H   H170      1.0  0.66241  0.14782  0.64762  1.0000 0.1287426099
H   H171      1.0  0.62210  0.20483  0.65149  1.0000 0.1197966875
H   H172      1.0  0.63122  0.28073  0.90479  1.0000 0.1287426099
H   H173      1.0  0.67512  0.26509  0.04853  1.0000 0.2745700807
H   H174      1.0  0.74177  0.13521  0.88495  1.0000 0.1287426099
H   H175      1.0  0.77349  0.19883  0.14562  1.0000 0.1197966875
H   H176      1.0  0.69302  0.27888  0.19465  1.0000 0.1041231914
H   H177      1.0  0.59916  0.24914  0.55750  1.0000 0.1287426099
H   H178      1.0  0.55466  0.28967  0.47457  1.0000 0.1041231914
H   H179      1.0  0.53942  0.34444  0.74303  1.0000 0.1099207106
H   H180      1.0  0.58464  0.30902  0.83511  1.0000 0.1287426099
H   H181      1.0  0.69839  0.96135  0.51592  1.0000 0.1041231914
H   H182      1.0  0.67027  0.91618  0.62440  1.0000 0.1402389288
H   H183      1.0  0.77466  0.89075  0.73637  1.0000 0.1402389288
H   H184      1.0  0.79637  0.93844  0.63183  1.0000 0.1197966875
H   H185      1.0  0.66241  0.85218  0.64762  1.0000 0.1287426099
H   H186      1.0  0.62210  0.79517  0.65149  1.0000 0.1197966875
H   H187      1.0  0.63122  0.71927  0.90479  1.0000 0.1287426099
H   H188      1.0  0.67512  0.73491  0.04853  1.0000 0.2745700807
H   H189      1.0  0.74177  0.86479  0.88495  1.0000 0.1287426099
H   H190      1.0  0.77349  0.80117  0.14562  1.0000 0.1197966875
H   H191      1.0  0.69302  0.72112  0.19465  1.0000 0.1041231914
H   H192      1.0  0.59916  0.75086  0.55750  1.0000 0.1287426099
H   H193      1.0  0.55466  0.71033  0.47457  1.0000 0.1041231914
H   H194      1.0  0.53942  0.65556  0.74303  1.0000 0.1099207106
H   H195      1.0  0.58464  0.69098  0.83511  1.0000 0.1287426099
H   H196      1.0  0.30161  0.03865  0.51592  1.0000 0.1041231914
H   H197      1.0  0.32973  0.08382  0.62440  1.0000 0.1402389288
H   H198      1.0  0.22534  0.10925  0.73637  1.0000 0.1402389288
H   H199      1.0  0.20363  0.06156  0.63183  1.0000 0.1197966875
H   H200      1.0  0.33759  0.14782  0.64762  1.0000 0.1287426099
H   H201      1.0  0.37790  0.20483  0.65149  1.0000 0.1197966875
H   H202      1.0  0.36878  0.28073  0.90479  1.0000 0.1287426099
H   H203      1.0  0.32488  0.26509  0.04853  1.0000 0.2745700807
H   H204      1.0  0.25823  0.13521  0.88495  1.0000 0.1287426099
H   H205      1.0  0.22651  0.19883  0.14562  1.0000 0.1197966875
H   H206      1.0  0.30698  0.27888  0.19465  1.0000 0.1041231914
H   H207      1.0  0.40084  0.24914  0.55750  1.0000 0.1287426099
H   H208      1.0  0.44534  0.28967  0.47457  1.0000 0.1041231914
H   H209      1.0  0.46058  0.34444  0.74303  1.0000 0.1099207106
H   H210      1.0  0.41536  0.30902  0.83511  1.0000 0.1287426099
H   H211      1.0  0.19839  0.53865  0.98408  1.0000 0.1041231914
H   H212      1.0  0.17027  0.58382  0.87560  1.0000 0.1402389288
H   H213      1.0  0.27466  0.60925  0.76363  1.0000 0.1402389288
H   H214      1.0  0.29637  0.56156  0.86817  1.0000 0.1197966875
H   H215      1.0  0.16241  0.64782  0.85238  1.0000 0.1287426099
H   H216      1.0  0.12210  0.70483  0.84851  1.0000 0.1197966875
H   H217      1.0  0.13122  0.78073  0.59521  1.0000 0.1287426099
H   H218      1.0  0.17512  0.76509  0.45147  1.0000 0.2745700807
H   H219      1.0  0.24177  0.63521  0.61505  1.0000 0.1287426099
H   H220      1.0  0.27349  0.69883  0.35438  1.0000 0.1197966875
H   H221      1.0  0.19302  0.77888  0.30535  1.0000 0.1041231914
H   H222      1.0  0.09916  0.74914  0.94250  1.0000 0.1287426099
H   H223      1.0  0.05466  0.78967  0.02543  1.0000 0.1041231914
H   H224      1.0  0.03942  0.84444  0.75697  1.0000 0.1099207106
H   H225      1.0  0.08464  0.80902  0.66489  1.0000 0.1287426099
H   H226      1.0  0.80161  0.46135  0.98408  1.0000 0.1041231914
H   H227      1.0  0.82973  0.41618  0.87560  1.0000 0.1402389288
H   H228      1.0  0.72534  0.39075  0.76363  1.0000 0.1402389288
H   H229      1.0  0.70363  0.43844  0.86817  1.0000 0.1197966875
H   H230      1.0  0.83759  0.35218  0.85238  1.0000 0.1287426099
H   H231      1.0  0.87790  0.29517  0.84851  1.0000 0.1197966875
H   H232      1.0  0.86878  0.21927  0.59521  1.0000 0.1287426099
H   H233      1.0  0.82488  0.23491  0.45147  1.0000 0.2745700807
H   H234      1.0  0.75823  0.36479  0.61505  1.0000 0.1287426099
H   H235      1.0  0.72651  0.30117  0.35438  1.0000 0.1197966875
H   H236      1.0  0.80698  0.22112  0.30535  1.0000 0.1041231914
H   H237      1.0  0.90084  0.25086  0.94250  1.0000 0.1287426099
H   H238      1.0  0.94534  0.21033  0.02543  1.0000 0.1041231914
H   H239      1.0  0.96058  0.15556  0.75697  1.0000 0.1099207106
H   H240      1.0  0.91536  0.19098  0.66489  1.0000 0.1287426099
C   C1        1.0  0.05280  0.71390  0.43520  1.0000 0.0755138711
C   C2        1.0  0.08010  0.69690  0.37370  1.0000 -0.2169327305
C   C3        1.0  0.10330  0.72130  0.30500  1.0000 0.1099207106
C   C4        1.0  0.09500  0.75730  0.30680  1.0000 -0.2012181376
C   C5        1.0  0.06630  0.76990  0.36980  1.0000 0.0742136568
C   C6        1.0  0.13590  0.70390  0.24280  1.0000 0.0884411503
C   C7        1.0  0.15600  0.67410  0.28590  1.0000 -0.2169327305
C   C8        1.0  0.18920  0.66050  0.23150  1.0000 0.1099207106
C   C9        1.0  0.21290  0.63320  0.28110  1.0000 -0.2012181376
C   C10       1.0  0.24770  0.62160  0.23700  1.0000 0.0884411503
C   C11       1.0  0.25790  0.63830  0.13120  1.0000 -0.2711937994
C   C12       1.0  0.23460  0.66410  0.08500  1.0000 0.1954682705
C   C13       1.0  0.22410  0.71240  0.94800  1.0000 0.3255005285
C   C14       1.0  0.18000  0.70720  0.09010  1.0000 0.2216651153
C   C15       1.0  0.14850  0.72070  0.14450  1.0000 -0.2339165926
C   C16       1.0  0.20080  0.67690  0.13520  1.0000 -0.080295543
C   C17       1.0  0.21960  0.76380  0.81350  1.0000 -0.0924987539
C   C18       1.0  0.23670  0.73140  0.84690  1.0000 0.0084449585
C   C19       1.0  0.26730  0.71610  0.78380  1.0000 -0.1548635334
C   C20       1.0  0.27240  0.59580  0.28890  1.0000 0.1099207106
C   C21       1.0  0.26830  0.58730  0.39990  1.0000 -0.2012181376
C   C22       1.0  0.29340  0.56040  0.44960  1.0000 0.1041231914
C   C23       1.0  0.32490  0.55200  0.29630  1.0000 0.1041231914
C   C24       1.0  0.30290  0.57850  0.23910  1.0000 -0.1792590881
C   C25       1.0  0.94720  0.28610  0.43520  1.0000 0.0755138711
C   C26       1.0  0.91990  0.30310  0.37370  1.0000 -0.2169327305
C   C27       1.0  0.89670  0.27870  0.30500  1.0000 0.1099207106
C   C28       1.0  0.90500  0.24270  0.30680  1.0000 -0.2012181376
C   C29       1.0  0.93370  0.23010  0.36980  1.0000 0.0742136568
C   C30       1.0  0.86410  0.29610  0.24280  1.0000 0.0884411503
C   C31       1.0  0.84400  0.32590  0.28590  1.0000 -0.2169327305
C   C32       1.0  0.81080  0.33950  0.23150  1.0000 0.1099207106
C   C33       1.0  0.78710  0.36680  0.28110  1.0000 -0.2012181376
C   C34       1.0  0.75230  0.37840  0.23700  1.0000 0.0884411503
C   C35       1.0  0.74210  0.36170  0.13120  1.0000 -0.2711937994
C   C36       1.0  0.76540  0.33590  0.08500  1.0000 0.1954682705
C   C37       1.0  0.77590  0.28760  0.94800  1.0000 0.3255005285
C   C38       1.0  0.82000  0.29280  0.09010  1.0000 0.2216651153
C   C39       1.0  0.85150  0.27930  0.14450  1.0000 -0.2339165926
C   C40       1.0  0.79920  0.32310  0.13520  1.0000 -0.080295543
C   C41       1.0  0.78040  0.23620  0.81350  1.0000 -0.0924987539
C   C42       1.0  0.76330  0.26860  0.84690  1.0000 0.0084449585
C   C43       1.0  0.73270  0.28390  0.78380  1.0000 -0.1548635334
C   C44       1.0  0.72760  0.40420  0.28890  1.0000 0.1099207106
C   C45       1.0  0.73170  0.41270  0.39990  1.0000 -0.2012181376
C   C46       1.0  0.70660  0.43960  0.44960  1.0000 0.1041231914
C   C47       1.0  0.67510  0.44800  0.29630  1.0000 0.1041231914
C   C48       1.0  0.69710  0.42150  0.23910  1.0000 -0.1792590881
C   C49       1.0  0.55280  0.78610  0.06480  1.0000 0.0755138711
C   C50       1.0  0.58010  0.80310  0.12630  1.0000 -0.2169327305
C   C51       1.0  0.60330  0.77870  0.19500  1.0000 0.1099207106
C   C52       1.0  0.59500  0.74270  0.19320  1.0000 -0.2012181376
C   C53       1.0  0.56630  0.73010  0.13020  1.0000 0.0742136568
C   C54       1.0  0.63590  0.79610  0.25720  1.0000 0.0884411503
C   C55       1.0  0.65600  0.82590  0.21410  1.0000 -0.2169327305
C   C56       1.0  0.68920  0.83950  0.26850  1.0000 0.1099207106
C   C57       1.0  0.71290  0.86680  0.21890  1.0000 -0.2012181376
C   C58       1.0  0.74770  0.87840  0.26300  1.0000 0.0884411503
C   C59       1.0  0.75790  0.86170  0.36880  1.0000 -0.2711937994
C   C60       1.0  0.73460  0.83590  0.41500  1.0000 0.1954682705
C   C61       1.0  0.72410  0.78760  0.55200  1.0000 0.3255005285
C   C62       1.0  0.68000  0.79280  0.40990  1.0000 0.2216651153
C   C63       1.0  0.64850  0.77930  0.35550  1.0000 -0.2339165926
C   C64       1.0  0.70080  0.82310  0.36480  1.0000 -0.080295543
C   C65       1.0  0.71960  0.73620  0.68650  1.0000 -0.0924987539
C   C66       1.0  0.73670  0.76860  0.65310  1.0000 0.0084449585
C   C67       1.0  0.76730  0.78390  0.71620  1.0000 -0.1548635334
C   C68       1.0  0.77240  0.90420  0.21110  1.0000 0.1099207106
C   C69       1.0  0.76830  0.91270  0.10010  1.0000 -0.2012181376
C   C70       1.0  0.79340  0.93960  0.05040  1.0000 0.1041231914
C   C71       1.0  0.82490  0.94800  0.20370  1.0000 0.1041231914
C   C72       1.0  0.80290  0.92150  0.26090  1.0000 -0.1792590881
C   C73       1.0  0.44720  0.21390  0.06480  1.0000 0.0755138711
C   C74       1.0  0.41990  0.19690  0.12630  1.0000 -0.2169327305
C   C75       1.0  0.39670  0.22130  0.19500  1.0000 0.1099207106
C   C76       1.0  0.40500  0.25730  0.19320  1.0000 -0.2012181376
C   C77       1.0  0.43370  0.26990  0.13020  1.0000 0.0742136568
C   C78       1.0  0.36410  0.20390  0.25720  1.0000 0.0884411503
C   C79       1.0  0.34400  0.17410  0.21410  1.0000 -0.2169327305
C   C80       1.0  0.31080  0.16050  0.26850  1.0000 0.1099207106
C   C81       1.0  0.28710  0.13320  0.21890  1.0000 -0.2012181376
C   C82       1.0  0.25230  0.12160  0.26300  1.0000 0.0884411503
C   C83       1.0  0.24210  0.13830  0.36880  1.0000 -0.2711937994
C   C84       1.0  0.26540  0.16410  0.41500  1.0000 0.1954682705
C   C85       1.0  0.27590  0.21240  0.55200  1.0000 0.3255005285
C   C86       1.0  0.32000  0.20720  0.40990  1.0000 0.2216651153
C   C87       1.0  0.35150  0.22070  0.35550  1.0000 -0.2339165926
C   C88       1.0  0.29920  0.17690  0.36480  1.0000 -0.080295543
C   C89       1.0  0.28040  0.26380  0.68650  1.0000 -0.0924987539
C   C90       1.0  0.26330  0.23140  0.65310  1.0000 0.0084449585
C   C91       1.0  0.23270  0.21610  0.71620  1.0000 -0.1548635334
C   C92       1.0  0.22760  0.09580  0.21110  1.0000 0.1099207106
C   C93       1.0  0.23170  0.08730  0.10010  1.0000 -0.2012181376
C   C94       1.0  0.20660  0.06040  0.05040  1.0000 0.1041231914
C   C95       1.0  0.17510  0.05200  0.20370  1.0000 0.1041231914
C   C96       1.0  0.19710  0.07850  0.26090  1.0000 -0.1792590881
C   C97       1.0  0.44720  0.78610  0.06480  1.0000 0.0755138711
C   C98       1.0  0.41990  0.80310  0.12630  1.0000 -0.2169327305
C   C99       1.0  0.39670  0.77870  0.19500  1.0000 0.1099207106
C   C100      1.0  0.40500  0.74270  0.19320  1.0000 -0.2012181376
C   C101      1.0  0.43370  0.73010  0.13020  1.0000 0.0742136568
C   C102      1.0  0.36410  0.79610  0.25720  1.0000 0.0884411503
C   C103      1.0  0.34400  0.82590  0.21410  1.0000 -0.2169327305
C   C104      1.0  0.31080  0.83950  0.26850  1.0000 0.1099207106
C   C105      1.0  0.28710  0.86680  0.21890  1.0000 -0.2012181376
C   C106      1.0  0.25230  0.87840  0.26300  1.0000 0.0884411503
C   C107      1.0  0.24210  0.86170  0.36880  1.0000 -0.2711937994
C   C108      1.0  0.26540  0.83590  0.41500  1.0000 0.1954682705
C   C109      1.0  0.27590  0.78760  0.55200  1.0000 0.3255005285
C   C110      1.0  0.32000  0.79280  0.40990  1.0000 0.2216651153
C   C111      1.0  0.35150  0.77930  0.35550  1.0000 -0.2339165926
C   C112      1.0  0.29920  0.82310  0.36480  1.0000 -0.080295543
C   C113      1.0  0.28040  0.73620  0.68650  1.0000 -0.0924987539
C   C114      1.0  0.26330  0.76860  0.65310  1.0000 0.0084449585
C   C115      1.0  0.23270  0.78390  0.71620  1.0000 -0.1548635334
C   C116      1.0  0.22760  0.90420  0.21110  1.0000 0.1099207106
C   C117      1.0  0.23170  0.91270  0.10010  1.0000 -0.2012181376
C   C118      1.0  0.20660  0.93960  0.05040  1.0000 0.1041231914
C   C119      1.0  0.17510  0.94800  0.20370  1.0000 0.1041231914
C   C120      1.0  0.19710  0.92150  0.26090  1.0000 -0.1792590881
C   C121      1.0  0.55280  0.21390  0.06480  1.0000 0.0755138711
C   C122      1.0  0.58010  0.19690  0.12630  1.0000 -0.2169327305
C   C123      1.0  0.60330  0.22130  0.19500  1.0000 0.1099207106
C   C124      1.0  0.59500  0.25730  0.19320  1.0000 -0.2012181376
C   C125      1.0  0.56630  0.26990  0.13020  1.0000 0.0742136568
C   C126      1.0  0.63590  0.20390  0.25720  1.0000 0.0884411503
C   C127      1.0  0.65600  0.17410  0.21410  1.0000 -0.2169327305
C   C128      1.0  0.68920  0.16050  0.26850  1.0000 0.1099207106
C   C129      1.0  0.71290  0.13320  0.21890  1.0000 -0.2012181376
C   C130      1.0  0.74770  0.12160  0.26300  1.0000 0.0884411503
C   C131      1.0  0.75790  0.13830  0.36880  1.0000 -0.2711937994
C   C132      1.0  0.73460  0.16410  0.41500  1.0000 0.1954682705
C   C133      1.0  0.72410  0.21240  0.55200  1.0000 0.3255005285
C   C134      1.0  0.68000  0.20720  0.40990  1.0000 0.2216651153
C   C135      1.0  0.64850  0.22070  0.35550  1.0000 -0.2339165926
C   C136      1.0  0.70080  0.17690  0.36480  1.0000 -0.080295543
C   C137      1.0  0.71960  0.26380  0.68650  1.0000 -0.0924987539
C   C138      1.0  0.73670  0.23140  0.65310  1.0000 0.0084449585
C   C139      1.0  0.76730  0.21610  0.71620  1.0000 -0.1548635334
C   C140      1.0  0.77240  0.09580  0.21110  1.0000 0.1099207106
C   C141      1.0  0.76830  0.08730  0.10010  1.0000 -0.2012181376
C   C142      1.0  0.79340  0.06040  0.05040  1.0000 0.1041231914
C   C143      1.0  0.82490  0.05200  0.20370  1.0000 0.1041231914
C   C144      1.0  0.80290  0.07850  0.26090  1.0000 -0.1792590881
C   C145      1.0  0.94720  0.71390  0.43520  1.0000 0.0755138711
C   C146      1.0  0.91990  0.69690  0.37370  1.0000 -0.2169327305
C   C147      1.0  0.89670  0.72130  0.30500  1.0000 0.1099207106
C   C148      1.0  0.90500  0.75730  0.30680  1.0000 -0.2012181376
C   C149      1.0  0.93370  0.76990  0.36980  1.0000 0.0742136568
C   C150      1.0  0.86410  0.70390  0.24280  1.0000 0.0884411503
C   C151      1.0  0.84400  0.67410  0.28590  1.0000 -0.2169327305
C   C152      1.0  0.81080  0.66050  0.23150  1.0000 0.1099207106
C   C153      1.0  0.78710  0.63320  0.28110  1.0000 -0.2012181376
C   C154      1.0  0.75230  0.62160  0.23700  1.0000 0.0884411503
C   C155      1.0  0.74210  0.63830  0.13120  1.0000 -0.2711937994
C   C156      1.0  0.76540  0.66410  0.08500  1.0000 0.1954682705
C   C157      1.0  0.77590  0.71240  0.94800  1.0000 0.3255005285
C   C158      1.0  0.82000  0.70720  0.09010  1.0000 0.2216651153
C   C159      1.0  0.85150  0.72070  0.14450  1.0000 -0.2339165926
C   C160      1.0  0.79920  0.67690  0.13520  1.0000 -0.080295543
C   C161      1.0  0.78040  0.76380  0.81350  1.0000 -0.0924987539
C   C162      1.0  0.76330  0.73140  0.84690  1.0000 0.0084449585
C   C163      1.0  0.73270  0.71610  0.78380  1.0000 -0.1548635334
C   C164      1.0  0.72760  0.59580  0.28890  1.0000 0.1099207106
C   C165      1.0  0.73170  0.58730  0.39990  1.0000 -0.2012181376
C   C166      1.0  0.70660  0.56040  0.44960  1.0000 0.1041231914
C   C167      1.0  0.67510  0.55200  0.29630  1.0000 0.1041231914
C   C168      1.0  0.69710  0.57850  0.23910  1.0000 -0.1792590881
C   C169      1.0  0.05280  0.28610  0.43520  1.0000 0.0755138711
C   C170      1.0  0.08010  0.30310  0.37370  1.0000 -0.2169327305
C   C171      1.0  0.10330  0.27870  0.30500  1.0000 0.1099207106
C   C172      1.0  0.09500  0.24270  0.30680  1.0000 -0.2012181376
C   C173      1.0  0.06630  0.23010  0.36980  1.0000 0.0742136568
C   C174      1.0  0.13590  0.29610  0.24280  1.0000 0.0884411503
C   C175      1.0  0.15600  0.32590  0.28590  1.0000 -0.2169327305
C   C176      1.0  0.18920  0.33950  0.23150  1.0000 0.1099207106
C   C177      1.0  0.21290  0.36680  0.28110  1.0000 -0.2012181376
C   C178      1.0  0.24770  0.37840  0.23700  1.0000 0.0884411503
C   C179      1.0  0.25790  0.36170  0.13120  1.0000 -0.2711937994
C   C180      1.0  0.23460  0.33590  0.08500  1.0000 0.1954682705
C   C181      1.0  0.22410  0.28760  0.94800  1.0000 0.3255005285
C   C182      1.0  0.18000  0.29280  0.09010  1.0000 0.2216651153
C   C183      1.0  0.14850  0.27930  0.14450  1.0000 -0.2339165926
C   C184      1.0  0.20080  0.32310  0.13520  1.0000 -0.080295543
C   C185      1.0  0.21960  0.23620  0.81350  1.0000 -0.0924987539
C   C186      1.0  0.23670  0.26860  0.84690  1.0000 0.0084449585
C   C187      1.0  0.26730  0.28390  0.78380  1.0000 -0.1548635334
C   C188      1.0  0.27240  0.40420  0.28890  1.0000 0.1099207106
C   C189      1.0  0.26830  0.41270  0.39990  1.0000 -0.2012181376
C   C190      1.0  0.29340  0.43960  0.44960  1.0000 0.1041231914
C   C191      1.0  0.32490  0.44800  0.29630  1.0000 0.1041231914
C   C192      1.0  0.30290  0.42150  0.23910  1.0000 -0.1792590881
C   C193      1.0  0.78610  0.55280  0.93520  1.0000 0.0755138711
C   C194      1.0  0.80310  0.58010  0.87370  1.0000 -0.2169327305
C   C195      1.0  0.77870  0.60330  0.80500  1.0000 0.1099207106
C   C196      1.0  0.74270  0.59500  0.80680  1.0000 -0.2012181376
C   C197      1.0  0.73010  0.56630  0.86980  1.0000 0.0742136568
C   C198      1.0  0.79610  0.63590  0.74280  1.0000 0.0884411503
C   C199      1.0  0.82590  0.65600  0.78590  1.0000 -0.2169327305
C   C200      1.0  0.83950  0.68920  0.73150  1.0000 0.1099207106
C   C201      1.0  0.86680  0.71290  0.78110  1.0000 -0.2012181376
C   C202      1.0  0.87840  0.74770  0.73700  1.0000 0.0884411503
C   C203      1.0  0.86170  0.75790  0.63120  1.0000 -0.2711937994
C   C204      1.0  0.83590  0.73460  0.58500  1.0000 0.1954682705
C   C205      1.0  0.78760  0.72410  0.44800  1.0000 0.3255005285
C   C206      1.0  0.79280  0.68000  0.59010  1.0000 0.2216651153
C   C207      1.0  0.77930  0.64850  0.64450  1.0000 -0.2339165926
C   C208      1.0  0.82310  0.70080  0.63520  1.0000 -0.080295543
C   C209      1.0  0.73620  0.71960  0.31350  1.0000 -0.0924987539
C   C210      1.0  0.76860  0.73670  0.34690  1.0000 0.0084449585
C   C211      1.0  0.78390  0.76730  0.28380  1.0000 -0.1548635334
C   C212      1.0  0.90420  0.77240  0.78890  1.0000 0.1099207106
C   C213      1.0  0.91270  0.76830  0.89990  1.0000 -0.2012181376
C   C214      1.0  0.93960  0.79340  0.94960  1.0000 0.1041231914
C   C215      1.0  0.94800  0.82490  0.79630  1.0000 0.1041231914
C   C216      1.0  0.92150  0.80290  0.73910  1.0000 -0.1792590881
C   C217      1.0  0.21390  0.44720  0.93520  1.0000 0.0755138711
C   C218      1.0  0.19690  0.41990  0.87370  1.0000 -0.2169327305
C   C219      1.0  0.22130  0.39670  0.80500  1.0000 0.1099207106
C   C220      1.0  0.25730  0.40500  0.80680  1.0000 -0.2012181376
C   C221      1.0  0.26990  0.43370  0.86980  1.0000 0.0742136568
C   C222      1.0  0.20390  0.36410  0.74280  1.0000 0.0884411503
C   C223      1.0  0.17410  0.34400  0.78590  1.0000 -0.2169327305
C   C224      1.0  0.16050  0.31080  0.73150  1.0000 0.1099207106
C   C225      1.0  0.13320  0.28710  0.78110  1.0000 -0.2012181376
C   C226      1.0  0.12160  0.25230  0.73700  1.0000 0.0884411503
C   C227      1.0  0.13830  0.24210  0.63120  1.0000 -0.2711937994
C   C228      1.0  0.16410  0.26540  0.58500  1.0000 0.1954682705
C   C229      1.0  0.21240  0.27590  0.44800  1.0000 0.3255005285
C   C230      1.0  0.20720  0.32000  0.59010  1.0000 0.2216651153
C   C231      1.0  0.22070  0.35150  0.64450  1.0000 -0.2339165926
C   C232      1.0  0.17690  0.29920  0.63520  1.0000 -0.080295543
C   C233      1.0  0.26380  0.28040  0.31350  1.0000 -0.0924987539
C   C234      1.0  0.23140  0.26330  0.34690  1.0000 0.0084449585
C   C235      1.0  0.21610  0.23270  0.28380  1.0000 -0.1548635334
C   C236      1.0  0.09580  0.22760  0.78890  1.0000 0.1099207106
C   C237      1.0  0.08730  0.23170  0.89990  1.0000 -0.2012181376
C   C238      1.0  0.06040  0.20660  0.94960  1.0000 0.1041231914
C   C239      1.0  0.05200  0.17510  0.79630  1.0000 0.1041231914
C   C240      1.0  0.07850  0.19710  0.73910  1.0000 -0.1792590881
C   C241      1.0  0.28610  0.94720  0.56480  1.0000 0.0755138711
C   C242      1.0  0.30310  0.91990  0.62630  1.0000 -0.2169327305
C   C243      1.0  0.27870  0.89670  0.69500  1.0000 0.1099207106
C   C244      1.0  0.24270  0.90500  0.69320  1.0000 -0.2012181376
C   C245      1.0  0.23010  0.93370  0.63020  1.0000 0.0742136568
C   C246      1.0  0.29610  0.86410  0.75720  1.0000 0.0884411503
C   C247      1.0  0.32590  0.84400  0.71410  1.0000 -0.2169327305
C   C248      1.0  0.33950  0.81080  0.76850  1.0000 0.1099207106
C   C249      1.0  0.36680  0.78710  0.71890  1.0000 -0.2012181376
C   C250      1.0  0.37840  0.75230  0.76300  1.0000 0.0884411503
C   C251      1.0  0.36170  0.74210  0.86880  1.0000 -0.2711937994
C   C252      1.0  0.33590  0.76540  0.91500  1.0000 0.1954682705
C   C253      1.0  0.28760  0.77590  0.05200  1.0000 0.3255005285
C   C254      1.0  0.29280  0.82000  0.90990  1.0000 0.2216651153
C   C255      1.0  0.27930  0.85150  0.85550  1.0000 -0.2339165926
C   C256      1.0  0.32310  0.79920  0.86480  1.0000 -0.080295543
C   C257      1.0  0.23620  0.78040  0.18650  1.0000 -0.0924987539
C   C258      1.0  0.26860  0.76330  0.15310  1.0000 0.0084449585
C   C259      1.0  0.28390  0.73270  0.21620  1.0000 -0.1548635334
C   C260      1.0  0.40420  0.72760  0.71110  1.0000 0.1099207106
C   C261      1.0  0.41270  0.73170  0.60010  1.0000 -0.2012181376
C   C262      1.0  0.43960  0.70660  0.55040  1.0000 0.1041231914
C   C263      1.0  0.44800  0.67510  0.70370  1.0000 0.1041231914
C   C264      1.0  0.42150  0.69710  0.76090  1.0000 -0.1792590881
C   C265      1.0  0.71390  0.05280  0.56480  1.0000 0.0755138711
C   C266      1.0  0.69690  0.08010  0.62630  1.0000 -0.2169327305
C   C267      1.0  0.72130  0.10330  0.69500  1.0000 0.1099207106
C   C268      1.0  0.75730  0.09500  0.69320  1.0000 -0.2012181376
C   C269      1.0  0.76990  0.06630  0.63020  1.0000 0.0742136568
C   C270      1.0  0.70390  0.13590  0.75720  1.0000 0.0884411503
C   C271      1.0  0.67410  0.15600  0.71410  1.0000 -0.2169327305
C   C272      1.0  0.66050  0.18920  0.76850  1.0000 0.1099207106
C   C273      1.0  0.63320  0.21290  0.71890  1.0000 -0.2012181376
C   C274      1.0  0.62160  0.24770  0.76300  1.0000 0.0884411503
C   C275      1.0  0.63830  0.25790  0.86880  1.0000 -0.2711937994
C   C276      1.0  0.66410  0.23460  0.91500  1.0000 0.1954682705
C   C277      1.0  0.71240  0.22410  0.05200  1.0000 0.3255005285
C   C278      1.0  0.70720  0.18000  0.90990  1.0000 0.2216651153
C   C279      1.0  0.72070  0.14850  0.85550  1.0000 -0.2339165926
C   C280      1.0  0.67690  0.20080  0.86480  1.0000 -0.080295543
C   C281      1.0  0.76380  0.21960  0.18650  1.0000 -0.0924987539
C   C282      1.0  0.73140  0.23670  0.15310  1.0000 0.0084449585
C   C283      1.0  0.71610  0.26730  0.21620  1.0000 -0.1548635334
C   C284      1.0  0.59580  0.27240  0.71110  1.0000 0.1099207106
C   C285      1.0  0.58730  0.26830  0.60010  1.0000 -0.2012181376
C   C286      1.0  0.56040  0.29340  0.55040  1.0000 0.1041231914
C   C287      1.0  0.55200  0.32490  0.70370  1.0000 0.1041231914
C   C288      1.0  0.57850  0.30290  0.76090  1.0000 -0.1792590881
C   C289      1.0  0.71390  0.94720  0.56480  1.0000 0.0755138711
C   C290      1.0  0.69690  0.91990  0.62630  1.0000 -0.2169327305
C   C291      1.0  0.72130  0.89670  0.69500  1.0000 0.1099207106
C   C292      1.0  0.75730  0.90500  0.69320  1.0000 -0.2012181376
C   C293      1.0  0.76990  0.93370  0.63020  1.0000 0.0742136568
C   C294      1.0  0.70390  0.86410  0.75720  1.0000 0.0884411503
C   C295      1.0  0.67410  0.84400  0.71410  1.0000 -0.2169327305
C   C296      1.0  0.66050  0.81080  0.76850  1.0000 0.1099207106
C   C297      1.0  0.63320  0.78710  0.71890  1.0000 -0.2012181376
C   C298      1.0  0.62160  0.75230  0.76300  1.0000 0.0884411503
C   C299      1.0  0.63830  0.74210  0.86880  1.0000 -0.2711937994
C   C300      1.0  0.66410  0.76540  0.91500  1.0000 0.1954682705
C   C301      1.0  0.71240  0.77590  0.05200  1.0000 0.3255005285
C   C302      1.0  0.70720  0.82000  0.90990  1.0000 0.2216651153
C   C303      1.0  0.72070  0.85150  0.85550  1.0000 -0.2339165926
C   C304      1.0  0.67690  0.79920  0.86480  1.0000 -0.080295543
C   C305      1.0  0.76380  0.78040  0.18650  1.0000 -0.0924987539
C   C306      1.0  0.73140  0.76330  0.15310  1.0000 0.0084449585
C   C307      1.0  0.71610  0.73270  0.21620  1.0000 -0.1548635334
C   C308      1.0  0.59580  0.72760  0.71110  1.0000 0.1099207106
C   C309      1.0  0.58730  0.73170  0.60010  1.0000 -0.2012181376
C   C310      1.0  0.56040  0.70660  0.55040  1.0000 0.1041231914
C   C311      1.0  0.55200  0.67510  0.70370  1.0000 0.1041231914
C   C312      1.0  0.57850  0.69710  0.76090  1.0000 -0.1792590881
C   C313      1.0  0.28610  0.05280  0.56480  1.0000 0.0755138711
C   C314      1.0  0.30310  0.08010  0.62630  1.0000 -0.2169327305
C   C315      1.0  0.27870  0.10330  0.69500  1.0000 0.1099207106
C   C316      1.0  0.24270  0.09500  0.69320  1.0000 -0.2012181376
C   C317      1.0  0.23010  0.06630  0.63020  1.0000 0.0742136568
C   C318      1.0  0.29610  0.13590  0.75720  1.0000 0.0884411503
C   C319      1.0  0.32590  0.15600  0.71410  1.0000 -0.2169327305
C   C320      1.0  0.33950  0.18920  0.76850  1.0000 0.1099207106
C   C321      1.0  0.36680  0.21290  0.71890  1.0000 -0.2012181376
C   C322      1.0  0.37840  0.24770  0.76300  1.0000 0.0884411503
C   C323      1.0  0.36170  0.25790  0.86880  1.0000 -0.2711937994
C   C324      1.0  0.33590  0.23460  0.91500  1.0000 0.1954682705
C   C325      1.0  0.28760  0.22410  0.05200  1.0000 0.3255005285
C   C326      1.0  0.29280  0.18000  0.90990  1.0000 0.2216651153
C   C327      1.0  0.27930  0.14850  0.85550  1.0000 -0.2339165926
C   C328      1.0  0.32310  0.20080  0.86480  1.0000 -0.080295543
C   C329      1.0  0.23620  0.21960  0.18650  1.0000 -0.0924987539
C   C330      1.0  0.26860  0.23670  0.15310  1.0000 0.0084449585
C   C331      1.0  0.28390  0.26730  0.21620  1.0000 -0.1548635334
C   C332      1.0  0.40420  0.27240  0.71110  1.0000 0.1099207106
C   C333      1.0  0.41270  0.26830  0.60010  1.0000 -0.2012181376
C   C334      1.0  0.43960  0.29340  0.55040  1.0000 0.1041231914
C   C335      1.0  0.44800  0.32490  0.70370  1.0000 0.1041231914
C   C336      1.0  0.42150  0.30290  0.76090  1.0000 -0.1792590881
C   C337      1.0  0.21390  0.55280  0.93520  1.0000 0.0755138711
C   C338      1.0  0.19690  0.58010  0.87370  1.0000 -0.2169327305
C   C339      1.0  0.22130  0.60330  0.80500  1.0000 0.1099207106
C   C340      1.0  0.25730  0.59500  0.80680  1.0000 -0.2012181376
C   C341      1.0  0.26990  0.56630  0.86980  1.0000 0.0742136568
C   C342      1.0  0.20390  0.63590  0.74280  1.0000 0.0884411503
C   C343      1.0  0.17410  0.65600  0.78590  1.0000 -0.2169327305
C   C344      1.0  0.16050  0.68920  0.73150  1.0000 0.1099207106
C   C345      1.0  0.13320  0.71290  0.78110  1.0000 -0.2012181376
C   C346      1.0  0.12160  0.74770  0.73700  1.0000 0.0884411503
C   C347      1.0  0.13830  0.75790  0.63120  1.0000 -0.2711937994
C   C348      1.0  0.16410  0.73460  0.58500  1.0000 0.1954682705
C   C349      1.0  0.21240  0.72410  0.44800  1.0000 0.3255005285
C   C350      1.0  0.20720  0.68000  0.59010  1.0000 0.2216651153
C   C351      1.0  0.22070  0.64850  0.64450  1.0000 -0.2339165926
C   C352      1.0  0.17690  0.70080  0.63520  1.0000 -0.080295543
C   C353      1.0  0.26380  0.71960  0.31350  1.0000 -0.0924987539
C   C354      1.0  0.23140  0.73670  0.34690  1.0000 0.0084449585
C   C355      1.0  0.21610  0.76730  0.28380  1.0000 -0.1548635334
C   C356      1.0  0.09580  0.77240  0.78890  1.0000 0.1099207106
C   C357      1.0  0.08730  0.76830  0.89990  1.0000 -0.2012181376
C   C358      1.0  0.06040  0.79340  0.94960  1.0000 0.1041231914
C   C359      1.0  0.05200  0.82490  0.79630  1.0000 0.1041231914
C   C360      1.0  0.07850  0.80290  0.73910  1.0000 -0.1792590881
C   C361      1.0  0.78610  0.44720  0.93520  1.0000 0.0755138711
C   C362      1.0  0.80310  0.41990  0.87370  1.0000 -0.2169327305
C   C363      1.0  0.77870  0.39670  0.80500  1.0000 0.1099207106
C   C364      1.0  0.74270  0.40500  0.80680  1.0000 -0.2012181376
C   C365      1.0  0.73010  0.43370  0.86980  1.0000 0.0742136568
C   C366      1.0  0.79610  0.36410  0.74280  1.0000 0.0884411503
C   C367      1.0  0.82590  0.34400  0.78590  1.0000 -0.2169327305
C   C368      1.0  0.83950  0.31080  0.73150  1.0000 0.1099207106
C   C369      1.0  0.86680  0.28710  0.78110  1.0000 -0.2012181376
C   C370      1.0  0.87840  0.25230  0.73700  1.0000 0.0884411503
C   C371      1.0  0.86170  0.24210  0.63120  1.0000 -0.2711937994
C   C372      1.0  0.83590  0.26540  0.58500  1.0000 0.1954682705
C   C373      1.0  0.78760  0.27590  0.44800  1.0000 0.3255005285
C   C374      1.0  0.79280  0.32000  0.59010  1.0000 0.2216651153
C   C375      1.0  0.77930  0.35150  0.64450  1.0000 -0.2339165926
C   C376      1.0  0.82310  0.29920  0.63520  1.0000 -0.080295543
C   C377      1.0  0.73620  0.28040  0.31350  1.0000 -0.0924987539
C   C378      1.0  0.76860  0.26330  0.34690  1.0000 0.0084449585
C   C379      1.0  0.78390  0.23270  0.28380  1.0000 -0.1548635334
C   C380      1.0  0.90420  0.22760  0.78890  1.0000 0.1099207106
C   C381      1.0  0.91270  0.23170  0.89990  1.0000 -0.2012181376
C   C382      1.0  0.93960  0.20660  0.94960  1.0000 0.1041231914
C   C383      1.0  0.94800  0.17510  0.79630  1.0000 0.1041231914
C   C384      1.0  0.92150  0.19710  0.73910  1.0000 -0.1792590881
I   I1        1.0  0.00000  0.84048  0.52234  1.0000 -0.4378048748
I   I2        1.0  0.00000  0.72888  0.70333  1.0000 -0.4574470229
I   I3        1.0  0.00000  0.15952  0.52234  1.0000 -0.4378048748
I   I4        1.0  0.00000  0.27112  0.70333  1.0000 -0.4574470229
I   I5        1.0  0.50000  0.65952  0.97766  1.0000 -0.4378048748
I   I6        1.0  0.50000  0.77112  0.79667  1.0000 -0.4574470229
I   I7        1.0  0.50000  0.34048  0.97766  1.0000 -0.4378048748
I   I8        1.0  0.50000  0.22888  0.79667  1.0000 -0.4574470229
I   I9        1.0  0.33645  0.50000  0.67675  1.0000 -0.5080744445
I   I10       1.0  0.41489  0.50000  0.39390  1.0000 -0.3979710683
I   I11       1.0  0.66355  0.50000  0.67675  1.0000 -0.5080744445
I   I12       1.0  0.58511  0.50000  0.39390  1.0000 -0.3979710683
I   I13       1.0  0.83645  0.00000  0.82325  1.0000 -0.5080744445
I   I14       1.0  0.91489  0.00000  0.10610  1.0000 -0.3979710683
I   I15       1.0  0.16355  0.00000  0.82325  1.0000 -0.5080744445
I   I16       1.0  0.08511  0.00000  0.10610  1.0000 -0.3979710683
I   I17       1.0  0.65952  0.50000  0.02234  1.0000 -0.4378048748
I   I18       1.0  0.77112  0.50000  0.20333  1.0000 -0.4574470229
I   I19       1.0  0.34048  0.50000  0.02234  1.0000 -0.4378048748
I   I20       1.0  0.22888  0.50000  0.20333  1.0000 -0.4574470229
I   I21       1.0  0.15952  0.00000  0.47766  1.0000 -0.4378048748
I   I22       1.0  0.27112  0.00000  0.29667  1.0000 -0.4574470229
I   I23       1.0  0.84048  0.00000  0.47766  1.0000 -0.4378048748
I   I24       1.0  0.72888  0.00000  0.29667  1.0000 -0.4574470229
I   I25       1.0  0.00000  0.83645  0.17675  1.0000 -0.5080744445
I   I26       1.0  0.00000  0.91489  0.89390  1.0000 -0.3979710683
I   I27       1.0  0.00000  0.16355  0.17675  1.0000 -0.5080744445
I   I28       1.0  0.00000  0.08511  0.89390  1.0000 -0.3979710683
I   I29       1.0  0.50000  0.66355  0.32325  1.0000 -0.5080744445
I   I30       1.0  0.50000  0.58511  0.60610  1.0000 -0.3979710683
I   I31       1.0  0.50000  0.33645  0.32325  1.0000 -0.5080744445
I   I32       1.0  0.50000  0.41489  0.60610  1.0000 -0.3979710683
N   N1        1.0  0.04450  0.74980  0.43240  1.0000 -0.1792590881
N   N2        1.0  0.24490  0.68260  0.98780  1.0000 -0.346572709
N   N3        1.0  0.19230  0.72450  0.99380  1.0000 -0.3930260509
N   N4        1.0  0.32020  0.54370  0.39970  1.0000 -0.1902628268
N   N5        1.0  0.95550  0.25020  0.43240  1.0000 -0.1792590881
N   N6        1.0  0.75510  0.31740  0.98780  1.0000 -0.346572709
N   N7        1.0  0.80770  0.27550  0.99380  1.0000 -0.3930260509
N   N8        1.0  0.67980  0.45630  0.39970  1.0000 -0.1902628268
N   N9        1.0  0.54450  0.75020  0.06760  1.0000 -0.1792590881
N   N10       1.0  0.74490  0.81740  0.51220  1.0000 -0.346572709
N   N11       1.0  0.69230  0.77550  0.50620  1.0000 -0.3930260509
N   N12       1.0  0.82020  0.95630  0.10030  1.0000 -0.1902628268
N   N13       1.0  0.45550  0.24980  0.06760  1.0000 -0.1792590881
N   N14       1.0  0.25510  0.18260  0.51220  1.0000 -0.346572709
N   N15       1.0  0.30770  0.22450  0.50620  1.0000 -0.3930260509
N   N16       1.0  0.17980  0.04370  0.10030  1.0000 -0.1902628268
N   N17       1.0  0.45550  0.75020  0.06760  1.0000 -0.1792590881
N   N18       1.0  0.25510  0.81740  0.51220  1.0000 -0.346572709
N   N19       1.0  0.30770  0.77550  0.50620  1.0000 -0.3930260509
N   N20       1.0  0.17980  0.95630  0.10030  1.0000 -0.1902628268
N   N21       1.0  0.54450  0.24980  0.06760  1.0000 -0.1792590881
N   N22       1.0  0.74490  0.18260  0.51220  1.0000 -0.346572709
N   N23       1.0  0.69230  0.22450  0.50620  1.0000 -0.3930260509
N   N24       1.0  0.82020  0.04370  0.10030  1.0000 -0.1902628268
N   N25       1.0  0.95550  0.74980  0.43240  1.0000 -0.1792590881
N   N26       1.0  0.75510  0.68260  0.98780  1.0000 -0.346572709
N   N27       1.0  0.80770  0.72450  0.99380  1.0000 -0.3930260509
N   N28       1.0  0.67980  0.54370  0.39970  1.0000 -0.1902628268
N   N29       1.0  0.04450  0.25020  0.43240  1.0000 -0.1792590881
N   N30       1.0  0.24490  0.31740  0.98780  1.0000 -0.346572709
N   N31       1.0  0.19230  0.27550  0.99380  1.0000 -0.3930260509
N   N32       1.0  0.32020  0.45630  0.39970  1.0000 -0.1902628268
N   N33       1.0  0.75020  0.54450  0.93240  1.0000 -0.1792590881
N   N34       1.0  0.81740  0.74490  0.48780  1.0000 -0.346572709
N   N35       1.0  0.77550  0.69230  0.49380  1.0000 -0.3930260509
N   N36       1.0  0.95630  0.82020  0.89970  1.0000 -0.1902628268
N   N37       1.0  0.24980  0.45550  0.93240  1.0000 -0.1792590881
N   N38       1.0  0.18260  0.25510  0.48780  1.0000 -0.346572709
N   N39       1.0  0.22450  0.30770  0.49380  1.0000 -0.3930260509
N   N40       1.0  0.04370  0.17980  0.89970  1.0000 -0.1902628268
N   N41       1.0  0.25020  0.95550  0.56760  1.0000 -0.1792590881
N   N42       1.0  0.31740  0.75510  0.01220  1.0000 -0.346572709
N   N43       1.0  0.27550  0.80770  0.00620  1.0000 -0.3930260509
N   N44       1.0  0.45630  0.67980  0.60030  1.0000 -0.1902628268
N   N45       1.0  0.74980  0.04450  0.56760  1.0000 -0.1792590881
N   N46       1.0  0.68260  0.24490  0.01220  1.0000 -0.346572709
N   N47       1.0  0.72450  0.19230  0.00620  1.0000 -0.3930260509
N   N48       1.0  0.54370  0.32020  0.60030  1.0000 -0.1902628268
N   N49       1.0  0.74980  0.95550  0.56760  1.0000 -0.1792590881
N   N50       1.0  0.68260  0.75510  0.01220  1.0000 -0.346572709
N   N51       1.0  0.72450  0.80770  0.00620  1.0000 -0.3930260509
N   N52       1.0  0.54370  0.67980  0.60030  1.0000 -0.1902628268
N   N53       1.0  0.25020  0.04450  0.56760  1.0000 -0.1792590881
N   N54       1.0  0.31740  0.24490  0.01220  1.0000 -0.346572709
N   N55       1.0  0.27550  0.19230  0.00620  1.0000 -0.3930260509
N   N56       1.0  0.45630  0.32020  0.60030  1.0000 -0.1902628268
N   N57       1.0  0.24980  0.54450  0.93240  1.0000 -0.1792590881
N   N58       1.0  0.18260  0.74490  0.48780  1.0000 -0.346572709
N   N59       1.0  0.22450  0.69230  0.49380  1.0000 -0.3930260509
N   N60       1.0  0.04370  0.82020  0.89970  1.0000 -0.1902628268
N   N61       1.0  0.75020  0.45550  0.93240  1.0000 -0.1792590881
N   N62       1.0  0.81740  0.25510  0.48780  1.0000 -0.346572709
N   N63       1.0  0.77550  0.30770  0.49380  1.0000 -0.3930260509
N   N64       1.0  0.95630  0.17980  0.89970  1.0000 -0.1902628268
