# DDEC6 charges by PACMAN v1.1 (https://github.com/mtap-research/PACMAN-charge/)
data_2018[Cd][tav]3[ASR]1
_chemical_formula_sum              "Cd4 H28 C52 N4 O16"
_cell_length_a       10.1585
_cell_length_b       10.1585
_cell_length_c       20.706
_cell_angle_alpha    89.6087
_cell_angle_beta     90.3913
_cell_angle_gamma    43.2053

_symmetry_space_group_name_H-M    "P 1"
_symmetry_Int_Tables_number       1

loop_
  _symmetry_equiv_pos_as_xyz
  'x, y, z'

loop_
  _atom_site_type_symbol
  _atom_site_label
  _atom_site_symmetry_multiplicity
  _atom_site_fract_x
  _atom_site_fract_y
  _atom_site_fract_z
  _atom_site_occupancy
  _atom_site_charge
Cd  Cd1       1.0  0.80727  0.48623  0.52507  1.0000 0.9317974731
Cd  Cd2       1.0  0.48623  0.80727  0.97493  1.0000 0.9317974731
Cd  Cd3       1.0  0.19273  0.51377  0.47493  1.0000 0.9317974731
Cd  Cd4       1.0  0.51377  0.19273  0.02507  1.0000 0.9317974731
H   H1        1.0  0.86110  0.74570  0.69920  1.0000 0.1189770237
H   H2        1.0  0.83310  0.97470  0.53450  1.0000 0.137631706
H   H3        1.0  0.89610  0.11750  0.70480  1.0000 0.1300819339
H   H4        1.0  0.60600  0.44860  0.30010  1.0000 0.137631706
H   H5        1.0  0.67960  0.39480  0.40700  1.0000 0.1300819339
H   H6        1.0  0.72030  0.74630  0.40830  1.0000 0.1300819339
H   H7        1.0  0.65460  0.80980  0.30370  1.0000 0.137631706
H   H8        1.0  0.74570  0.86110  0.80080  1.0000 0.1189770237
H   H9        1.0  0.97470  0.83310  0.96550  1.0000 0.137631706
H   H10       1.0  0.11750  0.89610  0.79520  1.0000 0.1300819339
H   H11       1.0  0.44860  0.60600  0.19990  1.0000 0.137631706
H   H12       1.0  0.39480  0.67960  0.09300  1.0000 0.1300819339
H   H13       1.0  0.74630  0.72030  0.09170  1.0000 0.1300819339
H   H14       1.0  0.80980  0.65460  0.19630  1.0000 0.137631706
H   H15       1.0  0.13890  0.25430  0.30080  1.0000 0.1189770237
H   H16       1.0  0.16690  0.02530  0.46550  1.0000 0.137631706
H   H17       1.0  0.10390  0.88250  0.29520  1.0000 0.1300819339
H   H18       1.0  0.39400  0.55140  0.69990  1.0000 0.137631706
H   H19       1.0  0.32040  0.60520  0.59300  1.0000 0.1300819339
H   H20       1.0  0.27970  0.25370  0.59170  1.0000 0.1300819339
H   H21       1.0  0.34540  0.19020  0.69630  1.0000 0.137631706
H   H22       1.0  0.25430  0.13890  0.19920  1.0000 0.1189770237
H   H23       1.0  0.02530  0.16690  0.03450  1.0000 0.137631706
H   H24       1.0  0.88250  0.10390  0.20480  1.0000 0.1300819339
H   H25       1.0  0.55140  0.39400  0.80010  1.0000 0.137631706
H   H26       1.0  0.60520  0.32040  0.90700  1.0000 0.1300819339
H   H27       1.0  0.25370  0.27970  0.90830  1.0000 0.137631706
H   H28       1.0  0.19020  0.34540  0.80370  1.0000 0.137631706
C   C1        1.0  0.84640  0.84260  0.61050  1.0000 -0.0425578222
C   C2        1.0  0.86460  0.82400  0.67780  1.0000 -0.1632324497
C   C3        1.0  0.84540  0.96260  0.57930  1.0000 -0.1147047967
C   C4        1.0  0.88860  0.92440  0.71390  1.0000 0.0647813365
C   C5        1.0  0.64200  0.61620  0.28200  1.0000 0.0895794839
C   C6        1.0  0.88440  0.04820  0.68160  1.0000 -0.1692250431
C   C7        1.0  0.86280  0.06860  0.61460  1.0000 0.0008976182
C   C8        1.0  0.63700  0.50540  0.31980  1.0000 -0.1692250431
C   C9        1.0  0.67620  0.47740  0.38510  1.0000 0.0895794839
C   C10       1.0  0.85060  0.20700  0.57990  1.0000 0.5473167584
C   C11       1.0  0.70050  0.68310  0.38560  1.0000 0.0778495189
C   C12       1.0  0.66510  0.71930  0.32270  1.0000 -0.1632324497
C   C13       1.0  0.83790  0.72590  0.57300  1.0000 0.5637151286
C   C14       1.0  0.84260  0.84640  0.88950  1.0000 -0.0425578222
C   C15       1.0  0.82400  0.86460  0.82220  1.0000 -0.1692250431
C   C16       1.0  0.96260  0.84540  0.92070  1.0000 -0.1147047967
C   C17       1.0  0.92440  0.88860  0.78610  1.0000 0.0647813365
C   C18       1.0  0.61620  0.64200  0.21800  1.0000 0.0895794839
C   C19       1.0  0.04820  0.88440  0.81840  1.0000 -0.1692250431
C   C20       1.0  0.06860  0.86280  0.88540  1.0000 0.0008976182
C   C21       1.0  0.50540  0.63700  0.18020  1.0000 -0.1692250431
C   C22       1.0  0.47740  0.67620  0.11490  1.0000 0.0895794839
C   C23       1.0  0.20700  0.85060  0.92010  1.0000 0.5473167584
C   C24       1.0  0.68310  0.70050  0.11440  1.0000 0.0778495189
C   C25       1.0  0.71930  0.66510  0.17730  1.0000 -0.1632324497
C   C26       1.0  0.72590  0.83790  0.92700  1.0000 0.5637151286
C   C27       1.0  0.15360  0.15740  0.38950  1.0000 -0.0425578222
C   C28       1.0  0.13540  0.17600  0.32220  1.0000 -0.1692250431
C   C29       1.0  0.15460  0.03740  0.42070  1.0000 -0.1150402814
C   C30       1.0  0.11140  0.07560  0.28610  1.0000 0.0647813365
C   C31       1.0  0.35800  0.38380  0.71800  1.0000 0.0895794839
C   C32       1.0  0.11560  0.95180  0.31840  1.0000 -0.1692250431
C   C33       1.0  0.13720  0.93140  0.38540  1.0000 0.0008976182
C   C34       1.0  0.36300  0.49460  0.68020  1.0000 -0.1692250431
C   C35       1.0  0.32380  0.52260  0.61490  1.0000 0.0895794839
C   C36       1.0  0.14940  0.79300  0.42010  1.0000 0.5473167584
C   C37       1.0  0.29950  0.31690  0.61440  1.0000 0.0778495189
C   C38       1.0  0.33490  0.28070  0.67730  1.0000 -0.1632324497
C   C39       1.0  0.16210  0.27410  0.42700  1.0000 0.5637151286
C   C40       1.0  0.15740  0.15360  0.11050  1.0000 -0.0425578222
C   C41       1.0  0.17600  0.13540  0.17780  1.0000 -0.1632324497
C   C42       1.0  0.03740  0.15460  0.07930  1.0000 -0.1147047967
C   C43       1.0  0.07560  0.11140  0.21390  1.0000 0.0647813365
C   C44       1.0  0.38380  0.35800  0.78200  1.0000 0.0895794839
C   C45       1.0  0.95180  0.11560  0.18160  1.0000 -0.1692250431
C   C46       1.0  0.93140  0.13720  0.11460  1.0000 0.0008976182
C   C47       1.0  0.49460  0.36300  0.81980  1.0000 -0.1692250431
C   C48       1.0  0.52260  0.32380  0.88510  1.0000 0.0895794839
C   C49       1.0  0.79300  0.14940  0.07990  1.0000 0.5473167584
C   C50       1.0  0.31690  0.29950  0.88560  1.0000 0.0778495189
C   C51       1.0  0.28070  0.33490  0.82270  1.0000 -0.1632324497
C   C52       1.0  0.27410  0.16210  0.07300  1.0000 0.5637151286
N   N1        1.0  0.71010  0.56290  0.41930  1.0000 -0.2425619974
N   N2        1.0  0.56290  0.71010  0.08070  1.0000 -0.2425619974
N   N3        1.0  0.28990  0.43710  0.58070  1.0000 -0.2425619974
N   N4        1.0  0.43710  0.28990  0.91930  1.0000 -0.2425619974
O   O1        1.0  0.87080  0.70660  0.51190  1.0000 -0.5979616359
O   O2        1.0  0.77820  0.26340  0.52250  1.0000 -0.5831336394
O   O3        1.0  0.90660  0.26900  0.60800  1.0000 -0.5370971873
O   O4        1.0  0.80910  0.63990  0.60140  1.0000 -0.5035099551
O   O5        1.0  0.70660  0.87080  0.98810  1.0000 -0.5979616359
O   O6        1.0  0.26340  0.77820  0.97750  1.0000 -0.5831336394
O   O7        1.0  0.26900  0.90660  0.89200  1.0000 -0.5370971873
O   O8        1.0  0.63990  0.80910  0.89860  1.0000 -0.5035099551
O   O9        1.0  0.12920  0.29340  0.48810  1.0000 -0.5979616359
O   O10       1.0  0.22180  0.73660  0.47750  1.0000 -0.5831336394
O   O11       1.0  0.09340  0.73100  0.39200  1.0000 -0.5370971873
O   O12       1.0  0.19090  0.36010  0.39860  1.0000 -0.5035099551
O   O13       1.0  0.29340  0.12920  0.01190  1.0000 -0.5979616359
O   O14       1.0  0.73660  0.22180  0.02250  1.0000 -0.5831336394
O   O15       1.0  0.73100  0.09340  0.10800  1.0000 -0.5370971873
O   O16       1.0  0.36010  0.19090  0.10140  1.0000 -0.5035099551
