# DDEC6 charges by PACMAN v1.1 (https://github.com/mtap-research/PACMAN-charge/)
data_2018[Pr][nan]3[ASR]4
_chemical_formula_sum              "Pr6 H18 C42 N6 O30"
_cell_length_a       11.9908
_cell_length_b       11.9908
_cell_length_c       15.8395
_cell_angle_alpha    90
_cell_angle_beta     90
_cell_angle_gamma    120

_symmetry_space_group_name_H-M    "P 1"
_symmetry_Int_Tables_number       1

loop_
  _symmetry_equiv_pos_as_xyz
  'x, y, z'

loop_
  _atom_site_type_symbol
  _atom_site_label
  _atom_site_symmetry_multiplicity
  _atom_site_fract_x
  _atom_site_fract_y
  _atom_site_fract_z
  _atom_site_occupancy
  _atom_site_charge
Pr  Pr1       1.0  0.82215  0.17785  0.08333  1.0000 2.0961584458
Pr  Pr2       1.0  0.35570  0.17785  0.41667  1.0000 2.0961584458
Pr  Pr3       1.0  0.82215  0.64430  0.75000  1.0000 2.0961584458
Pr  Pr4       1.0  0.17785  0.82215  0.58333  1.0000 2.0961584458
Pr  Pr5       1.0  0.64430  0.82215  0.91667  1.0000 2.0961584458
Pr  Pr6       1.0  0.17785  0.35570  0.25000  1.0000 2.0961584458
H   H1        1.0  0.77465  0.35297  0.84663  1.0000 0.1242846682
H   H2        1.0  0.57832  0.22535  0.17997  1.0000 0.1242846682
H   H3        1.0  0.64703  0.42168  0.51330  1.0000 0.1242846682
H   H4        1.0  0.22535  0.64703  0.34663  1.0000 0.1242846682
H   H5        1.0  0.42168  0.77465  0.67997  1.0000 0.1242846682
H   H6        1.0  0.35297  0.57832  0.01330  1.0000 0.1242846682
H   H7        1.0  0.42168  0.64703  0.15337  1.0000 0.1242846682
H   H8        1.0  0.35297  0.77465  0.82003  1.0000 0.1242846682
H   H9        1.0  0.22535  0.57832  0.48670  1.0000 0.1242846682
H   H10       1.0  0.57832  0.35297  0.65337  1.0000 0.1242846682
H   H11       1.0  0.64703  0.22535  0.32003  1.0000 0.1242846682
H   H12       1.0  0.77465  0.42168  0.98670  1.0000 0.1242846682
H   H13       1.0  0.51264  0.02528  0.75000  1.0000 0.1306682537
H   H14       1.0  0.51264  0.48736  0.08333  1.0000 0.1306682537
H   H15       1.0  0.97472  0.48736  0.41667  1.0000 0.1306682537
H   H16       1.0  0.48736  0.97472  0.25000  1.0000 0.1306682537
H   H17       1.0  0.48736  0.51264  0.58333  1.0000 0.1306682537
H   H18       1.0  0.02528  0.51264  0.91667  1.0000 0.1306682537
C   C1        1.0  0.71000  0.30800  0.80693  1.0000 0.0636856789
C   C2        1.0  0.64800  0.18400  0.81183  1.0000 -0.0665159961
C   C3        1.0  0.66300  0.11100  0.88523  1.0000 0.6511678556
C   C4        1.0  0.59800  0.29000  0.14027  1.0000 0.0636856789
C   C5        1.0  0.53600  0.35200  0.14517  1.0000 -0.0665159961
C   C6        1.0  0.44800  0.33700  0.21857  1.0000 0.6511678556
C   C7        1.0  0.69200  0.40200  0.47360  1.0000 0.0636856789
C   C8        1.0  0.81600  0.46400  0.47850  1.0000 -0.0665159961
C   C9        1.0  0.88900  0.55200  0.55190  1.0000 0.6511678556
C   C10       1.0  0.29000  0.69200  0.30693  1.0000 0.0636856789
C   C11       1.0  0.35200  0.81600  0.31183  1.0000 -0.0665159961
C   C12       1.0  0.33700  0.88900  0.38523  1.0000 0.6511678556
C   C13       1.0  0.40200  0.71000  0.64027  1.0000 0.0636856789
C   C14       1.0  0.46400  0.64800  0.64517  1.0000 -0.0665159961
C   C15       1.0  0.55200  0.66300  0.71857  1.0000 0.6511678556
C   C16       1.0  0.30800  0.59800  0.97360  1.0000 0.0636856789
C   C17       1.0  0.18400  0.53600  0.97850  1.0000 -0.0665159961
C   C18       1.0  0.11100  0.44800  0.05190  1.0000 0.6511678556
C   C19       1.0  0.40200  0.69200  0.19307  1.0000 0.0636856789
C   C20       1.0  0.46400  0.81600  0.18817  1.0000 -0.0665159961
C   C21       1.0  0.55200  0.88900  0.11477  1.0000 0.6511678556
C   C22       1.0  0.30800  0.71000  0.85973  1.0000 0.0636856789
C   C23       1.0  0.18400  0.64800  0.85483  1.0000 -0.0665159961
C   C24       1.0  0.11100  0.66300  0.78143  1.0000 0.6511678556
C   C25       1.0  0.29000  0.59800  0.52640  1.0000 0.0636856789
C   C26       1.0  0.35200  0.53600  0.52150  1.0000 -0.0665159961
C   C27       1.0  0.33700  0.44800  0.44810  1.0000 0.6511678556
C   C28       1.0  0.59800  0.30800  0.69307  1.0000 0.0636856789
C   C29       1.0  0.53600  0.18400  0.68817  1.0000 -0.0665159961
C   C30       1.0  0.44800  0.11100  0.61477  1.0000 0.6511678556
C   C31       1.0  0.69200  0.29000  0.35973  1.0000 0.0636856789
C   C32       1.0  0.81600  0.35200  0.35483  1.0000 -0.0665159961
C   C33       1.0  0.88900  0.33700  0.28143  1.0000 0.6511678556
C   C34       1.0  0.71000  0.40200  0.02640  1.0000 0.0636856789
C   C35       1.0  0.64800  0.46400  0.02150  1.0000 -0.0665159961
C   C36       1.0  0.66300  0.55200  0.94810  1.0000 0.6511678556
C   C37       1.0  0.55740  0.11480  0.75000  1.0000 -0.0595671935
C   C38       1.0  0.55740  0.44260  0.08333  1.0000 -0.0595671935
C   C39       1.0  0.88520  0.44260  0.41667  1.0000 -0.0595671935
C   C40       1.0  0.44260  0.88520  0.25000  1.0000 -0.0595671935
C   C41       1.0  0.44260  0.55740  0.58333  1.0000 -0.0595671935
C   C42       1.0  0.11480  0.55740  0.91667  1.0000 -0.0595671935
N   N1        1.0  0.68970  0.37940  0.75000  1.0000 -0.3201180141
N   N2        1.0  0.68970  0.31030  0.08333  1.0000 -0.3201180141
N   N3        1.0  0.62060  0.31030  0.41667  1.0000 -0.3201180141
N   N4        1.0  0.31030  0.62060  0.25000  1.0000 -0.3201180141
N   N5        1.0  0.31030  0.68970  0.58333  1.0000 -0.3201180141
N   N6        1.0  0.37940  0.68970  0.91667  1.0000 -0.3201180141
O   O1        1.0  0.74230  0.18020  0.94233  1.0000 -0.6188474884
O   O2        1.0  0.59820  0.99080  0.88823  1.0000 -0.6126666705
O   O3        1.0  0.43790  0.25770  0.27567  1.0000 -0.6188474884
O   O4        1.0  0.39260  0.40180  0.22157  1.0000 -0.6126666705
O   O5        1.0  0.81980  0.56210  0.60900  1.0000 -0.6188474884
O   O6        1.0  0.00920  0.60740  0.55490  1.0000 -0.6126666705
O   O7        1.0  0.25770  0.81980  0.44233  1.0000 -0.6188474884
O   O8        1.0  0.40180  0.00920  0.38823  1.0000 -0.6126666705
O   O9        1.0  0.56210  0.74230  0.77567  1.0000 -0.6188474884
O   O10       1.0  0.60740  0.59820  0.72157  1.0000 -0.6126666705
O   O11       1.0  0.18020  0.43790  0.10900  1.0000 -0.6188474884
O   O12       1.0  0.99080  0.39260  0.05490  1.0000 -0.6126666705
O   O13       1.0  0.56210  0.81980  0.05767  1.0000 -0.6188474884
O   O14       1.0  0.60740  0.00920  0.11177  1.0000 -0.6126666705
O   O15       1.0  0.18020  0.74230  0.72433  1.0000 -0.6188474884
O   O16       1.0  0.99080  0.59820  0.77843  1.0000 -0.6126666705
O   O17       1.0  0.25770  0.43790  0.39100  1.0000 -0.6188474884
O   O18       1.0  0.40180  0.39260  0.44510  1.0000 -0.6126666705
O   O19       1.0  0.43790  0.18020  0.55767  1.0000 -0.6188474884
O   O20       1.0  0.39260  0.99080  0.61177  1.0000 -0.6126666705
O   O21       1.0  0.81980  0.25770  0.22433  1.0000 -0.6188474884
O   O22       1.0  0.00920  0.40180  0.27843  1.0000 -0.6126666705
O   O23       1.0  0.74230  0.56210  0.89100  1.0000 -0.6188474884
O   O24       1.0  0.59820  0.60740  0.94510  1.0000 -0.6126666705
O   O25       1.0  0.82800  0.00000  0.00000  1.0000 -0.9320410928
O   O26       1.0  0.17200  0.17200  0.33333  1.0000 -0.9356031408
O   O27       1.0  0.00000  0.82800  0.66667  1.0000 -0.9320410928
O   O28       1.0  0.17200  0.00000  0.50000  1.0000 -0.9320410928
O   O29       1.0  0.82800  0.82800  0.83333  1.0000 -0.9320410928
O   O30       1.0  0.00000  0.17200  0.16667  1.0000 -0.9123780122
