# DDEC6 charges by PACMAN v1.1 (https://github.com/mtap-research/PACMAN-charge/)
data_2018[Co][nan]2[ASR]1
_chemical_formula_sum              "Co16 H128 C208 N32 O64"
_cell_length_a       11.6047
_cell_length_b       17.729
_cell_length_c       29.413
_cell_angle_alpha    90
_cell_angle_beta     90
_cell_angle_gamma    90

_symmetry_space_group_name_H-M    "P 1"
_symmetry_Int_Tables_number       1

loop_
  _symmetry_equiv_pos_as_xyz
  'x, y, z'

loop_
  _atom_site_type_symbol
  _atom_site_label
  _atom_site_symmetry_multiplicity
  _atom_site_fract_x
  _atom_site_fract_y
  _atom_site_fract_z
  _atom_site_occupancy
  _atom_site_charge
Co  Co1       1.0  0.28945  0.99980  0.70878  1.0000 0.7776374484
Co  Co2       1.0  0.90611  0.97777  0.62402  1.0000 0.8587894703
Co  Co3       1.0  0.78945  0.50020  0.29122  1.0000 0.7776374484
Co  Co4       1.0  0.40611  0.52223  0.37598  1.0000 0.8587894703
Co  Co5       1.0  0.71055  0.00020  0.29122  1.0000 0.7776374484
Co  Co6       1.0  0.09389  0.02223  0.37598  1.0000 0.8587894703
Co  Co7       1.0  0.21055  0.49980  0.70878  1.0000 0.7776374484
Co  Co8       1.0  0.59389  0.47777  0.62402  1.0000 0.8587894703
Co  Co9       1.0  0.21055  0.00020  0.20878  1.0000 0.7776374484
Co  Co10      1.0  0.59389  0.02223  0.12402  1.0000 0.8587894703
Co  Co11      1.0  0.71055  0.49980  0.79122  1.0000 0.7776374484
Co  Co12      1.0  0.09389  0.47777  0.87598  1.0000 0.8587894703
Co  Co13      1.0  0.78945  0.99980  0.79122  1.0000 0.7776374484
Co  Co14      1.0  0.40611  0.97777  0.87598  1.0000 0.8587894703
Co  Co15      1.0  0.28945  0.50020  0.20878  1.0000 0.7776374484
Co  Co16      1.0  0.90611  0.52223  0.12402  1.0000 0.8587894703
H   H1        1.0  0.72170  0.74170  0.61370  1.0000 0.122178447
H   H2        1.0  0.49150  0.67590  0.70710  1.0000 0.131125108
H   H3        1.0  0.57810  0.89450  0.69720  1.0000 0.122178447
H   H4        1.0  0.43810  0.76970  0.76860  1.0000 0.1395283778
H   H5        1.0  0.44930  0.85600  0.75730  1.0000 0.131125108
H   H6        1.0  0.09220  0.74820  0.67880  1.0000 0.1608990445
H   H7        1.0  0.47620  0.09140  0.66270  1.0000 0.122178447
H   H8        1.0  0.59880  0.09070  0.60100  1.0000 0.1465684885
H   H9        1.0  0.45230  0.89760  0.56020  1.0000 0.1395283778
H   H10       1.0  0.33600  0.90310  0.62360  1.0000 0.1001841212
H   H11       1.0  0.61630  0.94280  0.51610  1.0000 0.122178447
H   H12       1.0  0.70400  0.07770  0.54230  1.0000 0.131125108
H   H13       1.0  0.88460  0.11540  0.51190  1.0000 0.1395283778
H   H14       1.0  0.02940  0.10660  0.46000  1.0000 0.122178447
H   H15       1.0  0.89260  0.92640  0.40610  1.0000 0.122178447
H   H16       1.0  0.74010  0.93250  0.45620  1.0000 0.131125108
H   H17       1.0  0.22170  0.75830  0.38630  1.0000 0.122178447
H   H18       1.0  0.99150  0.82410  0.29290  1.0000 0.131125108
H   H19       1.0  0.07810  0.60550  0.30280  1.0000 0.122178447
H   H20       1.0  0.93810  0.73030  0.23140  1.0000 0.1395283778
H   H21       1.0  0.94930  0.64400  0.24270  1.0000 0.131125108
H   H22       1.0  0.59220  0.75180  0.32120  1.0000 0.1608990445
H   H23       1.0  0.97620  0.40860  0.33730  1.0000 0.122178447
H   H24       1.0  0.09880  0.40930  0.39900  1.0000 0.1465684885
H   H25       1.0  0.95230  0.60240  0.43980  1.0000 0.1395283778
H   H26       1.0  0.83600  0.59690  0.37640  1.0000 0.1001841212
H   H27       1.0  0.11630  0.55720  0.48390  1.0000 0.122178447
H   H28       1.0  0.20400  0.42230  0.45770  1.0000 0.131125108
H   H29       1.0  0.38460  0.38460  0.48810  1.0000 0.1395283778
H   H30       1.0  0.52940  0.39340  0.54000  1.0000 0.122178447
H   H31       1.0  0.39260  0.57360  0.59390  1.0000 0.122178447
H   H32       1.0  0.24010  0.56750  0.54380  1.0000 0.131125108
H   H33       1.0  0.27830  0.25830  0.38630  1.0000 0.122178447
H   H34       1.0  0.50850  0.32410  0.29290  1.0000 0.131125108
H   H35       1.0  0.42190  0.10550  0.30280  1.0000 0.122178447
H   H36       1.0  0.56190  0.23030  0.23140  1.0000 0.1395283778
H   H37       1.0  0.55070  0.14400  0.24270  1.0000 0.131125108
H   H38       1.0  0.90780  0.25180  0.32120  1.0000 0.1608990445
H   H39       1.0  0.52380  0.90860  0.33730  1.0000 0.122178447
H   H40       1.0  0.40120  0.90930  0.39900  1.0000 0.1465684885
H   H41       1.0  0.54770  0.10240  0.43980  1.0000 0.1395283778
H   H42       1.0  0.66400  0.09690  0.37640  1.0000 0.1001841212
H   H43       1.0  0.38370  0.05720  0.48390  1.0000 0.122178447
H   H44       1.0  0.29600  0.92230  0.45770  1.0000 0.131125108
H   H45       1.0  0.11540  0.88460  0.48810  1.0000 0.1395283778
H   H46       1.0  0.97060  0.89340  0.54000  1.0000 0.122178447
H   H47       1.0  0.10740  0.07360  0.59390  1.0000 0.122178447
H   H48       1.0  0.25990  0.06750  0.54380  1.0000 0.131125108
H   H49       1.0  0.77830  0.24170  0.61370  1.0000 0.122178447
H   H50       1.0  0.00850  0.17590  0.70710  1.0000 0.131125108
H   H51       1.0  0.92190  0.39450  0.69720  1.0000 0.122178447
H   H52       1.0  0.06190  0.26970  0.76860  1.0000 0.1395283778
H   H53       1.0  0.05070  0.35600  0.75730  1.0000 0.131125108
H   H54       1.0  0.40780  0.24820  0.67880  1.0000 0.1608990445
H   H55       1.0  0.02380  0.59140  0.66270  1.0000 0.122178447
H   H56       1.0  0.90120  0.59070  0.60100  1.0000 0.1465684885
H   H57       1.0  0.04770  0.39760  0.56020  1.0000 0.1395283778
H   H58       1.0  0.16400  0.40310  0.62360  1.0000 0.1001841212
H   H59       1.0  0.88370  0.44280  0.51610  1.0000 0.122178447
H   H60       1.0  0.79600  0.57770  0.54230  1.0000 0.131125108
H   H61       1.0  0.61540  0.61540  0.51190  1.0000 0.1395283778
H   H62       1.0  0.47060  0.60660  0.46000  1.0000 0.122178447
H   H63       1.0  0.60740  0.42640  0.40610  1.0000 0.122178447
H   H64       1.0  0.75990  0.43250  0.45620  1.0000 0.131125108
H   H65       1.0  0.77830  0.25830  0.11370  1.0000 0.122178447
H   H66       1.0  0.00850  0.32410  0.20710  1.0000 0.131125108
H   H67       1.0  0.92190  0.10550  0.19720  1.0000 0.122178447
H   H68       1.0  0.06190  0.23030  0.26860  1.0000 0.1395283778
H   H69       1.0  0.05070  0.14400  0.25730  1.0000 0.131125108
H   H70       1.0  0.40780  0.25180  0.17880  1.0000 0.1608990445
H   H71       1.0  0.02380  0.90860  0.16270  1.0000 0.122178447
H   H72       1.0  0.90120  0.90930  0.10100  1.0000 0.1465684885
H   H73       1.0  0.04770  0.10240  0.06020  1.0000 0.1395283778
H   H74       1.0  0.16400  0.09690  0.12360  1.0000 0.1001841212
H   H75       1.0  0.88370  0.05720  0.01610  1.0000 0.122178447
H   H76       1.0  0.79600  0.92230  0.04230  1.0000 0.131125108
H   H77       1.0  0.61540  0.88460  0.01190  1.0000 0.1395283778
H   H78       1.0  0.47060  0.89340  0.96000  1.0000 0.122178447
H   H79       1.0  0.60740  0.07360  0.90610  1.0000 0.122178447
H   H80       1.0  0.75990  0.06750  0.95620  1.0000 0.131125108
H   H81       1.0  0.27830  0.24170  0.88630  1.0000 0.122178447
H   H82       1.0  0.50850  0.17590  0.79290  1.0000 0.131125108
H   H83       1.0  0.42190  0.39450  0.80280  1.0000 0.122178447
H   H84       1.0  0.56190  0.26970  0.73140  1.0000 0.1395283778
H   H85       1.0  0.55070  0.35600  0.74270  1.0000 0.131125108
H   H86       1.0  0.90780  0.24820  0.82120  1.0000 0.1608990445
H   H87       1.0  0.52380  0.59140  0.83730  1.0000 0.122178447
H   H88       1.0  0.40120  0.59070  0.89900  1.0000 0.1465684885
H   H89       1.0  0.54770  0.39760  0.93980  1.0000 0.1395283778
H   H90       1.0  0.66400  0.40310  0.87640  1.0000 0.1001841212
H   H91       1.0  0.38370  0.44280  0.98390  1.0000 0.122178447
H   H92       1.0  0.29600  0.57770  0.95770  1.0000 0.131125108
H   H93       1.0  0.11540  0.61540  0.98810  1.0000 0.1395283778
H   H94       1.0  0.97060  0.60660  0.04000  1.0000 0.122178447
H   H95       1.0  0.10740  0.42640  0.09390  1.0000 0.122178447
H   H96       1.0  0.25990  0.43250  0.04380  1.0000 0.131125108
H   H97       1.0  0.22170  0.74170  0.88630  1.0000 0.122178447
H   H98       1.0  0.99150  0.67590  0.79290  1.0000 0.131125108
H   H99       1.0  0.07810  0.89450  0.80280  1.0000 0.122178447
H   H100      1.0  0.93810  0.76970  0.73140  1.0000 0.1395283778
H   H101      1.0  0.94930  0.85600  0.74270  1.0000 0.131125108
H   H102      1.0  0.59220  0.74820  0.82120  1.0000 0.1608990445
H   H103      1.0  0.97620  0.09140  0.83730  1.0000 0.122178447
H   H104      1.0  0.09880  0.09070  0.89900  1.0000 0.1465684885
H   H105      1.0  0.95230  0.89760  0.93980  1.0000 0.1395283778
H   H106      1.0  0.83600  0.90310  0.87640  1.0000 0.1001841212
H   H107      1.0  0.11630  0.94280  0.98390  1.0000 0.122178447
H   H108      1.0  0.20400  0.07770  0.95770  1.0000 0.131125108
H   H109      1.0  0.38460  0.11540  0.98810  1.0000 0.1395283778
H   H110      1.0  0.52940  0.10660  0.04000  1.0000 0.122178447
H   H111      1.0  0.39260  0.92640  0.09390  1.0000 0.122178447
H   H112      1.0  0.24010  0.93250  0.04380  1.0000 0.131125108
H   H113      1.0  0.72170  0.75830  0.11370  1.0000 0.122178447
H   H114      1.0  0.49150  0.82410  0.20710  1.0000 0.131125108
H   H115      1.0  0.57810  0.60550  0.19720  1.0000 0.122178447
H   H116      1.0  0.43810  0.73030  0.26860  1.0000 0.1395283778
H   H117      1.0  0.44930  0.64400  0.25730  1.0000 0.131125108
H   H118      1.0  0.09220  0.75180  0.17880  1.0000 0.1608990445
H   H119      1.0  0.47620  0.40860  0.16270  1.0000 0.122178447
H   H120      1.0  0.59880  0.40930  0.10100  1.0000 0.1465684885
H   H121      1.0  0.45230  0.60240  0.06020  1.0000 0.1395283778
H   H122      1.0  0.33600  0.59690  0.12360  1.0000 0.1001841212
H   H123      1.0  0.61630  0.55720  0.01610  1.0000 0.122178447
H   H124      1.0  0.70400  0.42230  0.04230  1.0000 0.131125108
H   H125      1.0  0.88460  0.38460  0.01190  1.0000 0.1395283778
H   H126      1.0  0.02940  0.39340  0.96000  1.0000 0.122178447
H   H127      1.0  0.89260  0.57360  0.90610  1.0000 0.122178447
H   H128      1.0  0.74010  0.56750  0.95620  1.0000 0.131125108
C   C1        1.0  0.74310  0.88560  0.63370  1.0000 0.5405987118
C   C2        1.0  0.66370  0.82700  0.65297  1.0000 -0.003961978
C   C3        1.0  0.67230  0.75330  0.63762  1.0000 -0.1285160443
C   C4        1.0  0.60790  0.69760  0.65763  1.0000 0.0015161473
C   C5        1.0  0.53290  0.71440  0.69307  1.0000 -0.1441503351
C   C6        1.0  0.51940  0.78890  0.70777  1.0000 0.1001841212
C   C7        1.0  0.58570  0.84470  0.68763  1.0000 -0.1686127817
C   C8        1.0  0.61600  0.61770  0.64187  1.0000 0.5405987118
C   C9        1.0  0.43240  0.80690  0.74444  1.0000 -0.1996620985
C   C10       1.0  0.24590  0.74660  0.71522  1.0000 0.0216342362
C   C11       1.0  0.15320  0.77500  0.69147  1.0000 -0.239286471
C   C12       1.0  0.17050  0.85210  0.69051  1.0000 0.0435860383
C   C13       1.0  0.09950  0.91370  0.67093  1.0000 0.5405987118
C   C14       1.0  0.26650  0.66610  0.72912  1.0000 0.5457429553
C   C15       1.0  0.47180  0.05180  0.64200  1.0000 0.1001841212
C   C16       1.0  0.54630  0.05160  0.60480  1.0000 -0.1686127817
C   C17       1.0  0.54210  0.99220  0.57320  1.0000 0.1608990445
C   C18       1.0  0.46030  0.93730  0.58060  1.0000 -0.2059232032
C   C19       1.0  0.38950  0.94140  0.61894  1.0000 0.0859376753
C   C20       1.0  0.62330  0.98490  0.53480  1.0000 -0.1285160443
C   C21       1.0  0.70370  0.03340  0.52540  1.0000 -0.1171086391
C   C22       1.0  0.79500  0.02510  0.49050  1.0000 0.1608990445
C   C23       1.0  0.88380  0.07650  0.49063  1.0000 -0.1835600024
C   C24       1.0  0.97100  0.07070  0.45955  1.0000 0.0818960259
C   C25       1.0  0.89050  0.96490  0.42759  1.0000 0.1001841212
C   C26       1.0  0.79880  0.96810  0.45780  1.0000 -0.1996620985
C   C27       1.0  0.24310  0.61440  0.36630  1.0000 0.5405987118
C   C28       1.0  0.16370  0.67300  0.34703  1.0000 -0.003961978
C   C29       1.0  0.17230  0.74670  0.36238  1.0000 -0.1285160443
C   C30       1.0  0.10790  0.80240  0.34237  1.0000 0.0015161473
C   C31       1.0  0.03290  0.78560  0.30693  1.0000 -0.1441503351
C   C32       1.0  0.01940  0.71110  0.29223  1.0000 0.1001841212
C   C33       1.0  0.08570  0.65530  0.31237  1.0000 -0.1686127817
C   C34       1.0  0.11600  0.88230  0.35813  1.0000 0.5405987118
C   C35       1.0  0.93240  0.69310  0.25556  1.0000 -0.1996620985
C   C36       1.0  0.74590  0.75340  0.28478  1.0000 0.0216342362
C   C37       1.0  0.65320  0.72500  0.30853  1.0000 -0.239286471
C   C38       1.0  0.67050  0.64790  0.30949  1.0000 0.0435860383
C   C39       1.0  0.59950  0.58630  0.32907  1.0000 0.5405987118
C   C40       1.0  0.76650  0.83390  0.27088  1.0000 0.5457429553
C   C41       1.0  0.97180  0.44820  0.35800  1.0000 0.1001841212
C   C42       1.0  0.04630  0.44840  0.39520  1.0000 -0.1686127817
C   C43       1.0  0.04210  0.50780  0.42680  1.0000 0.1608990445
C   C44       1.0  0.96030  0.56270  0.41940  1.0000 -0.2059232032
C   C45       1.0  0.88950  0.55860  0.38106  1.0000 0.0859376753
C   C46       1.0  0.12330  0.51510  0.46520  1.0000 -0.1285160443
C   C47       1.0  0.20370  0.46660  0.47460  1.0000 -0.1171086391
C   C48       1.0  0.29500  0.47490  0.50950  1.0000 0.1608990445
C   C49       1.0  0.38380  0.42350  0.50937  1.0000 -0.1835600024
C   C50       1.0  0.47100  0.42930  0.54045  1.0000 0.0818960259
C   C51       1.0  0.39050  0.53510  0.57241  1.0000 0.1001841212
C   C52       1.0  0.29880  0.53190  0.54220  1.0000 -0.1996620985
C   C53       1.0  0.25690  0.11440  0.36630  1.0000 0.5405987118
C   C54       1.0  0.33630  0.17300  0.34703  1.0000 -0.003961978
C   C55       1.0  0.32770  0.24670  0.36238  1.0000 -0.1285160443
C   C56       1.0  0.39210  0.30240  0.34237  1.0000 0.0015161473
C   C57       1.0  0.46710  0.28560  0.30693  1.0000 -0.1441503351
C   C58       1.0  0.48060  0.21110  0.29223  1.0000 0.1001841212
C   C59       1.0  0.41430  0.15530  0.31237  1.0000 -0.1686127817
C   C60       1.0  0.38400  0.38230  0.35813  1.0000 0.5405987118
C   C61       1.0  0.56760  0.19310  0.25556  1.0000 -0.1996620985
C   C62       1.0  0.75410  0.25340  0.28478  1.0000 0.0216342362
C   C63       1.0  0.84680  0.22500  0.30853  1.0000 -0.239286471
C   C64       1.0  0.82950  0.14790  0.30949  1.0000 0.0435860383
C   C65       1.0  0.90050  0.08630  0.32907  1.0000 0.5405987118
C   C66       1.0  0.73350  0.33390  0.27088  1.0000 0.5457429553
C   C67       1.0  0.52820  0.94820  0.35800  1.0000 0.1001841212
C   C68       1.0  0.45370  0.94840  0.39520  1.0000 -0.1686127817
C   C69       1.0  0.45790  0.00780  0.42680  1.0000 0.1608990445
C   C70       1.0  0.53970  0.06270  0.41940  1.0000 -0.2059232032
C   C71       1.0  0.61050  0.05860  0.38106  1.0000 0.0859376753
C   C72       1.0  0.37670  0.01510  0.46520  1.0000 -0.1285160443
C   C73       1.0  0.29630  0.96660  0.47460  1.0000 -0.1171086391
C   C74       1.0  0.20500  0.97490  0.50950  1.0000 0.1608990445
C   C75       1.0  0.11620  0.92350  0.50937  1.0000 -0.1835600024
C   C76       1.0  0.02900  0.92930  0.54045  1.0000 0.0818960259
C   C77       1.0  0.10950  0.03510  0.57241  1.0000 0.1001841212
C   C78       1.0  0.20120  0.03190  0.54220  1.0000 -0.1996620985
C   C79       1.0  0.75690  0.38560  0.63370  1.0000 0.5405987118
C   C80       1.0  0.83630  0.32700  0.65297  1.0000 -0.003961978
C   C81       1.0  0.82770  0.25330  0.63762  1.0000 -0.1285160443
C   C82       1.0  0.89210  0.19760  0.65763  1.0000 0.0015161473
C   C83       1.0  0.96710  0.21440  0.69307  1.0000 -0.1441503351
C   C84       1.0  0.98060  0.28890  0.70777  1.0000 0.1001841212
C   C85       1.0  0.91430  0.34470  0.68763  1.0000 -0.1686127817
C   C86       1.0  0.88400  0.11770  0.64187  1.0000 0.5405987118
C   C87       1.0  0.06760  0.30690  0.74444  1.0000 -0.1996620985
C   C88       1.0  0.25410  0.24660  0.71522  1.0000 0.0216342362
C   C89       1.0  0.34680  0.27500  0.69147  1.0000 -0.239286471
C   C90       1.0  0.32950  0.35210  0.69051  1.0000 0.0435860383
C   C91       1.0  0.40050  0.41370  0.67093  1.0000 0.5405987118
C   C92       1.0  0.23350  0.16610  0.72912  1.0000 0.5457429553
C   C93       1.0  0.02820  0.55180  0.64200  1.0000 0.1001841212
C   C94       1.0  0.95370  0.55160  0.60480  1.0000 -0.1686127817
C   C95       1.0  0.95790  0.49220  0.57320  1.0000 0.1608990445
C   C96       1.0  0.03970  0.43730  0.58060  1.0000 -0.2059232032
C   C97       1.0  0.11050  0.44140  0.61894  1.0000 0.0859376753
C   C98       1.0  0.87670  0.48490  0.53480  1.0000 -0.1285160443
C   C99       1.0  0.79630  0.53340  0.52540  1.0000 -0.1171086391
C   C100      1.0  0.70500  0.52510  0.49050  1.0000 0.1608990445
C   C101      1.0  0.61620  0.57650  0.49063  1.0000 -0.1835600024
C   C102      1.0  0.52900  0.57070  0.45955  1.0000 0.0818960259
C   C103      1.0  0.60950  0.46490  0.42759  1.0000 0.1001841212
C   C104      1.0  0.70120  0.46810  0.45780  1.0000 -0.1996620985
C   C105      1.0  0.75690  0.11440  0.13370  1.0000 0.5405987118
C   C106      1.0  0.83630  0.17300  0.15297  1.0000 -0.003961978
C   C107      1.0  0.82770  0.24670  0.13762  1.0000 -0.1285160443
C   C108      1.0  0.89210  0.30240  0.15763  1.0000 0.0015161473
C   C109      1.0  0.96710  0.28560  0.19307  1.0000 -0.1441503351
C   C110      1.0  0.98060  0.21110  0.20777  1.0000 0.1001841212
C   C111      1.0  0.91430  0.15530  0.18763  1.0000 -0.1686127817
C   C112      1.0  0.88400  0.38230  0.14187  1.0000 0.5405987118
C   C113      1.0  0.06760  0.19310  0.24444  1.0000 -0.1996620985
C   C114      1.0  0.25410  0.25340  0.21522  1.0000 0.0216342362
C   C115      1.0  0.34680  0.22500  0.19147  1.0000 -0.239286471
C   C116      1.0  0.32950  0.14790  0.19051  1.0000 0.0435860383
C   C117      1.0  0.40050  0.08630  0.17093  1.0000 0.5405987118
C   C118      1.0  0.23350  0.33390  0.22912  1.0000 0.5457429553
C   C119      1.0  0.02820  0.94820  0.14200  1.0000 0.1001841212
C   C120      1.0  0.95370  0.94840  0.10480  1.0000 -0.1686127817
C   C121      1.0  0.95790  0.00780  0.07320  1.0000 0.1608990445
C   C122      1.0  0.03970  0.06270  0.08060  1.0000 -0.2059232032
C   C123      1.0  0.11050  0.05860  0.11894  1.0000 0.0859376753
C   C124      1.0  0.87670  0.01510  0.03480  1.0000 -0.1285160443
C   C125      1.0  0.79630  0.96660  0.02540  1.0000 -0.1171086391
C   C126      1.0  0.70500  0.97490  0.99050  1.0000 0.1608990445
C   C127      1.0  0.61620  0.92350  0.99063  1.0000 -0.1835600024
C   C128      1.0  0.52900  0.92930  0.95955  1.0000 0.0818960259
C   C129      1.0  0.60950  0.03510  0.92759  1.0000 0.1001841212
C   C130      1.0  0.70120  0.03190  0.95780  1.0000 -0.1996620985
C   C131      1.0  0.25690  0.38560  0.86630  1.0000 0.5405987118
C   C132      1.0  0.33630  0.32700  0.84703  1.0000 -0.003961978
C   C133      1.0  0.32770  0.25330  0.86238  1.0000 -0.1285160443
C   C134      1.0  0.39210  0.19760  0.84237  1.0000 0.0015161473
C   C135      1.0  0.46710  0.21440  0.80693  1.0000 -0.1441503351
C   C136      1.0  0.48060  0.28890  0.79223  1.0000 0.1001841212
C   C137      1.0  0.41430  0.34470  0.81237  1.0000 -0.1686127817
C   C138      1.0  0.38400  0.11770  0.85813  1.0000 0.5405987118
C   C139      1.0  0.56760  0.30690  0.75556  1.0000 -0.1996620985
C   C140      1.0  0.75410  0.24660  0.78478  1.0000 0.0216342362
C   C141      1.0  0.84680  0.27500  0.80853  1.0000 -0.239286471
C   C142      1.0  0.82950  0.35210  0.80949  1.0000 0.0435860383
C   C143      1.0  0.90050  0.41370  0.82907  1.0000 0.5405987118
C   C144      1.0  0.73350  0.16610  0.77088  1.0000 0.5457429553
C   C145      1.0  0.52820  0.55180  0.85800  1.0000 0.1001841212
C   C146      1.0  0.45370  0.55160  0.89520  1.0000 -0.1686127817
C   C147      1.0  0.45790  0.49220  0.92680  1.0000 0.1608990445
C   C148      1.0  0.53970  0.43730  0.91940  1.0000 -0.2059232032
C   C149      1.0  0.61050  0.44140  0.88106  1.0000 0.0859376753
C   C150      1.0  0.37670  0.48490  0.96520  1.0000 -0.1285160443
C   C151      1.0  0.29630  0.53340  0.97460  1.0000 -0.1171086391
C   C152      1.0  0.20500  0.52510  0.00950  1.0000 0.1608990445
C   C153      1.0  0.11620  0.57650  0.00937  1.0000 -0.1835600024
C   C154      1.0  0.02900  0.57070  0.04045  1.0000 0.0818960259
C   C155      1.0  0.10950  0.46490  0.07241  1.0000 0.1001841212
C   C156      1.0  0.20120  0.46810  0.04220  1.0000 -0.1996620985
C   C157      1.0  0.24310  0.88560  0.86630  1.0000 0.5405987118
C   C158      1.0  0.16370  0.82700  0.84703  1.0000 -0.003961978
C   C159      1.0  0.17230  0.75330  0.86238  1.0000 -0.1285160443
C   C160      1.0  0.10790  0.69760  0.84237  1.0000 0.0015161473
C   C161      1.0  0.03290  0.71440  0.80693  1.0000 -0.1441503351
C   C162      1.0  0.01940  0.78890  0.79223  1.0000 0.1001841212
C   C163      1.0  0.08570  0.84470  0.81237  1.0000 -0.1686127817
C   C164      1.0  0.11600  0.61770  0.85813  1.0000 0.5405987118
C   C165      1.0  0.93240  0.80690  0.75556  1.0000 -0.1996620985
C   C166      1.0  0.74590  0.74660  0.78478  1.0000 0.0216342362
C   C167      1.0  0.65320  0.77500  0.80853  1.0000 -0.239286471
C   C168      1.0  0.67050  0.85210  0.80949  1.0000 0.0435860383
C   C169      1.0  0.59950  0.91370  0.82907  1.0000 0.5405987118
C   C170      1.0  0.76650  0.66610  0.77088  1.0000 0.5457429553
C   C171      1.0  0.97180  0.05180  0.85800  1.0000 0.1001841212
C   C172      1.0  0.04630  0.05160  0.89520  1.0000 -0.1686127817
C   C173      1.0  0.04210  0.99220  0.92680  1.0000 0.1608990445
C   C174      1.0  0.96030  0.93730  0.91940  1.0000 -0.2059232032
C   C175      1.0  0.88950  0.94140  0.88106  1.0000 0.0859376753
C   C176      1.0  0.12330  0.98490  0.96520  1.0000 -0.1285160443
C   C177      1.0  0.20370  0.03340  0.97460  1.0000 -0.1171086391
C   C178      1.0  0.29500  0.02510  0.00950  1.0000 0.1608990445
C   C179      1.0  0.38380  0.07650  0.00937  1.0000 -0.1835600024
C   C180      1.0  0.47100  0.07070  0.04045  1.0000 0.0818960259
C   C181      1.0  0.39050  0.96490  0.07241  1.0000 0.1001841212
C   C182      1.0  0.29880  0.96810  0.04220  1.0000 -0.1996620985
C   C183      1.0  0.74310  0.61440  0.13370  1.0000 0.5405987118
C   C184      1.0  0.66370  0.67300  0.15297  1.0000 -0.003961978
C   C185      1.0  0.67230  0.74670  0.13762  1.0000 -0.1285160443
C   C186      1.0  0.60790  0.80240  0.15763  1.0000 0.0015161473
C   C187      1.0  0.53290  0.78560  0.19307  1.0000 -0.1441503351
C   C188      1.0  0.51940  0.71110  0.20777  1.0000 0.1001841212
C   C189      1.0  0.58570  0.65530  0.18763  1.0000 -0.1686127817
C   C190      1.0  0.61600  0.88230  0.14187  1.0000 0.5405987118
C   C191      1.0  0.43240  0.69310  0.24444  1.0000 -0.1996620985
C   C192      1.0  0.24590  0.75340  0.21522  1.0000 0.0216342362
C   C193      1.0  0.15320  0.72500  0.19147  1.0000 -0.239286471
C   C194      1.0  0.17050  0.64790  0.19051  1.0000 0.0435860383
C   C195      1.0  0.09950  0.58630  0.17093  1.0000 0.5405987118
C   C196      1.0  0.26650  0.83390  0.22912  1.0000 0.5457429553
C   C197      1.0  0.47180  0.44820  0.14200  1.0000 0.1001841212
C   C198      1.0  0.54630  0.44840  0.10480  1.0000 -0.1686127817
C   C199      1.0  0.54210  0.50780  0.07320  1.0000 0.1608990445
C   C200      1.0  0.46030  0.56270  0.08060  1.0000 -0.2059232032
C   C201      1.0  0.38950  0.55860  0.11894  1.0000 0.0859376753
C   C202      1.0  0.62330  0.51510  0.03480  1.0000 -0.1285160443
C   C203      1.0  0.70370  0.46660  0.02540  1.0000 -0.1171086391
C   C204      1.0  0.79500  0.47490  0.99050  1.0000 0.1608990445
C   C205      1.0  0.88380  0.42350  0.99063  1.0000 -0.1835600024
C   C206      1.0  0.97100  0.42930  0.95955  1.0000 0.0818960259
C   C207      1.0  0.89050  0.53510  0.92759  1.0000 0.1001841212
C   C208      1.0  0.79880  0.53190  0.95780  1.0000 -0.1996620985
N   N1        1.0  0.26910  0.87130  0.71065  1.0000 -0.2887003308
N   N2        1.0  0.31440  0.80681  0.72596  1.0000 0.1953036899
N   N3        1.0  0.39420  0.99720  0.64924  1.0000 -0.2501328772
N   N4        1.0  0.97600  0.01550  0.42834  1.0000 -0.2583134508
N   N5        1.0  0.76910  0.62870  0.28935  1.0000 -0.2887003308
N   N6        1.0  0.81440  0.69319  0.27404  1.0000 0.1953036899
N   N7        1.0  0.89420  0.50280  0.35076  1.0000 -0.2501328772
N   N8        1.0  0.47600  0.48450  0.57166  1.0000 -0.2583134508
N   N9        1.0  0.73090  0.12870  0.28935  1.0000 -0.2887003308
N   N10       1.0  0.68560  0.19319  0.27404  1.0000 0.1953036899
N   N11       1.0  0.60580  0.00280  0.35076  1.0000 -0.2501328772
N   N12       1.0  0.02400  0.98450  0.57166  1.0000 -0.2583134508
N   N13       1.0  0.23090  0.37130  0.71065  1.0000 -0.2887003308
N   N14       1.0  0.18560  0.30681  0.72596  1.0000 0.1953036899
N   N15       1.0  0.10580  0.49720  0.64924  1.0000 -0.2501328772
N   N16       1.0  0.52400  0.51550  0.42834  1.0000 -0.2583134508
N   N17       1.0  0.23090  0.12870  0.21065  1.0000 -0.2887003308
N   N18       1.0  0.18560  0.19319  0.22596  1.0000 0.1953036899
N   N19       1.0  0.10580  0.00280  0.14924  1.0000 -0.2501328772
N   N20       1.0  0.52400  0.98450  0.92834  1.0000 -0.2583134508
N   N21       1.0  0.73090  0.37130  0.78935  1.0000 -0.2887003308
N   N22       1.0  0.68560  0.30681  0.77404  1.0000 0.1953036899
N   N23       1.0  0.60580  0.49720  0.85076  1.0000 -0.2501328772
N   N24       1.0  0.02400  0.51550  0.07166  1.0000 -0.2583134508
N   N25       1.0  0.76910  0.87130  0.78935  1.0000 -0.2887003308
N   N26       1.0  0.81440  0.80681  0.77404  1.0000 0.1953036899
N   N27       1.0  0.89420  0.99720  0.85076  1.0000 -0.2501328772
N   N28       1.0  0.47600  0.01550  0.07166  1.0000 -0.2583134508
N   N29       1.0  0.26910  0.62870  0.21065  1.0000 -0.2887003308
N   N30       1.0  0.31440  0.69319  0.22596  1.0000 0.1953036899
N   N31       1.0  0.39420  0.50280  0.14924  1.0000 -0.2501328772
N   N32       1.0  0.97600  0.48450  0.92834  1.0000 -0.2583134508
O   O1        1.0  0.80250  0.87310  0.59906  1.0000 -0.5483624108
O   O2        1.0  0.75350  0.94816  0.65489  1.0000 -0.5283611154
O   O3        1.0  0.66300  0.60061  0.60537  1.0000 -0.5599507426
O   O4        1.0  0.56780  0.56683  0.66599  1.0000 -0.5016784629
O   O5        1.0  0.14180  0.97905  0.67184  1.0000 -0.5210346913
O   O6        1.0  0.00250  0.89632  0.65500  1.0000 -0.5016784629
O   O7        1.0  0.32570  0.65412  0.76395  1.0000 -0.5443437433
O   O8        1.0  0.21790  0.61794  0.70459  1.0000 -0.5483624108
O   O9        1.0  0.30250  0.62690  0.40094  1.0000 -0.5483624108
O   O10       1.0  0.25350  0.55184  0.34511  1.0000 -0.5283611154
O   O11       1.0  0.16300  0.89939  0.39463  1.0000 -0.5599507426
O   O12       1.0  0.06780  0.93317  0.33401  1.0000 -0.5016784629
O   O13       1.0  0.64180  0.52095  0.32816  1.0000 -0.5210346913
O   O14       1.0  0.50250  0.60368  0.34500  1.0000 -0.5016784629
O   O15       1.0  0.82570  0.84588  0.23605  1.0000 -0.5483624108
O   O16       1.0  0.71790  0.88206  0.29541  1.0000 -0.5483624108
O   O17       1.0  0.19750  0.12690  0.40094  1.0000 -0.5483624108
O   O18       1.0  0.24650  0.05184  0.34511  1.0000 -0.5283611154
O   O19       1.0  0.33700  0.39939  0.39463  1.0000 -0.5599507426
O   O20       1.0  0.43220  0.43317  0.33401  1.0000 -0.5016784629
O   O21       1.0  0.85820  0.02095  0.32816  1.0000 -0.5210346913
O   O22       1.0  0.99750  0.10368  0.34500  1.0000 -0.5016784629
O   O23       1.0  0.67430  0.34588  0.23605  1.0000 -0.5483624108
O   O24       1.0  0.78210  0.38206  0.29541  1.0000 -0.5483624108
O   O25       1.0  0.69750  0.37310  0.59906  1.0000 -0.5483624108
O   O26       1.0  0.74650  0.44816  0.65489  1.0000 -0.5283611154
O   O27       1.0  0.83700  0.10061  0.60537  1.0000 -0.5599507426
O   O28       1.0  0.93220  0.06683  0.66599  1.0000 -0.5016784629
O   O29       1.0  0.35820  0.47905  0.67184  1.0000 -0.5210346913
O   O30       1.0  0.49750  0.39632  0.65500  1.0000 -0.5016784629
O   O31       1.0  0.17430  0.15412  0.76395  1.0000 -0.5443437433
O   O32       1.0  0.28210  0.11794  0.70459  1.0000 -0.5483624108
O   O33       1.0  0.69750  0.12690  0.09906  1.0000 -0.5483624108
O   O34       1.0  0.74650  0.05184  0.15489  1.0000 -0.5283611154
O   O35       1.0  0.83700  0.39939  0.10537  1.0000 -0.5599507426
O   O36       1.0  0.93220  0.43317  0.16599  1.0000 -0.5016784629
O   O37       1.0  0.35820  0.02095  0.17184  1.0000 -0.5210346913
O   O38       1.0  0.49750  0.10368  0.15500  1.0000 -0.5016784629
O   O39       1.0  0.17430  0.34588  0.26395  1.0000 -0.5483624108
O   O40       1.0  0.28210  0.38206  0.20459  1.0000 -0.5483624108
O   O41       1.0  0.19750  0.37310  0.90094  1.0000 -0.5483624108
O   O42       1.0  0.24650  0.44816  0.84511  1.0000 -0.5283611154
O   O43       1.0  0.33700  0.10061  0.89463  1.0000 -0.5599507426
O   O44       1.0  0.43220  0.06683  0.83401  1.0000 -0.5016784629
O   O45       1.0  0.85820  0.47905  0.82816  1.0000 -0.5210346913
O   O46       1.0  0.99750  0.39632  0.84500  1.0000 -0.5016784629
O   O47       1.0  0.67430  0.15412  0.73605  1.0000 -0.5443437433
O   O48       1.0  0.78210  0.11794  0.79541  1.0000 -0.5483624108
O   O49       1.0  0.30250  0.87310  0.90094  1.0000 -0.5483624108
O   O50       1.0  0.25350  0.94816  0.84511  1.0000 -0.5283611154
O   O51       1.0  0.16300  0.60061  0.89463  1.0000 -0.5599507426
O   O52       1.0  0.06780  0.56683  0.83401  1.0000 -0.5016784629
O   O53       1.0  0.64180  0.97905  0.82816  1.0000 -0.5210346913
O   O54       1.0  0.50250  0.89632  0.84500  1.0000 -0.5016784629
O   O55       1.0  0.82570  0.65412  0.73605  1.0000 -0.5443437433
O   O56       1.0  0.71790  0.61794  0.79541  1.0000 -0.5483624108
O   O57       1.0  0.80250  0.62690  0.09906  1.0000 -0.5483624108
O   O58       1.0  0.75350  0.55184  0.15489  1.0000 -0.5283611154
O   O59       1.0  0.66300  0.89939  0.10537  1.0000 -0.5599507426
O   O60       1.0  0.56780  0.93317  0.16599  1.0000 -0.5016784629
O   O61       1.0  0.14180  0.52095  0.17184  1.0000 -0.5210346913
O   O62       1.0  0.00250  0.60368  0.15500  1.0000 -0.5016784629
O   O63       1.0  0.32570  0.84588  0.26395  1.0000 -0.5443437433
O   O64       1.0  0.21790  0.88206  0.20459  1.0000 -0.5483624108
