# DDEC6 charges by PACMAN v1.1 (https://github.com/mtap-research/PACMAN-charge/)
data_2018[Pr][nan]3[ASR]1
_chemical_formula_sum              "Pr4 H44 C84 O24"
_cell_length_a       17.9531
_cell_length_b       17.9531
_cell_length_c       14.1018
_cell_angle_alpha    78.0893
_cell_angle_beta     101.911
_cell_angle_gamma    133.968

_symmetry_space_group_name_H-M    "P 1"
_symmetry_Int_Tables_number       1

loop_
  _symmetry_equiv_pos_as_xyz
  'x, y, z'

loop_
  _atom_site_type_symbol
  _atom_site_label
  _atom_site_symmetry_multiplicity
  _atom_site_fract_x
  _atom_site_fract_y
  _atom_site_fract_z
  _atom_site_occupancy
  _atom_site_charge
Pr  Pr1       1.0  0.47765  0.09855  0.45149  1.0000 2.0890049824
Pr  Pr2       1.0  0.09855  0.47765  0.04851  1.0000 2.0890049824
Pr  Pr3       1.0  0.52235  0.90145  0.54851  1.0000 2.0890049824
Pr  Pr4       1.0  0.90145  0.52235  0.95149  1.0000 2.0890049824
H   H1        1.0  0.31590  0.77870  0.80060  1.0000 0.133122556
H   H2        1.0  0.13660  0.79500  0.91180  1.0000 0.1211020445
H   H3        1.0  0.33300  0.01920  0.70960  1.0000 0.1119940708
H   H4        1.0  0.06100  0.85940  0.86330  1.0000 0.1211020445
H   H5        1.0  0.03160  0.95800  0.89690  1.0000 0.1119940708
H   H6        1.0  0.31960  0.22040  0.82690  1.0000 0.1119940708
H   H7        1.0  0.34880  0.12240  0.79420  1.0000 0.1119940708
H   H8        1.0  0.00060  0.06140  0.87560  1.0000 0.1119940708
H   H9        1.0  0.97910  0.15830  0.92950  1.0000 0.1211020445
H   H10       1.0  0.28970  0.38810  0.98150  1.0000 0.1211020445
H   H11       1.0  0.31110  0.28790  0.93290  1.0000 0.1119940708
H   H12       1.0  0.77870  0.31590  0.69940  1.0000 0.133122556
H   H13       1.0  0.79500  0.13660  0.58820  1.0000 0.1211020445
H   H14       1.0  0.01920  0.33300  0.79040  1.0000 0.1119940708
H   H15       1.0  0.85940  0.06100  0.63670  1.0000 0.1211020445
H   H16       1.0  0.95800  0.03160  0.60310  1.0000 0.1119940708
H   H17       1.0  0.22040  0.31960  0.67310  1.0000 0.1119940708
H   H18       1.0  0.12240  0.34880  0.70580  1.0000 0.1119940708
H   H19       1.0  0.06140  0.00060  0.62440  1.0000 0.1119940708
H   H20       1.0  0.15830  0.97910  0.57050  1.0000 0.1211020445
H   H21       1.0  0.38810  0.28970  0.51850  1.0000 0.1211020445
H   H22       1.0  0.28790  0.31110  0.56710  1.0000 0.1119940708
H   H23       1.0  0.68410  0.22130  0.19940  1.0000 0.133122556
H   H24       1.0  0.86340  0.20500  0.08820  1.0000 0.1211020445
H   H25       1.0  0.66700  0.98080  0.29040  1.0000 0.1119940708
H   H26       1.0  0.93900  0.14060  0.13670  1.0000 0.1211020445
H   H27       1.0  0.96840  0.04200  0.10310  1.0000 0.1119940708
H   H28       1.0  0.68040  0.77960  0.17310  1.0000 0.1119940708
H   H29       1.0  0.65120  0.87760  0.20580  1.0000 0.1119940708
H   H30       1.0  0.99940  0.93860  0.12440  1.0000 0.1119940708
H   H31       1.0  0.02090  0.84170  0.07050  1.0000 0.1211020445
H   H32       1.0  0.71030  0.61190  0.01850  1.0000 0.1211020445
H   H33       1.0  0.68890  0.71210  0.06710  1.0000 0.1119940708
H   H34       1.0  0.22130  0.68410  0.30060  1.0000 0.133122556
H   H35       1.0  0.20500  0.86340  0.41180  1.0000 0.1211020445
H   H36       1.0  0.98080  0.66700  0.20960  1.0000 0.1119940708
H   H37       1.0  0.14060  0.93900  0.36330  1.0000 0.1211020445
H   H38       1.0  0.04200  0.96840  0.39690  1.0000 0.1119940708
H   H39       1.0  0.77960  0.68040  0.32690  1.0000 0.1119940708
H   H40       1.0  0.87760  0.65120  0.29420  1.0000 0.1119940708
H   H41       1.0  0.93860  0.99940  0.37560  1.0000 0.1119940708
H   H42       1.0  0.84170  0.02090  0.42950  1.0000 0.1211020445
H   H43       1.0  0.61190  0.71030  0.48150  1.0000 0.1211020445
H   H44       1.0  0.71210  0.68890  0.43290  1.0000 0.1119940708
C   C1        1.0  0.41132  0.94728  0.67070  1.0000 0.6455538758
C   C2        1.0  0.33499  0.90481  0.74320  1.0000 -0.0143841159
C   C3        1.0  0.29342  0.81318  0.80250  1.0000 -0.1008745742
C   C4        1.0  0.21943  0.77237  0.86430  1.0000 -0.0200306183
C   C5        1.0  0.17485  0.67295  0.92730  1.0000 0.6258421131
C   C6        1.0  0.18820  0.82400  0.87020  1.0000 -0.1608233674
C   C7        1.0  0.23335  0.91905  0.81440  1.0000 0.0622012206
C   C8        1.0  0.30465  0.95675  0.74990  1.0000 -0.1500265904
C   C9        1.0  0.20969  0.98031  0.82820  1.0000 0.0662286329
C   C10       1.0  0.11470  0.93310  0.85720  1.0000 -0.1344651616
C   C11       1.0  0.09720  0.99200  0.87720  1.0000 -0.1500265904
C   C12       1.0  0.17387  0.10033  0.86920  1.0000 0.0622012206
C   C13       1.0  0.26697  0.14683  0.83610  1.0000 -0.1500265904
C   C14       1.0  0.28419  0.08821  0.81640  1.0000 -0.1389827355
C   C15       1.0  0.15927  0.16353  0.89970  1.0000 0.0662286329
C   C16       1.0  0.05989  0.12711  0.89860  1.0000 -0.1500265904
C   C17       1.0  0.04699  0.18501  0.93020  1.0000 -0.1008745742
C   C18       1.0  0.13170  0.28130  0.96270  1.0000 -0.0200306183
C   C19       1.0  0.23053  0.32067  0.96170  1.0000 -0.1008745742
C   C20       1.0  0.24290  0.26090  0.93150  1.0000 -0.1608233674
C   C21       1.0  0.11794  0.34446  0.99810  1.0000 0.5641712286
C   C22       1.0  0.94728  0.41132  0.82930  1.0000 0.6455538758
C   C23       1.0  0.90481  0.33499  0.75680  1.0000 -0.0143841159
C   C24       1.0  0.81318  0.29342  0.69750  1.0000 -0.1008745742
C   C25       1.0  0.77237  0.21943  0.63570  1.0000 -0.0200306183
C   C26       1.0  0.67295  0.17485  0.57270  1.0000 0.6258421131
C   C27       1.0  0.82400  0.18820  0.62980  1.0000 -0.1608233674
C   C28       1.0  0.91905  0.23335  0.68560  1.0000 0.0622012206
C   C29       1.0  0.95675  0.30465  0.75010  1.0000 -0.1500265904
C   C30       1.0  0.98031  0.20969  0.67180  1.0000 0.0662286329
C   C31       1.0  0.93310  0.11470  0.64280  1.0000 -0.1344651616
C   C32       1.0  0.99200  0.09720  0.62280  1.0000 -0.1500265904
C   C33       1.0  0.10033  0.17387  0.63080  1.0000 0.0622012206
C   C34       1.0  0.14683  0.26697  0.66390  1.0000 -0.1500265904
C   C35       1.0  0.08821  0.28419  0.68360  1.0000 -0.1389827355
C   C36       1.0  0.16353  0.15927  0.60030  1.0000 0.0662286329
C   C37       1.0  0.12711  0.05989  0.60140  1.0000 -0.1500265904
C   C38       1.0  0.18501  0.04699  0.56980  1.0000 -0.1008745742
C   C39       1.0  0.28130  0.13170  0.53730  1.0000 -0.0200306183
C   C40       1.0  0.32067  0.23053  0.53830  1.0000 -0.1008745742
C   C41       1.0  0.26090  0.24290  0.56850  1.0000 -0.1608233674
C   C42       1.0  0.34446  0.11794  0.50190  1.0000 0.5641712286
C   C43       1.0  0.58868  0.05272  0.32930  1.0000 0.6455538758
C   C44       1.0  0.66501  0.09519  0.25680  1.0000 -0.0143841159
C   C45       1.0  0.70658  0.18682  0.19750  1.0000 -0.1008745742
C   C46       1.0  0.78057  0.22763  0.13570  1.0000 -0.0200306183
C   C47       1.0  0.82515  0.32705  0.07270  1.0000 0.6258421131
C   C48       1.0  0.81180  0.17600  0.12980  1.0000 -0.1608233674
C   C49       1.0  0.76665  0.08095  0.18560  1.0000 0.0622012206
C   C50       1.0  0.69535  0.04325  0.25010  1.0000 -0.1500265904
C   C51       1.0  0.79031  0.01969  0.17180  1.0000 0.0662286329
C   C52       1.0  0.88530  0.06690  0.14280  1.0000 -0.1344651616
C   C53       1.0  0.90280  0.00800  0.12280  1.0000 -0.1500265904
C   C54       1.0  0.82613  0.89967  0.13080  1.0000 0.0622012206
C   C55       1.0  0.73303  0.85317  0.16390  1.0000 -0.1500265904
C   C56       1.0  0.71581  0.91179  0.18360  1.0000 -0.1389827355
C   C57       1.0  0.84073  0.83647  0.10030  1.0000 0.0662286329
C   C58       1.0  0.94011  0.87289  0.10140  1.0000 -0.1500265904
C   C59       1.0  0.95301  0.81499  0.06980  1.0000 -0.1008745742
C   C60       1.0  0.86830  0.71870  0.03730  1.0000 -0.0200306183
C   C61       1.0  0.76947  0.67933  0.03830  1.0000 -0.1008745742
C   C62       1.0  0.75710  0.73910  0.06850  1.0000 -0.1608233674
C   C63       1.0  0.88206  0.65554  0.00190  1.0000 0.5641712286
C   C64       1.0  0.05272  0.58868  0.17070  1.0000 0.6455538758
C   C65       1.0  0.09519  0.66501  0.24320  1.0000 -0.0143841159
C   C66       1.0  0.18682  0.70658  0.30250  1.0000 -0.1008745742
C   C67       1.0  0.22763  0.78057  0.36430  1.0000 -0.0200306183
C   C68       1.0  0.32705  0.82515  0.42730  1.0000 0.6258421131
C   C69       1.0  0.17600  0.81180  0.37020  1.0000 -0.1608233674
C   C70       1.0  0.08095  0.76665  0.31440  1.0000 0.0622012206
C   C71       1.0  0.04325  0.69535  0.24990  1.0000 -0.1500265904
C   C72       1.0  0.01969  0.79031  0.32820  1.0000 0.0662286329
C   C73       1.0  0.06690  0.88530  0.35720  1.0000 -0.1344651616
C   C74       1.0  0.00800  0.90280  0.37720  1.0000 -0.1500265904
C   C75       1.0  0.89967  0.82613  0.36920  1.0000 0.0622012206
C   C76       1.0  0.85317  0.73303  0.33610  1.0000 -0.1500265904
C   C77       1.0  0.91179  0.71581  0.31640  1.0000 -0.1389827355
C   C78       1.0  0.83647  0.84073  0.39970  1.0000 0.0662286329
C   C79       1.0  0.87289  0.94011  0.39860  1.0000 -0.1500265904
C   C80       1.0  0.81499  0.95301  0.43020  1.0000 -0.1008745742
C   C81       1.0  0.71870  0.86830  0.46270  1.0000 -0.0200306183
C   C82       1.0  0.67933  0.76947  0.46170  1.0000 -0.1008745742
C   C83       1.0  0.73910  0.75710  0.43150  1.0000 -0.1608233674
C   C84       1.0  0.65554  0.88206  0.49810  1.0000 0.5641712286
O   O1        1.0  0.44605  0.03115  0.62140  1.0000 -0.6497781238
O   O2        1.0  0.43413  0.89607  0.66580  1.0000 -0.6730279884
O   O3        1.0  0.19681  0.43919  0.00850  1.0000 -0.6373154334
O   O4        1.0  0.03075  0.30325  0.01670  1.0000 -0.609996911
O   O5        1.0  0.22532  0.64728  0.94950  1.0000 -0.5864198915
O   O6        1.0  0.08611  0.61849  0.95840  1.0000 -0.7631382457
O   O7        1.0  0.03115  0.44605  0.87860  1.0000 -0.6497781238
O   O8        1.0  0.89607  0.43413  0.83420  1.0000 -0.6730279884
O   O9        1.0  0.43919  0.19681  0.49150  1.0000 -0.6373154334
O   O10       1.0  0.30325  0.03075  0.48330  1.0000 -0.609996911
O   O11       1.0  0.64728  0.22532  0.55050  1.0000 -0.5864198915
O   O12       1.0  0.61849  0.08611  0.54160  1.0000 -0.7631382457
O   O13       1.0  0.55395  0.96885  0.37860  1.0000 -0.6497781238
O   O14       1.0  0.56587  0.10393  0.33420  1.0000 -0.6730279884
O   O15       1.0  0.80319  0.56081  0.99150  1.0000 -0.6373154334
O   O16       1.0  0.96925  0.69675  0.98330  1.0000 -0.609996911
O   O17       1.0  0.77468  0.35272  0.05050  1.0000 -0.5843806974
O   O18       1.0  0.91389  0.38151  0.04160  1.0000 -0.7631382457
O   O19       1.0  0.96885  0.55395  0.12140  1.0000 -0.6497781238
O   O20       1.0  0.10393  0.56587  0.16580  1.0000 -0.6730279884
O   O21       1.0  0.56081  0.80319  0.50850  1.0000 -0.6373154334
O   O22       1.0  0.69675  0.96925  0.51670  1.0000 -0.609996911
O   O23       1.0  0.35272  0.77468  0.44950  1.0000 -0.5843806974
O   O24       1.0  0.38151  0.91389  0.45840  1.0000 -0.7631382457
