# DDEC6 charges by PACMAN v1.1 (https://github.com/mtap-research/PACMAN-charge/)
data_2018[Zn][dia]3[ASR]1
_chemical_formula_sum              "Zn4 H72 C104 N24 O24"
_cell_length_a       6.4259
_cell_length_b       23.2131
_cell_length_c       17.4546
_cell_angle_alpha    90
_cell_angle_beta     94.881
_cell_angle_gamma    90

_symmetry_space_group_name_H-M    "P 1"
_symmetry_Int_Tables_number       1

loop_
  _symmetry_equiv_pos_as_xyz
  'x, y, z'

loop_
  _atom_site_type_symbol
  _atom_site_label
  _atom_site_symmetry_multiplicity
  _atom_site_fract_x
  _atom_site_fract_y
  _atom_site_fract_z
  _atom_site_occupancy
  _atom_site_charge
Zn  Zn1       1.0  0.25721  0.56998  0.77331  1.0000 0.7601453739
Zn  Zn2       1.0  0.74279  0.06998  0.72669  1.0000 0.7601453739
Zn  Zn3       1.0  0.74279  0.43002  0.22669  1.0000 0.7601453739
Zn  Zn4       1.0  0.25721  0.93002  0.27331  1.0000 0.7601453739
H   H1        1.0  0.44270  0.34990  0.88290  1.0000 0.1193476873
H   H2        1.0  0.71000  0.28580  0.87630  1.0000 0.1193476873
H   H3        1.0  0.63770  0.43800  0.70620  1.0000 0.1108019846
H   H4        1.0  0.99160  0.22700  0.86490  1.0000 0.1108019846
H   H5        1.0  0.25090  0.16550  0.83560  1.0000 0.1108019846
H   H6        1.0  0.37180  0.26240  0.65640  1.0000 0.1284981802
H   H7        1.0  0.92200  0.50240  0.85660  1.0000 0.1193476873
H   H8        1.0  0.80030  0.64340  0.97220  1.0000 0.1284981802
H   H9        1.0  0.07480  0.66470  0.88830  1.0000 0.1284981802
H   H10       1.0  0.79760  0.45340  0.96730  1.0000 0.1193476873
H   H11       1.0  0.44930  0.59600  0.96920  1.0000 0.1193476873
H   H12       1.0  0.84660  0.52140  0.68560  1.0000 0.1108019846
H   H13       1.0  0.23590  0.62970  0.60330  1.0000 0.1284981802
H   H14       1.0  0.96740  0.60990  0.50110  1.0000 0.1108019846
H   H15       1.0  0.77670  0.53050  0.43470  1.0000 0.1193476873
H   H16       1.0  0.49980  0.51690  0.63070  1.0000 0.1193476873
H   H17       1.0  0.23850  0.31880  0.59260  1.0000 0.2699703205
H   H18       1.0  0.79030  0.42550  0.62400  1.0000 0.2699703205
H   H19       1.0  0.55730  0.84990  0.61710  1.0000 0.1193476873
H   H20       1.0  0.29000  0.78580  0.62370  1.0000 0.1193476873
H   H21       1.0  0.36230  0.93800  0.79380  1.0000 0.1108019846
H   H22       1.0  0.00840  0.72700  0.63510  1.0000 0.1108019846
H   H23       1.0  0.74910  0.66550  0.66440  1.0000 0.1108019846
H   H24       1.0  0.62820  0.76240  0.84360  1.0000 0.1284981802
H   H25       1.0  0.07800  0.00240  0.64340  1.0000 0.1193476873
H   H26       1.0  0.19970  0.14340  0.52780  1.0000 0.1284981802
H   H27       1.0  0.92520  0.16470  0.61170  1.0000 0.1284981802
H   H28       1.0  0.20240  0.95340  0.53270  1.0000 0.1193476873
H   H29       1.0  0.55070  0.09600  0.53080  1.0000 0.1193476873
H   H30       1.0  0.15340  0.02140  0.81440  1.0000 0.1108019846
H   H31       1.0  0.76410  0.12970  0.89670  1.0000 0.1284981802
H   H32       1.0  0.03260  0.10990  0.99890  1.0000 0.1108019846
H   H33       1.0  0.22330  0.03050  0.06530  1.0000 0.1193476873
H   H34       1.0  0.50020  0.01690  0.86930  1.0000 0.1193476873
H   H35       1.0  0.76150  0.81880  0.90740  1.0000 0.2699703205
H   H36       1.0  0.20970  0.92550  0.87600  1.0000 0.2699703205
H   H37       1.0  0.55730  0.65010  0.11710  1.0000 0.1193476873
H   H38       1.0  0.29000  0.71420  0.12370  1.0000 0.1193476873
H   H39       1.0  0.36230  0.56200  0.29380  1.0000 0.1108019846
H   H40       1.0  0.00840  0.77300  0.13510  1.0000 0.1108019846
H   H41       1.0  0.74910  0.83450  0.16440  1.0000 0.1108019846
H   H42       1.0  0.62820  0.73760  0.34360  1.0000 0.1284981802
H   H43       1.0  0.07800  0.49760  0.14340  1.0000 0.1193476873
H   H44       1.0  0.19970  0.35660  0.02780  1.0000 0.1284981802
H   H45       1.0  0.92520  0.33530  0.11170  1.0000 0.1284981802
H   H46       1.0  0.20240  0.54660  0.03270  1.0000 0.1193476873
H   H47       1.0  0.55070  0.40400  0.03080  1.0000 0.1193476873
H   H48       1.0  0.15340  0.47860  0.31440  1.0000 0.1108019846
H   H49       1.0  0.76410  0.37030  0.39670  1.0000 0.1284981802
H   H50       1.0  0.03260  0.39010  0.49890  1.0000 0.1108019846
H   H51       1.0  0.22330  0.46950  0.56530  1.0000 0.1193476873
H   H52       1.0  0.50020  0.48310  0.36930  1.0000 0.1193476873
H   H53       1.0  0.76150  0.68120  0.40740  1.0000 0.2699703205
H   H54       1.0  0.20970  0.57450  0.37600  1.0000 0.2699703205
H   H55       1.0  0.44270  0.15010  0.38290  1.0000 0.1193476873
H   H56       1.0  0.71000  0.21420  0.37630  1.0000 0.1193476873
H   H57       1.0  0.63770  0.06200  0.20620  1.0000 0.1108019846
H   H58       1.0  0.99160  0.27300  0.36490  1.0000 0.1108019846
H   H59       1.0  0.25090  0.33450  0.33560  1.0000 0.1108019846
H   H60       1.0  0.37180  0.23760  0.15640  1.0000 0.1284981802
H   H61       1.0  0.92200  0.99760  0.35660  1.0000 0.1193476873
H   H62       1.0  0.80030  0.85660  0.47220  1.0000 0.1284981802
H   H63       1.0  0.07480  0.83530  0.38830  1.0000 0.1284981802
H   H64       1.0  0.79760  0.04660  0.46730  1.0000 0.1193476873
H   H65       1.0  0.44930  0.90400  0.46920  1.0000 0.1193476873
H   H66       1.0  0.84660  0.97860  0.18560  1.0000 0.1108019846
H   H67       1.0  0.23590  0.87030  0.10330  1.0000 0.1284981802
H   H68       1.0  0.96740  0.89010  0.00110  1.0000 0.1108019846
H   H69       1.0  0.77670  0.96950  0.93470  1.0000 0.1193476873
H   H70       1.0  0.49980  0.98310  0.13070  1.0000 0.1193476873
H   H71       1.0  0.23850  0.18120  0.09260  1.0000 0.2699703205
H   H72       1.0  0.79030  0.07450  0.12400  1.0000 0.2699703205
C   C1        1.0  0.35050  0.44790  0.80400  1.0000 0.5513881225
C   C2        1.0  0.51650  0.40240  0.79610  1.0000 0.0043542638
C   C3        1.0  0.53760  0.35490  0.84610  1.0000 -0.12099185
C   C4        1.0  0.69610  0.31610  0.84140  1.0000 -0.1274981663
C   C5        1.0  0.83790  0.32100  0.78500  1.0000 0.0173045968
C   C6        1.0  0.80660  0.36730  0.73490  1.0000 0.0595109661
C   C7        1.0  0.65090  0.40730  0.74060  1.0000 -0.2084793594
C   C8        1.0  0.13190  0.29150  0.71390  1.0000 0.0595109661
C   C9        1.0  0.00950  0.28188  0.77480  1.0000 0.0173045968
C   C10       1.0  0.06320  0.23400  0.82170  1.0000 -0.1274981663
C   C11       1.0  0.22000  0.19740  0.80440  1.0000 -0.1128400971
C   C12       1.0  0.33333  0.20690  0.74150  1.0000 0.0078286049
C   C13       1.0  0.29260  0.25460  0.69740  1.0000 -0.2084793594
C   C14       1.0  0.49790  0.16450  0.71880  1.0000 0.5268531966
C   C15       1.0  0.92650  0.54000  0.87500  1.0000 0.1108019846
C   C16       1.0  0.85810  0.61780  0.93890  1.0000 -0.0994477567
C   C17       1.0  0.00980  0.62920  0.89270  1.0000 -0.0322837689
C   C18       1.0  0.64920  0.52960  0.96380  1.0000 0.1496696177
C   C19       1.0  0.67830  0.47230  0.98080  1.0000 -0.1634565887
C   C20       1.0  0.47010  0.55740  0.98200  1.0000 -0.1539610472
C   C21       1.0  0.91060  0.54580  0.65250  1.0000 0.0919905234
C   C22       1.0  0.12260  0.60520  0.60700  1.0000 -0.0322837689
C   C23       1.0  0.97600  0.59450  0.55040  1.0000 -0.1128400971
C   C24       1.0  0.66560  0.52800  0.53910  1.0000 0.1496696177
C   C25       1.0  0.66490  0.51810  0.46100  1.0000 -0.1634565887
C   C26       1.0  0.50020  0.51010  0.57820  1.0000 -0.1933569383
C   C27       1.0  0.64950  0.94790  0.69600  1.0000 0.5513881225
C   C28       1.0  0.48350  0.90240  0.70390  1.0000 0.0043542638
C   C29       1.0  0.46240  0.85490  0.65390  1.0000 -0.12099185
C   C30       1.0  0.30390  0.81610  0.65860  1.0000 -0.1274981663
C   C31       1.0  0.16210  0.82100  0.71500  1.0000 0.0173045968
C   C32       1.0  0.19340  0.86730  0.76510  1.0000 0.0595109661
C   C33       1.0  0.34910  0.90730  0.75940  1.0000 -0.2084793594
C   C34       1.0  0.86810  0.79150  0.78610  1.0000 0.0595109661
C   C35       1.0  0.99050  0.78188  0.72520  1.0000 0.0173045968
C   C36       1.0  0.93680  0.73400  0.67830  1.0000 -0.1274981663
C   C37       1.0  0.78000  0.69740  0.69560  1.0000 -0.1128400971
C   C38       1.0  0.66667  0.70690  0.75850  1.0000 0.0043542638
C   C39       1.0  0.70740  0.75460  0.80260  1.0000 -0.2084793594
C   C40       1.0  0.50210  0.66450  0.78120  1.0000 0.5268531966
C   C41       1.0  0.07350  0.04000  0.62500  1.0000 0.1108019846
C   C42       1.0  0.14190  0.11780  0.56110  1.0000 -0.0994477567
C   C43       1.0  0.99020  0.12920  0.60730  1.0000 -0.0322837689
C   C44       1.0  0.35080  0.02960  0.53620  1.0000 0.1496696177
C   C45       1.0  0.32170  0.97230  0.51920  1.0000 -0.1634565887
C   C46       1.0  0.52990  0.05740  0.51800  1.0000 -0.1539610472
C   C47       1.0  0.08940  0.04580  0.84750  1.0000 0.0919905234
C   C48       1.0  0.87740  0.10520  0.89300  1.0000 -0.0322837689
C   C49       1.0  0.02400  0.09450  0.94960  1.0000 -0.1128400971
C   C50       1.0  0.33440  0.02800  0.96090  1.0000 0.1446413922
C   C51       1.0  0.33510  0.01810  0.03900  1.0000 -0.1634565887
C   C52       1.0  0.49980  0.01010  0.92180  1.0000 -0.1933569383
C   C53       1.0  0.64950  0.55210  0.19600  1.0000 0.5513881225
C   C54       1.0  0.48350  0.59760  0.20390  1.0000 0.0043542638
C   C55       1.0  0.46240  0.64510  0.15390  1.0000 -0.12099185
C   C56       1.0  0.30390  0.68390  0.15860  1.0000 -0.1274981663
C   C57       1.0  0.16210  0.67900  0.21500  1.0000 0.0173045968
C   C58       1.0  0.19340  0.63270  0.26510  1.0000 0.0595109661
C   C59       1.0  0.34910  0.59270  0.25940  1.0000 -0.2084793594
C   C60       1.0  0.86810  0.70850  0.28610  1.0000 0.0595109661
C   C61       1.0  0.99050  0.71812  0.22520  1.0000 0.0173045968
C   C62       1.0  0.93680  0.76600  0.17830  1.0000 -0.1274981663
C   C63       1.0  0.78000  0.80260  0.19560  1.0000 -0.1128400971
C   C64       1.0  0.66667  0.79310  0.25850  1.0000 0.0043542638
C   C65       1.0  0.70740  0.74540  0.30260  1.0000 -0.2084793594
C   C66       1.0  0.50210  0.83550  0.28120  1.0000 0.5268531966
C   C67       1.0  0.07350  0.46000  0.12500  1.0000 0.1108019846
C   C68       1.0  0.14190  0.38220  0.06110  1.0000 -0.0994477567
C   C69       1.0  0.99020  0.37080  0.10730  1.0000 -0.0322837689
C   C70       1.0  0.35080  0.47040  0.03620  1.0000 0.1496696177
C   C71       1.0  0.32170  0.52770  0.01920  1.0000 -0.1634565887
C   C72       1.0  0.52990  0.44260  0.01800  1.0000 -0.1539610472
C   C73       1.0  0.08940  0.45420  0.34750  1.0000 0.0919905234
C   C74       1.0  0.87740  0.39480  0.39300  1.0000 -0.0322837689
C   C75       1.0  0.02400  0.40550  0.44960  1.0000 -0.1128400971
C   C76       1.0  0.33440  0.47200  0.46090  1.0000 0.1446413922
C   C77       1.0  0.33510  0.48190  0.53900  1.0000 -0.1634565887
C   C78       1.0  0.49980  0.48990  0.42180  1.0000 -0.1933569383
C   C79       1.0  0.35050  0.05210  0.30400  1.0000 0.5513881225
C   C80       1.0  0.51650  0.09760  0.29610  1.0000 0.0078286049
C   C81       1.0  0.53760  0.14510  0.34610  1.0000 -0.12099185
C   C82       1.0  0.69610  0.18390  0.34140  1.0000 -0.1274981663
C   C83       1.0  0.83790  0.17900  0.28500  1.0000 0.0173045968
C   C84       1.0  0.80660  0.13270  0.23490  1.0000 0.0595109661
C   C85       1.0  0.65090  0.09270  0.24060  1.0000 -0.2084793594
C   C86       1.0  0.13190  0.20850  0.21390  1.0000 0.0595109661
C   C87       1.0  0.00950  0.21812  0.27480  1.0000 0.0173045968
C   C88       1.0  0.06320  0.26600  0.32170  1.0000 -0.1274981663
C   C89       1.0  0.22000  0.30260  0.30440  1.0000 -0.1128400971
C   C90       1.0  0.33333  0.29310  0.24150  1.0000 0.0078286049
C   C91       1.0  0.29260  0.24540  0.19740  1.0000 -0.2084793594
C   C92       1.0  0.49790  0.33550  0.21880  1.0000 0.5268531966
C   C93       1.0  0.92650  0.96000  0.37500  1.0000 0.1108019846
C   C94       1.0  0.85810  0.88220  0.43890  1.0000 -0.0994477567
C   C95       1.0  0.00980  0.87080  0.39270  1.0000 -0.0322837689
C   C96       1.0  0.64920  0.97040  0.46380  1.0000 0.1496696177
C   C97       1.0  0.67830  0.02770  0.48080  1.0000 -0.1634565887
C   C98       1.0  0.47010  0.94260  0.48200  1.0000 -0.1539610472
C   C99       1.0  0.91060  0.95420  0.15250  1.0000 0.0919905234
C   C100      1.0  0.12260  0.89480  0.10700  1.0000 -0.0322837689
C   C101      1.0  0.97600  0.90550  0.05040  1.0000 -0.1128400971
C   C102      1.0  0.66560  0.97200  0.03910  1.0000 0.1496696177
C   C103      1.0  0.66490  0.98190  0.96100  1.0000 -0.1634565887
C   C104      1.0  0.50020  0.98990  0.07820  1.0000 -0.1933569383
N   N1        1.0  0.05360  0.58045  0.85330  1.0000 -0.2899768573
N   N2        1.0  0.80510  0.56079  0.92730  1.0000 0.0078286049
N   N3        1.0  0.08220  0.57495  0.67180  1.0000 -0.279762372
N   N4        1.0  0.83880  0.55580  0.57910  1.0000 0.0043542638
N   N5        1.0  0.09360  0.33930  0.66550  1.0000 0.1039220396
N   N6        1.0  0.93790  0.37526  0.67480  1.0000 0.1108019846
N   N7        1.0  0.94640  0.08045  0.64670  1.0000 -0.2899768573
N   N8        1.0  0.19490  0.06079  0.57270  1.0000 0.0078286049
N   N9        1.0  0.91780  0.07495  0.82820  1.0000 -0.279762372
N   N10       1.0  0.16120  0.05580  0.92090  1.0000 0.0043542638
N   N11       1.0  0.90640  0.83930  0.83450  1.0000 0.1108019846
N   N12       1.0  0.06210  0.87526  0.82520  1.0000 0.1108019846
N   N13       1.0  0.94640  0.41955  0.14670  1.0000 -0.2899768573
N   N14       1.0  0.19490  0.43921  0.07270  1.0000 0.0078286049
N   N15       1.0  0.91780  0.42505  0.32820  1.0000 -0.279762372
N   N16       1.0  0.16120  0.44420  0.42090  1.0000 0.0043542638
N   N17       1.0  0.90640  0.66070  0.33450  1.0000 0.1108019846
N   N18       1.0  0.06210  0.62474  0.32520  1.0000 0.1039220396
N   N19       1.0  0.05360  0.91955  0.35330  1.0000 -0.2899768573
N   N20       1.0  0.80510  0.93921  0.42730  1.0000 0.0078286049
N   N21       1.0  0.08220  0.92505  0.17180  1.0000 -0.279762372
N   N22       1.0  0.83880  0.94420  0.07910  1.0000 0.0043542638
N   N23       1.0  0.09360  0.16070  0.16550  1.0000 0.1039220396
N   N24       1.0  0.93790  0.12474  0.17480  1.0000 0.1108019846
O   O1        1.0  0.40070  0.49673  0.77790  1.0000 -0.5606358272
O   O2        1.0  0.18930  0.43546  0.83220  1.0000 -0.5513827127
O   O3        1.0  0.60250  0.17740  0.66667  1.0000 -0.5339437347
O   O4        1.0  0.51360  0.11886  0.75520  1.0000 -0.5170320194
O   O5        1.0  0.20240  0.34940  0.61110  1.0000 -0.3188563284
O   O6        1.0  0.91360  0.41590  0.62840  1.0000 -0.2664903027
O   O7        1.0  0.59930  0.99673  0.72210  1.0000 -0.5606358272
O   O8        1.0  0.81070  0.93546  0.66780  1.0000 -0.5513827127
O   O9        1.0  0.39750  0.67740  0.83333  1.0000 -0.5339437347
O   O10       1.0  0.48640  0.61886  0.74480  1.0000 -0.5170320194
O   O11       1.0  0.79760  0.84940  0.88890  1.0000 -0.3188563284
O   O12       1.0  0.08640  0.91590  0.87160  1.0000 -0.2664903027
O   O13       1.0  0.59930  0.50327  0.22210  1.0000 -0.5606358272
O   O14       1.0  0.81070  0.56454  0.16780  1.0000 -0.5513827127
O   O15       1.0  0.39750  0.82260  0.33333  1.0000 -0.5339437347
O   O16       1.0  0.48640  0.88114  0.24480  1.0000 -0.5170320194
O   O17       1.0  0.79760  0.65060  0.38890  1.0000 -0.3188563284
O   O18       1.0  0.08640  0.58410  0.37160  1.0000 -0.2664903027
O   O19       1.0  0.40070  0.00327  0.27790  1.0000 -0.5606358272
O   O20       1.0  0.18930  0.06454  0.33220  1.0000 -0.5513827127
O   O21       1.0  0.60250  0.32260  0.16667  1.0000 -0.5339437347
O   O22       1.0  0.51360  0.38114  0.25520  1.0000 -0.5170320194
O   O23       1.0  0.20240  0.15060  0.11110  1.0000 -0.3188563284
O   O24       1.0  0.91360  0.08410  0.12840  1.0000 -0.2664903027
