# DDEC6 charges by PACMAN v1.1 (https://github.com/mtap-research/PACMAN-charge/)
data_2018[Zn][nan]2[ASR]3
_chemical_formula_sum              "Zn16 H128 C208 N32 O64"
_cell_length_a       11.628
_cell_length_b       17.892
_cell_length_c       29.261
_cell_angle_alpha    90
_cell_angle_beta     90
_cell_angle_gamma    90

_symmetry_space_group_name_H-M    "P 1"
_symmetry_Int_Tables_number       1

loop_
  _symmetry_equiv_pos_as_xyz
  'x, y, z'

loop_
  _atom_site_type_symbol
  _atom_site_label
  _atom_site_symmetry_multiplicity
  _atom_site_fract_x
  _atom_site_fract_y
  _atom_site_fract_z
  _atom_site_occupancy
  _atom_site_charge
Zn  Zn1       1.0  0.79145  0.49013  0.79125  1.0000 0.7839003939
Zn  Zn2       1.0  0.41079  0.51885  0.87423  1.0000 0.8184515822
Zn  Zn3       1.0  0.29145  0.00987  0.20875  1.0000 0.7839003939
Zn  Zn4       1.0  0.91079  0.98115  0.12577  1.0000 0.8184515822
Zn  Zn5       1.0  0.20855  0.50987  0.20875  1.0000 0.7839003939
Zn  Zn6       1.0  0.58921  0.48115  0.12577  1.0000 0.8184515822
Zn  Zn7       1.0  0.70855  0.99013  0.79125  1.0000 0.7839003939
Zn  Zn8       1.0  0.08921  0.01885  0.87423  1.0000 0.8184515822
Zn  Zn9       1.0  0.70855  0.50987  0.29125  1.0000 0.7839003939
Zn  Zn10      1.0  0.08921  0.48115  0.37423  1.0000 0.8184515822
Zn  Zn11      1.0  0.20855  0.99013  0.70875  1.0000 0.7839003939
Zn  Zn12      1.0  0.58921  0.01885  0.62577  1.0000 0.8184515822
Zn  Zn13      1.0  0.29145  0.49013  0.70875  1.0000 0.7839003939
Zn  Zn14      1.0  0.91079  0.51885  0.62577  1.0000 0.8184515822
Zn  Zn15      1.0  0.79145  0.00987  0.29125  1.0000 0.7839003939
Zn  Zn16      1.0  0.41079  0.98115  0.37423  1.0000 0.8184515822
H   H1        1.0  0.59570  0.74460  0.82060  1.0000 0.1589785654
H   H2        1.0  0.94050  0.72420  0.73040  1.0000 0.1401061404
H   H3        1.0  0.95210  0.63890  0.74210  1.0000 0.1296666108
H   H4        1.0  0.08230  0.60140  0.80180  1.0000 0.1207714531
H   H5        1.0  0.21900  0.75190  0.88760  1.0000 0.1207714531
H   H6        1.0  0.98900  0.81710  0.79360  1.0000 0.1296666108
H   H7        1.0  0.39410  0.57480  0.09300  1.0000 0.1207714531
H   H8        1.0  0.24140  0.56680  0.04270  1.0000 0.1296666108
H   H9        1.0  0.38760  0.38390  0.98870  1.0000 0.1401061404
H   H10       1.0  0.53270  0.39370  0.04170  1.0000 0.1207714531
H   H11       1.0  0.20780  0.42070  0.95840  1.0000 0.1296666108
H   H12       1.0  0.11780  0.55580  0.98280  1.0000 0.1207714531
H   H13       1.0  0.95580  0.60020  0.93720  1.0000 0.1401061404
H   H14       1.0  0.83680  0.59070  0.87520  1.0000 0.1010524281
H   H15       1.0  0.97540  0.40030  0.83970  1.0000 0.1296666108
H   H16       1.0  0.10090  0.40590  0.90000  1.0000 0.1514430779
H   H17       1.0  0.09570  0.75540  0.17940  1.0000 0.1589785654
H   H18       1.0  0.44050  0.77580  0.26960  1.0000 0.1401061404
H   H19       1.0  0.45210  0.86110  0.25790  1.0000 0.1296666108
H   H20       1.0  0.58230  0.89860  0.19820  1.0000 0.1207714531
H   H21       1.0  0.71900  0.74810  0.11240  1.0000 0.1207714531
H   H22       1.0  0.48900  0.68290  0.20640  1.0000 0.1296666108
H   H23       1.0  0.89410  0.92520  0.90700  1.0000 0.1207714531
H   H24       1.0  0.74140  0.93320  0.95730  1.0000 0.1296666108
H   H25       1.0  0.88760  0.11610  0.01130  1.0000 0.1401061404
H   H26       1.0  0.03270  0.10630  0.95830  1.0000 0.1207714531
H   H27       1.0  0.70780  0.07930  0.04160  1.0000 0.1296666108
H   H28       1.0  0.61780  0.94420  0.01720  1.0000 0.1207714531
H   H29       1.0  0.45580  0.89980  0.06280  1.0000 0.1401061404
H   H30       1.0  0.33680  0.90930  0.12480  1.0000 0.1010524281
H   H31       1.0  0.47540  0.09970  0.16030  1.0000 0.1296666108
H   H32       1.0  0.60090  0.09410  0.10000  1.0000 0.1514430779
H   H33       1.0  0.40430  0.25540  0.17940  1.0000 0.1589785654
H   H34       1.0  0.05950  0.27580  0.26960  1.0000 0.1401061404
H   H35       1.0  0.04790  0.36110  0.25790  1.0000 0.1296666108
H   H36       1.0  0.91770  0.39860  0.19820  1.0000 0.1207714531
H   H37       1.0  0.78100  0.24810  0.11240  1.0000 0.1207714531
H   H38       1.0  0.01100  0.18290  0.20640  1.0000 0.1296666108
H   H39       1.0  0.60590  0.42520  0.90700  1.0000 0.1207714531
H   H40       1.0  0.75860  0.43320  0.95730  1.0000 0.1296666108
H   H41       1.0  0.61240  0.61610  0.01130  1.0000 0.1401061404
H   H42       1.0  0.46730  0.60630  0.95830  1.0000 0.1207714531
H   H43       1.0  0.79220  0.57930  0.04160  1.0000 0.1296666108
H   H44       1.0  0.88220  0.44420  0.01720  1.0000 0.1207714531
H   H45       1.0  0.04420  0.39980  0.06280  1.0000 0.1401061404
H   H46       1.0  0.16320  0.40930  0.12480  1.0000 0.1010524281
H   H47       1.0  0.02460  0.59970  0.16030  1.0000 0.1296666108
H   H48       1.0  0.89910  0.59410  0.10000  1.0000 0.1514430779
H   H49       1.0  0.90430  0.24460  0.82060  1.0000 0.1589785654
H   H50       1.0  0.55950  0.22420  0.73040  1.0000 0.1401061404
H   H51       1.0  0.54790  0.13890  0.74210  1.0000 0.1296666108
H   H52       1.0  0.41770  0.10140  0.80180  1.0000 0.1207714531
H   H53       1.0  0.28100  0.25190  0.88760  1.0000 0.1207714531
H   H54       1.0  0.51100  0.31710  0.79360  1.0000 0.1296666108
H   H55       1.0  0.10590  0.07480  0.09300  1.0000 0.1207714531
H   H56       1.0  0.25860  0.06680  0.04270  1.0000 0.1296666108
H   H57       1.0  0.11240  0.88390  0.98870  1.0000 0.1401061404
H   H58       1.0  0.96730  0.89370  0.04170  1.0000 0.1207714531
H   H59       1.0  0.29220  0.92070  0.95840  1.0000 0.1296666108
H   H60       1.0  0.38220  0.05580  0.98280  1.0000 0.1207714531
H   H61       1.0  0.54420  0.10020  0.93720  1.0000 0.1401061404
H   H62       1.0  0.66320  0.09070  0.87520  1.0000 0.1010524281
H   H63       1.0  0.52460  0.90030  0.83970  1.0000 0.1296666108
H   H64       1.0  0.39910  0.90590  0.90000  1.0000 0.1514430779
H   H65       1.0  0.90430  0.25540  0.32060  1.0000 0.1589785654
H   H66       1.0  0.55950  0.27580  0.23040  1.0000 0.1401061404
H   H67       1.0  0.54790  0.36110  0.24210  1.0000 0.1296666108
H   H68       1.0  0.41770  0.39860  0.30180  1.0000 0.1207714531
H   H69       1.0  0.28100  0.24810  0.38760  1.0000 0.1207714531
H   H70       1.0  0.51100  0.18290  0.29360  1.0000 0.1296666108
H   H71       1.0  0.10590  0.42520  0.59300  1.0000 0.1207714531
H   H72       1.0  0.25860  0.43320  0.54270  1.0000 0.1296666108
H   H73       1.0  0.11240  0.61610  0.48870  1.0000 0.1401061404
H   H74       1.0  0.96730  0.60630  0.54170  1.0000 0.1207714531
H   H75       1.0  0.29220  0.57930  0.45840  1.0000 0.1296666108
H   H76       1.0  0.38220  0.44420  0.48280  1.0000 0.1207714531
H   H77       1.0  0.54420  0.39980  0.43720  1.0000 0.1401061404
H   H78       1.0  0.66320  0.40930  0.37520  1.0000 0.1010524281
H   H79       1.0  0.52460  0.59970  0.33970  1.0000 0.1296666108
H   H80       1.0  0.39910  0.59410  0.40000  1.0000 0.1514430779
H   H81       1.0  0.40430  0.24460  0.67940  1.0000 0.1589785654
H   H82       1.0  0.05950  0.22420  0.76960  1.0000 0.1401061404
H   H83       1.0  0.04790  0.13890  0.75790  1.0000 0.1296666108
H   H84       1.0  0.91770  0.10140  0.69820  1.0000 0.1207714531
H   H85       1.0  0.78100  0.25190  0.61240  1.0000 0.1207714531
H   H86       1.0  0.01100  0.31710  0.70640  1.0000 0.1296666108
H   H87       1.0  0.60590  0.07480  0.40700  1.0000 0.1207714531
H   H88       1.0  0.75860  0.06680  0.45730  1.0000 0.1296666108
H   H89       1.0  0.61240  0.88390  0.51130  1.0000 0.1401061404
H   H90       1.0  0.46730  0.89370  0.45830  1.0000 0.1207714531
H   H91       1.0  0.79220  0.92070  0.54160  1.0000 0.1296666108
H   H92       1.0  0.88220  0.05580  0.51720  1.0000 0.1207714531
H   H93       1.0  0.04420  0.10020  0.56280  1.0000 0.1401061404
H   H94       1.0  0.16320  0.09070  0.62480  1.0000 0.1010524281
H   H95       1.0  0.02460  0.90030  0.66030  1.0000 0.1296666108
H   H96       1.0  0.89910  0.90590  0.60000  1.0000 0.1514430779
H   H97       1.0  0.09570  0.74460  0.67940  1.0000 0.1589785654
H   H98       1.0  0.44050  0.72420  0.76960  1.0000 0.1401061404
H   H99       1.0  0.45210  0.63890  0.75790  1.0000 0.1296666108
H   H100      1.0  0.58230  0.60140  0.69820  1.0000 0.1207714531
H   H101      1.0  0.71900  0.75190  0.61240  1.0000 0.1207714531
H   H102      1.0  0.48900  0.81710  0.70640  1.0000 0.1296666108
H   H103      1.0  0.89410  0.57480  0.40700  1.0000 0.1207714531
H   H104      1.0  0.74140  0.56680  0.45730  1.0000 0.1296666108
H   H105      1.0  0.88760  0.38390  0.51130  1.0000 0.1401061404
H   H106      1.0  0.03270  0.39370  0.45830  1.0000 0.1207714531
H   H107      1.0  0.70780  0.42070  0.54160  1.0000 0.1296666108
H   H108      1.0  0.61780  0.55580  0.51720  1.0000 0.1207714531
H   H109      1.0  0.45580  0.60020  0.56280  1.0000 0.1401061404
H   H110      1.0  0.33680  0.59070  0.62480  1.0000 0.1010524281
H   H111      1.0  0.47540  0.40030  0.66030  1.0000 0.1296666108
H   H112      1.0  0.60090  0.40590  0.60000  1.0000 0.1514430779
H   H113      1.0  0.59570  0.75540  0.32060  1.0000 0.1589785654
H   H114      1.0  0.94050  0.77580  0.23040  1.0000 0.1401061404
H   H115      1.0  0.95210  0.86110  0.24210  1.0000 0.1296666108
H   H116      1.0  0.08230  0.89860  0.30180  1.0000 0.1207714531
H   H117      1.0  0.21900  0.74810  0.38760  1.0000 0.1207714531
H   H118      1.0  0.98900  0.68290  0.29360  1.0000 0.1296666108
H   H119      1.0  0.39410  0.92520  0.59300  1.0000 0.1207714531
H   H120      1.0  0.24140  0.93320  0.54270  1.0000 0.1296666108
H   H121      1.0  0.38760  0.11610  0.48870  1.0000 0.1401061404
H   H122      1.0  0.53270  0.10630  0.54170  1.0000 0.1207714531
H   H123      1.0  0.20780  0.07930  0.45840  1.0000 0.1296666108
H   H124      1.0  0.11780  0.94420  0.48280  1.0000 0.1207714531
H   H125      1.0  0.95580  0.89980  0.43720  1.0000 0.1401061404
H   H126      1.0  0.83680  0.90930  0.37520  1.0000 0.1010524281
H   H127      1.0  0.97540  0.09970  0.33970  1.0000 0.1296666108
H   H128      1.0  0.10090  0.09410  0.40000  1.0000 0.1514430779
C   C1        1.0  0.60240  0.57930  0.82758  1.0000 0.5488811596
C   C2        1.0  0.67400  0.64080  0.80847  1.0000 0.0389134351
C   C3        1.0  0.65660  0.71810  0.80778  1.0000 -0.2427068877
C   C4        1.0  0.74920  0.74660  0.78404  1.0000 0.0265308663
C   C5        1.0  0.76770  0.82710  0.76981  1.0000 0.5431560862
C   C6        1.0  0.93430  0.68770  0.75477  1.0000 -0.1921067299
C   C7        1.0  0.08830  0.65040  0.81199  1.0000 -0.1670034353
C   C8        1.0  0.16470  0.66800  0.84694  1.0000 -0.0093739625
C   C9        1.0  0.17100  0.74070  0.86309  1.0000 -0.1262703028
C   C10       1.0  0.10590  0.79690  0.84290  1.0000 -0.0093739625
C   C11       1.0  0.03160  0.77940  0.80734  1.0000 -0.145207939
C   C12       1.0  0.02020  0.70630  0.79206  1.0000 0.1010524281
C   C13       1.0  0.11470  0.87490  0.86011  1.0000 0.5488811596
C   C14       1.0  0.24550  0.61130  0.86708  1.0000 0.5488811596
C   C15       1.0  0.39170  0.53570  0.07213  1.0000 0.1010524281
C   C16       1.0  0.30020  0.53160  0.04166  1.0000 -0.1997885979
C   C17       1.0  0.29770  0.47440  0.00958  1.0000 0.1589785654
C   C18       1.0  0.38670  0.42270  0.00986  1.0000 -0.1848401439
C   C19       1.0  0.47410  0.42910  0.04161  1.0000 0.0897574041
C   C20       1.0  0.20720  0.46520  0.97487  1.0000 -0.120198955
C   C21       1.0  0.12510  0.51350  0.96455  1.0000 -0.1410333489
C   C22       1.0  0.04410  0.50470  0.92600  1.0000 0.1702056664
C   C23       1.0  0.96230  0.55940  0.91763  1.0000 -0.1921067299
C   C24       1.0  0.89090  0.55340  0.88031  1.0000 0.0775071892
C   C25       1.0  0.97270  0.44140  0.85922  1.0000 0.1010524281
C   C26       1.0  0.04780  0.44410  0.89561  1.0000 -0.1670034353
C   C27       1.0  0.10240  0.92070  0.17242  1.0000 0.5488811596
C   C28       1.0  0.17400  0.85920  0.19153  1.0000 0.0389134351
C   C29       1.0  0.15660  0.78190  0.19222  1.0000 -0.2427068877
C   C30       1.0  0.24920  0.75340  0.21596  1.0000 0.0265308663
C   C31       1.0  0.26770  0.67290  0.23019  1.0000 0.5431560862
C   C32       1.0  0.43430  0.81230  0.24523  1.0000 -0.1921067299
C   C33       1.0  0.58830  0.84960  0.18801  1.0000 -0.1670034353
C   C34       1.0  0.66470  0.83200  0.15306  1.0000 -0.0093739625
C   C35       1.0  0.67100  0.75930  0.13691  1.0000 -0.1262703028
C   C36       1.0  0.60590  0.70310  0.15710  1.0000 -0.0093739625
C   C37       1.0  0.53160  0.72060  0.19266  1.0000 -0.145207939
C   C38       1.0  0.52020  0.79370  0.20794  1.0000 0.1010524281
C   C39       1.0  0.61470  0.62510  0.13989  1.0000 0.5488811596
C   C40       1.0  0.74550  0.88870  0.13292  1.0000 0.5488811596
C   C41       1.0  0.89170  0.96430  0.92787  1.0000 0.1010524281
C   C42       1.0  0.80020  0.96840  0.95834  1.0000 -0.1997885979
C   C43       1.0  0.79770  0.02560  0.99042  1.0000 0.1589785654
C   C44       1.0  0.88670  0.07730  0.99014  1.0000 -0.1848401439
C   C45       1.0  0.97410  0.07090  0.95839  1.0000 0.0897574041
C   C46       1.0  0.70720  0.03480  0.02513  1.0000 -0.120198955
C   C47       1.0  0.62510  0.98650  0.03545  1.0000 -0.1410333489
C   C48       1.0  0.54410  0.99530  0.07400  1.0000 0.1702056664
C   C49       1.0  0.46230  0.94060  0.08237  1.0000 -0.1997885979
C   C50       1.0  0.39090  0.94660  0.11969  1.0000 0.0775071892
C   C51       1.0  0.47270  0.05860  0.14078  1.0000 0.1010524281
C   C52       1.0  0.54780  0.05590  0.10439  1.0000 -0.1670034353
C   C53       1.0  0.39760  0.42070  0.17242  1.0000 0.5488811596
C   C54       1.0  0.32600  0.35920  0.19153  1.0000 0.0389134351
C   C55       1.0  0.34340  0.28190  0.19222  1.0000 -0.2427068877
C   C56       1.0  0.25080  0.25340  0.21596  1.0000 0.0265308663
C   C57       1.0  0.23230  0.17290  0.23019  1.0000 0.5431560862
C   C58       1.0  0.06570  0.31230  0.24523  1.0000 -0.1921067299
C   C59       1.0  0.91170  0.34960  0.18801  1.0000 -0.1670034353
C   C60       1.0  0.83530  0.33200  0.15306  1.0000 -0.0093739625
C   C61       1.0  0.82900  0.25930  0.13691  1.0000 -0.1262703028
C   C62       1.0  0.89410  0.20310  0.15710  1.0000 -0.0093739625
C   C63       1.0  0.96840  0.22060  0.19266  1.0000 -0.145207939
C   C64       1.0  0.97980  0.29370  0.20794  1.0000 0.1010524281
C   C65       1.0  0.88530  0.12510  0.13989  1.0000 0.5488811596
C   C66       1.0  0.75450  0.38870  0.13292  1.0000 0.5488811596
C   C67       1.0  0.60830  0.46430  0.92787  1.0000 0.1010524281
C   C68       1.0  0.69980  0.46840  0.95834  1.0000 -0.1997885979
C   C69       1.0  0.70230  0.52560  0.99042  1.0000 0.1589785654
C   C70       1.0  0.61330  0.57730  0.99014  1.0000 -0.1921067299
C   C71       1.0  0.52590  0.57090  0.95839  1.0000 0.0897574041
C   C72       1.0  0.79280  0.53480  0.02513  1.0000 -0.120198955
C   C73       1.0  0.87490  0.48650  0.03545  1.0000 -0.1410333489
C   C74       1.0  0.95590  0.49530  0.07400  1.0000 0.1702056664
C   C75       1.0  0.03770  0.44060  0.08237  1.0000 -0.1997885979
C   C76       1.0  0.10910  0.44660  0.11969  1.0000 0.0775071892
C   C77       1.0  0.02730  0.55860  0.14078  1.0000 0.1010524281
C   C78       1.0  0.95220  0.55590  0.10439  1.0000 -0.1670034353
C   C79       1.0  0.89760  0.07930  0.82758  1.0000 0.5488811596
C   C80       1.0  0.82600  0.14080  0.80847  1.0000 0.0389134351
C   C81       1.0  0.84340  0.21810  0.80778  1.0000 -0.2427068877
C   C82       1.0  0.75080  0.24660  0.78404  1.0000 0.0265308663
C   C83       1.0  0.73230  0.32710  0.76981  1.0000 0.5431560862
C   C84       1.0  0.56570  0.18770  0.75477  1.0000 -0.1921067299
C   C85       1.0  0.41170  0.15040  0.81199  1.0000 -0.1670034353
C   C86       1.0  0.33530  0.16800  0.84694  1.0000 -0.0093739625
C   C87       1.0  0.32900  0.24070  0.86309  1.0000 -0.1262703028
C   C88       1.0  0.39410  0.29690  0.84290  1.0000 -0.0093739625
C   C89       1.0  0.46840  0.27940  0.80734  1.0000 -0.145207939
C   C90       1.0  0.47980  0.20630  0.79206  1.0000 0.1010524281
C   C91       1.0  0.38530  0.37490  0.86011  1.0000 0.5488811596
C   C92       1.0  0.25450  0.11130  0.86708  1.0000 0.5488811596
C   C93       1.0  0.10830  0.03570  0.07213  1.0000 0.1010524281
C   C94       1.0  0.19980  0.03160  0.04166  1.0000 -0.1997885979
C   C95       1.0  0.20230  0.97440  0.00958  1.0000 0.1589785654
C   C96       1.0  0.11330  0.92270  0.00986  1.0000 -0.1848401439
C   C97       1.0  0.02590  0.92910  0.04161  1.0000 0.0897574041
C   C98       1.0  0.29280  0.96520  0.97487  1.0000 -0.120198955
C   C99       1.0  0.37490  0.01350  0.96455  1.0000 -0.1410333489
C   C100      1.0  0.45590  0.00470  0.92600  1.0000 0.1702056664
C   C101      1.0  0.53770  0.05940  0.91763  1.0000 -0.1997885979
C   C102      1.0  0.60910  0.05340  0.88031  1.0000 0.0775071892
C   C103      1.0  0.52730  0.94140  0.85922  1.0000 0.1010524281
C   C104      1.0  0.45220  0.94410  0.89561  1.0000 -0.1670034353
C   C105      1.0  0.89760  0.42070  0.32758  1.0000 0.5488811596
C   C106      1.0  0.82600  0.35920  0.30847  1.0000 0.0389134351
C   C107      1.0  0.84340  0.28190  0.30778  1.0000 -0.2427068877
C   C108      1.0  0.75080  0.25340  0.28404  1.0000 0.0265308663
C   C109      1.0  0.73230  0.17290  0.26981  1.0000 0.5431560862
C   C110      1.0  0.56570  0.31230  0.25477  1.0000 -0.1921067299
C   C111      1.0  0.41170  0.34960  0.31199  1.0000 -0.1670034353
C   C112      1.0  0.33530  0.33200  0.34694  1.0000 -0.0093739625
C   C113      1.0  0.32900  0.25930  0.36309  1.0000 -0.1262703028
C   C114      1.0  0.39410  0.20310  0.34290  1.0000 -0.0093739625
C   C115      1.0  0.46840  0.22060  0.30734  1.0000 -0.145207939
C   C116      1.0  0.47980  0.29370  0.29206  1.0000 0.1010524281
C   C117      1.0  0.38530  0.12510  0.36011  1.0000 0.5488811596
C   C118      1.0  0.25450  0.38870  0.36708  1.0000 0.5488811596
C   C119      1.0  0.10830  0.46430  0.57213  1.0000 0.1010524281
C   C120      1.0  0.19980  0.46840  0.54166  1.0000 -0.1997885979
C   C121      1.0  0.20230  0.52560  0.50958  1.0000 0.1589785654
C   C122      1.0  0.11330  0.57730  0.50986  1.0000 -0.1848401439
C   C123      1.0  0.02590  0.57090  0.54161  1.0000 0.0897574041
C   C124      1.0  0.29280  0.53480  0.47487  1.0000 -0.120198955
C   C125      1.0  0.37490  0.48650  0.46455  1.0000 -0.1410333489
C   C126      1.0  0.45590  0.49530  0.42600  1.0000 0.1702056664
C   C127      1.0  0.53770  0.44060  0.41763  1.0000 -0.1997885979
C   C128      1.0  0.60910  0.44660  0.38031  1.0000 0.0775071892
C   C129      1.0  0.52730  0.55860  0.35922  1.0000 0.1010524281
C   C130      1.0  0.45220  0.55590  0.39561  1.0000 -0.1670034353
C   C131      1.0  0.39760  0.07930  0.67242  1.0000 0.5488811596
C   C132      1.0  0.32600  0.14080  0.69153  1.0000 0.0389134351
C   C133      1.0  0.34340  0.21810  0.69222  1.0000 -0.2427068877
C   C134      1.0  0.25080  0.24660  0.71596  1.0000 0.0265308663
C   C135      1.0  0.23230  0.32710  0.73019  1.0000 0.5431560862
C   C136      1.0  0.06570  0.18770  0.74523  1.0000 -0.1921067299
C   C137      1.0  0.91170  0.15040  0.68801  1.0000 -0.1670034353
C   C138      1.0  0.83530  0.16800  0.65306  1.0000 -0.0093739625
C   C139      1.0  0.82900  0.24070  0.63691  1.0000 -0.1262703028
C   C140      1.0  0.89410  0.29690  0.65710  1.0000 -0.0093739625
C   C141      1.0  0.96840  0.27940  0.69266  1.0000 -0.145207939
C   C142      1.0  0.97980  0.20630  0.70794  1.0000 0.1010524281
C   C143      1.0  0.88530  0.37490  0.63989  1.0000 0.5488811596
C   C144      1.0  0.75450  0.11130  0.63292  1.0000 0.5488811596
C   C145      1.0  0.60830  0.03570  0.42787  1.0000 0.1010524281
C   C146      1.0  0.69980  0.03160  0.45834  1.0000 -0.1997885979
C   C147      1.0  0.70230  0.97440  0.49042  1.0000 0.1589785654
C   C148      1.0  0.61330  0.92270  0.49014  1.0000 -0.1848401439
C   C149      1.0  0.52590  0.92910  0.45839  1.0000 0.0897574041
C   C150      1.0  0.79280  0.96520  0.52513  1.0000 -0.120198955
C   C151      1.0  0.87490  0.01350  0.53545  1.0000 -0.1410333489
C   C152      1.0  0.95590  0.00470  0.57400  1.0000 0.1702056664
C   C153      1.0  0.03770  0.05940  0.58237  1.0000 -0.1997885979
C   C154      1.0  0.10910  0.05340  0.61969  1.0000 0.0775071892
C   C155      1.0  0.02730  0.94140  0.64078  1.0000 0.1010524281
C   C156      1.0  0.95220  0.94410  0.60439  1.0000 -0.1670034353
C   C157      1.0  0.10240  0.57930  0.67242  1.0000 0.5488811596
C   C158      1.0  0.17400  0.64080  0.69153  1.0000 0.0389134351
C   C159      1.0  0.15660  0.71810  0.69222  1.0000 -0.2427068877
C   C160      1.0  0.24920  0.74660  0.71596  1.0000 0.0265308663
C   C161      1.0  0.26770  0.82710  0.73019  1.0000 0.5431560862
C   C162      1.0  0.43430  0.68770  0.74523  1.0000 -0.1921067299
C   C163      1.0  0.58830  0.65040  0.68801  1.0000 -0.1670034353
C   C164      1.0  0.66470  0.66800  0.65306  1.0000 -0.0093739625
C   C165      1.0  0.67100  0.74070  0.63691  1.0000 -0.1262703028
C   C166      1.0  0.60590  0.79690  0.65710  1.0000 -0.0093739625
C   C167      1.0  0.53160  0.77940  0.69266  1.0000 -0.145207939
C   C168      1.0  0.52020  0.70630  0.70794  1.0000 0.1010524281
C   C169      1.0  0.61470  0.87490  0.63989  1.0000 0.5488811596
C   C170      1.0  0.74550  0.61130  0.63292  1.0000 0.5488811596
C   C171      1.0  0.89170  0.53570  0.42787  1.0000 0.1010524281
C   C172      1.0  0.80020  0.53160  0.45834  1.0000 -0.1997885979
C   C173      1.0  0.79770  0.47440  0.49042  1.0000 0.1589785654
C   C174      1.0  0.88670  0.42270  0.49014  1.0000 -0.1848401439
C   C175      1.0  0.97410  0.42910  0.45839  1.0000 0.0897574041
C   C176      1.0  0.70720  0.46520  0.52513  1.0000 -0.120198955
C   C177      1.0  0.62510  0.51350  0.53545  1.0000 -0.1410333489
C   C178      1.0  0.54410  0.50470  0.57400  1.0000 0.1702056664
C   C179      1.0  0.46230  0.55940  0.58237  1.0000 -0.1921067299
C   C180      1.0  0.39090  0.55340  0.61969  1.0000 0.0775071892
C   C181      1.0  0.47270  0.44140  0.64078  1.0000 0.1010524281
C   C182      1.0  0.54780  0.44410  0.60439  1.0000 -0.1670034353
C   C183      1.0  0.60240  0.92070  0.32758  1.0000 0.5488811596
C   C184      1.0  0.67400  0.85920  0.30847  1.0000 0.0389134351
C   C185      1.0  0.65660  0.78190  0.30778  1.0000 -0.2427068877
C   C186      1.0  0.74920  0.75340  0.28404  1.0000 0.0265308663
C   C187      1.0  0.76770  0.67290  0.26981  1.0000 0.5431560862
C   C188      1.0  0.93430  0.81230  0.25477  1.0000 -0.1921067299
C   C189      1.0  0.08830  0.84960  0.31199  1.0000 -0.1670034353
C   C190      1.0  0.16470  0.83200  0.34694  1.0000 -0.0093739625
C   C191      1.0  0.17100  0.75930  0.36309  1.0000 -0.1262703028
C   C192      1.0  0.10590  0.70310  0.34290  1.0000 -0.0093739625
C   C193      1.0  0.03160  0.72060  0.30734  1.0000 -0.145207939
C   C194      1.0  0.02020  0.79370  0.29206  1.0000 0.1010524281
C   C195      1.0  0.11470  0.62510  0.36011  1.0000 0.5488811596
C   C196      1.0  0.24550  0.88870  0.36708  1.0000 0.5488811596
C   C197      1.0  0.39170  0.96430  0.57213  1.0000 0.1010524281
C   C198      1.0  0.30020  0.96840  0.54166  1.0000 -0.1997885979
C   C199      1.0  0.29770  0.02560  0.50958  1.0000 0.1589785654
C   C200      1.0  0.38670  0.07730  0.50986  1.0000 -0.1848401439
C   C201      1.0  0.47410  0.07090  0.54161  1.0000 0.0897574041
C   C202      1.0  0.20720  0.03480  0.47487  1.0000 -0.120198955
C   C203      1.0  0.12510  0.98650  0.46455  1.0000 -0.1410333489
C   C204      1.0  0.04410  0.99530  0.42600  1.0000 0.1702056664
C   C205      1.0  0.96230  0.94060  0.41763  1.0000 -0.1921067299
C   C206      1.0  0.89090  0.94660  0.38031  1.0000 0.0775071892
C   C207      1.0  0.97270  0.05860  0.35922  1.0000 0.1010524281
C   C208      1.0  0.04780  0.05590  0.39561  1.0000 -0.1670034353
N   N1        1.0  0.77320  0.62180  0.78762  1.0000 -0.2882938099
N   N2        1.0  0.81640  0.68740  0.77251  1.0000 0.191954172
N   N3        1.0  0.89600  0.49550  0.85082  1.0000 -0.2305583966
N   N4        1.0  0.47710  0.48480  0.07232  1.0000 -0.2427068877
N   N5        1.0  0.27320  0.87820  0.21238  1.0000 -0.2882938099
N   N6        1.0  0.31640  0.81260  0.22749  1.0000 0.191954172
N   N7        1.0  0.39600  0.00450  0.14918  1.0000 -0.2305583966
N   N8        1.0  0.97710  0.01520  0.92768  1.0000 -0.2427068877
N   N9        1.0  0.22680  0.37820  0.21238  1.0000 -0.2882938099
N   N10       1.0  0.18360  0.31260  0.22749  1.0000 0.191954172
N   N11       1.0  0.10400  0.50450  0.14918  1.0000 -0.2305583966
N   N12       1.0  0.52290  0.51520  0.92768  1.0000 -0.2427068877
N   N13       1.0  0.72680  0.12180  0.78762  1.0000 -0.2882938099
N   N14       1.0  0.68360  0.18740  0.77251  1.0000 0.191954172
N   N15       1.0  0.60400  0.99550  0.85082  1.0000 -0.2305583966
N   N16       1.0  0.02290  0.98480  0.07232  1.0000 -0.2427068877
N   N17       1.0  0.72680  0.37820  0.28762  1.0000 -0.2882938099
N   N18       1.0  0.68360  0.31260  0.27251  1.0000 0.191954172
N   N19       1.0  0.60400  0.50450  0.35082  1.0000 -0.2305583966
N   N20       1.0  0.02290  0.51520  0.57232  1.0000 -0.2427068877
N   N21       1.0  0.22680  0.12180  0.71238  1.0000 -0.2882938099
N   N22       1.0  0.18360  0.18740  0.72749  1.0000 0.191954172
N   N23       1.0  0.10400  0.99550  0.64918  1.0000 -0.2305583966
N   N24       1.0  0.52290  0.98480  0.42768  1.0000 -0.2427068877
N   N25       1.0  0.27320  0.62180  0.71238  1.0000 -0.2882938099
N   N26       1.0  0.31640  0.68740  0.72749  1.0000 0.191954172
N   N27       1.0  0.39600  0.49550  0.64918  1.0000 -0.2305583966
N   N28       1.0  0.97710  0.48480  0.42768  1.0000 -0.2427068877
N   N29       1.0  0.77320  0.87820  0.28762  1.0000 -0.2882938099
N   N30       1.0  0.81640  0.81260  0.27251  1.0000 0.191954172
N   N31       1.0  0.89600  0.00450  0.35082  1.0000 -0.2305583966
N   N32       1.0  0.47710  0.01520  0.57232  1.0000 -0.2427068877
O   O1        1.0  0.50500  0.59790  0.84185  1.0000 -0.494055507
O   O2        1.0  0.64420  0.51484  0.82768  1.0000 -0.5113293316
O   O3        1.0  0.82520  0.83940  0.73476  1.0000 -0.5436881792
O   O4        1.0  0.71920  0.87410  0.79550  1.0000 -0.5436881792
O   O5        1.0  0.30450  0.62620  0.90103  1.0000 -0.5470371779
O   O6        1.0  0.25750  0.54867  0.84618  1.0000 -0.5338702214
O   O7        1.0  0.15980  0.88890  0.89758  1.0000 -0.5727248204
O   O8        1.0  0.06930  0.92690  0.83571  1.0000 -0.5224625033
O   O9        1.0  0.00500  0.90210  0.15815  1.0000 -0.494055507
O   O10       1.0  0.14420  0.98516  0.17232  1.0000 -0.5113293316
O   O11       1.0  0.32520  0.66060  0.26524  1.0000 -0.5436881792
O   O12       1.0  0.21920  0.62590  0.20450  1.0000 -0.5436881792
O   O13       1.0  0.80450  0.87380  0.09897  1.0000 -0.5470371779
O   O14       1.0  0.75750  0.95133  0.15382  1.0000 -0.5338702214
O   O15       1.0  0.65980  0.61110  0.10242  1.0000 -0.5727248204
O   O16       1.0  0.56930  0.57310  0.16429  1.0000 -0.5224625033
O   O17       1.0  0.49500  0.40210  0.15815  1.0000 -0.494055507
O   O18       1.0  0.35580  0.48516  0.17232  1.0000 -0.5113293316
O   O19       1.0  0.17480  0.16060  0.26524  1.0000 -0.5436881792
O   O20       1.0  0.28080  0.12590  0.20450  1.0000 -0.5436881792
O   O21       1.0  0.69550  0.37380  0.09897  1.0000 -0.5470371779
O   O22       1.0  0.74250  0.45133  0.15382  1.0000 -0.5338702214
O   O23       1.0  0.84020  0.11110  0.10242  1.0000 -0.5727248204
O   O24       1.0  0.93070  0.07310  0.16429  1.0000 -0.5224625033
O   O25       1.0  0.99500  0.09790  0.84185  1.0000 -0.494055507
O   O26       1.0  0.85580  0.01484  0.82768  1.0000 -0.5113293316
O   O27       1.0  0.67480  0.33940  0.73476  1.0000 -0.5436881792
O   O28       1.0  0.78080  0.37410  0.79550  1.0000 -0.5436881792
O   O29       1.0  0.19550  0.12620  0.90103  1.0000 -0.5470371779
O   O30       1.0  0.24250  0.04867  0.84618  1.0000 -0.5338702214
O   O31       1.0  0.34020  0.38890  0.89758  1.0000 -0.5727248204
O   O32       1.0  0.43070  0.42690  0.83571  1.0000 -0.5224625033
O   O33       1.0  0.99500  0.40210  0.34185  1.0000 -0.494055507
O   O34       1.0  0.85580  0.48516  0.32768  1.0000 -0.5113293316
O   O35       1.0  0.67480  0.16060  0.23476  1.0000 -0.5436881792
O   O36       1.0  0.78080  0.12590  0.29550  1.0000 -0.5436881792
O   O37       1.0  0.19550  0.37380  0.40103  1.0000 -0.5470371779
O   O38       1.0  0.24250  0.45133  0.34618  1.0000 -0.5338702214
O   O39       1.0  0.34020  0.11110  0.39758  1.0000 -0.5727248204
O   O40       1.0  0.43070  0.07310  0.33571  1.0000 -0.5224625033
O   O41       1.0  0.49500  0.09790  0.65815  1.0000 -0.494055507
O   O42       1.0  0.35580  0.01484  0.67232  1.0000 -0.5113293316
O   O43       1.0  0.17480  0.33940  0.76524  1.0000 -0.5436881792
O   O44       1.0  0.28080  0.37410  0.70450  1.0000 -0.5436881792
O   O45       1.0  0.69550  0.12620  0.59897  1.0000 -0.5470371779
O   O46       1.0  0.74250  0.04867  0.65382  1.0000 -0.5338702214
O   O47       1.0  0.84020  0.38890  0.60242  1.0000 -0.5727248204
O   O48       1.0  0.93070  0.42690  0.66429  1.0000 -0.5224625033
O   O49       1.0  0.00500  0.59790  0.65815  1.0000 -0.494055507
O   O50       1.0  0.14420  0.51484  0.67232  1.0000 -0.5113293316
O   O51       1.0  0.32520  0.83940  0.76524  1.0000 -0.5436881792
O   O52       1.0  0.21920  0.87410  0.70450  1.0000 -0.5436881792
O   O53       1.0  0.80450  0.62620  0.59897  1.0000 -0.5470371779
O   O54       1.0  0.75750  0.54867  0.65382  1.0000 -0.5338702214
O   O55       1.0  0.65980  0.88890  0.60242  1.0000 -0.5727248204
O   O56       1.0  0.56930  0.92690  0.66429  1.0000 -0.5224625033
O   O57       1.0  0.50500  0.90210  0.34185  1.0000 -0.494055507
O   O58       1.0  0.64420  0.98516  0.32768  1.0000 -0.5113293316
O   O59       1.0  0.82520  0.66060  0.23476  1.0000 -0.5436881792
O   O60       1.0  0.71920  0.62590  0.29550  1.0000 -0.5436881792
O   O61       1.0  0.30450  0.87380  0.40103  1.0000 -0.5470371779
O   O62       1.0  0.25750  0.95133  0.34618  1.0000 -0.5338702214
O   O63       1.0  0.15980  0.61110  0.39758  1.0000 -0.5727248204
O   O64       1.0  0.06930  0.57310  0.33571  1.0000 -0.5224625033
