# DDEC6 charges by PACMAN v1.1 (https://github.com/mtap-research/PACMAN-charge/)
data_2018[Cd][dia]3[ASR]1
_chemical_formula_sum              "Cd4 H60 C80 N4 O24"
_cell_length_a       14.5356
_cell_length_b       15.8989
_cell_length_c       17.2554
_cell_angle_alpha    112.547
_cell_angle_beta     111.545
_cell_angle_gamma    95.787

_symmetry_space_group_name_H-M    "P 1"
_symmetry_Int_Tables_number       1

loop_
  _symmetry_equiv_pos_as_xyz
  'x, y, z'

loop_
  _atom_site_type_symbol
  _atom_site_label
  _atom_site_symmetry_multiplicity
  _atom_site_fract_x
  _atom_site_fract_y
  _atom_site_fract_z
  _atom_site_occupancy
  _atom_site_charge
Cd  Cd1       1.0  0.26221  0.92158  0.61119  1.0000 0.939169726
Cd  Cd2       1.0  0.32938  0.16171  0.68668  1.0000 0.939169726
Cd  Cd3       1.0  0.73779  0.07842  0.38881  1.0000 0.939169726
Cd  Cd4       1.0  0.67062  0.83829  0.31332  1.0000 0.939169726
H   H1        1.0  0.98110  0.09186  0.15248  1.0000 0.1009388718
H   H2        1.0  0.99739  0.18928  0.23530  1.0000 0.1009388718
H   H3        1.0  0.98810  0.05940  0.26684  1.0000 0.1189088138
H   H4        1.0  0.01626  0.99255  0.36634  1.0000 0.1189088138
H   H5        1.0  0.32028  0.08453  0.45744  1.0000 0.1189088138
H   H6        1.0  0.29015  0.15539  0.35978  1.0000 0.1395230504
H   H7        1.0  0.05191  0.08894  0.04225  1.0000 0.1009388718
H   H8        1.0  0.15967  0.15809  0.12303  1.0000 0.1009388718
H   H9        1.0  0.10363  0.25643  0.92013  1.0000 0.1395230504
H   H10       1.0  0.15178  0.18983  0.80130  1.0000 0.1189088138
H   H11       1.0  0.22179  0.99168  0.87846  1.0000 0.1189088138
H   H12       1.0  0.17106  0.05439  0.99591  1.0000 0.1189088138
H   H13       1.0  0.94251  0.24803  0.05313  1.0000 0.1009388718
H   H14       1.0  0.89660  0.22597  0.11499  1.0000 0.1009388718
H   H15       1.0  0.77475  0.97102  0.85593  1.0000 0.1278865515
H   H16       1.0  0.60483  0.93304  0.75243  1.0000 0.1278865515
H   H17       1.0  0.59818  0.19059  0.90351  1.0000 0.1189088138
H   H18       1.0  0.75972  0.22514  0.01165  1.0000 0.1278865515
H   H19       1.0  0.11415  0.33872  0.17133  1.0000 0.1009388718
H   H20       1.0  0.16793  0.30986  0.25097  1.0000 0.1067738557
H   H21       1.0  0.21498  0.47027  0.29485  1.0000 0.1189088138
H   H22       1.0  0.27521  0.63034  0.40023  1.0000 0.1189088138
H   H23       1.0  0.02750  0.60775  0.45087  1.0000 0.1009388718
H   H24       1.0  0.96727  0.44768  0.34548  1.0000 0.1395230504
H   H25       1.0  0.08099  0.13749  0.60037  1.0000 0.1278865515
H   H26       1.0  0.36674  0.32468  0.62241  1.0000 0.1189088138
H   H27       1.0  0.34588  0.40725  0.53623  1.0000 0.1189088138
H   H28       1.0  0.18519  0.40382  0.44432  1.0000 0.1009388718
H   H29       1.0  0.03907  0.31608  0.43237  1.0000 0.1278865515
H   H30       1.0  0.98724  0.20244  0.50260  1.0000 0.3160057725
H   H31       1.0  0.01890  0.90814  0.84752  1.0000 0.1009388718
H   H32       1.0  0.00261  0.81072  0.76470  1.0000 0.1009388718
H   H33       1.0  0.01190  0.94060  0.73316  1.0000 0.1189088138
H   H34       1.0  0.98374  0.00745  0.63366  1.0000 0.1189088138
H   H35       1.0  0.67972  0.91547  0.54256  1.0000 0.1189088138
H   H36       1.0  0.70985  0.84461  0.64022  1.0000 0.1395230504
H   H37       1.0  0.94809  0.91106  0.95775  1.0000 0.1009388718
H   H38       1.0  0.84033  0.84191  0.87697  1.0000 0.1009388718
H   H39       1.0  0.89637  0.74357  0.07987  1.0000 0.1395230504
H   H40       1.0  0.84822  0.81017  0.19870  1.0000 0.1189088138
H   H41       1.0  0.77821  0.00832  0.12154  1.0000 0.1189088138
H   H42       1.0  0.82894  0.94561  0.00409  1.0000 0.1189088138
H   H43       1.0  0.05749  0.75197  0.94687  1.0000 0.1009388718
H   H44       1.0  0.10340  0.77403  0.88501  1.0000 0.1009388718
H   H45       1.0  0.22525  0.02898  0.14407  1.0000 0.1278865515
H   H46       1.0  0.39517  0.06696  0.24757  1.0000 0.1189088138
H   H47       1.0  0.40182  0.80941  0.09649  1.0000 0.1189088138
H   H48       1.0  0.24028  0.77486  0.98835  1.0000 0.1278865515
H   H49       1.0  0.88585  0.66128  0.82867  1.0000 0.1009388718
H   H50       1.0  0.83207  0.69014  0.74903  1.0000 0.1067738557
H   H51       1.0  0.78502  0.52973  0.70515  1.0000 0.1189088138
H   H52       1.0  0.72479  0.36966  0.59977  1.0000 0.1189088138
H   H53       1.0  0.97250  0.39225  0.54913  1.0000 0.1009388718
H   H54       1.0  0.03273  0.55232  0.65452  1.0000 0.1395230504
H   H55       1.0  0.91901  0.86251  0.39963  1.0000 0.1278865515
H   H56       1.0  0.63326  0.67532  0.37759  1.0000 0.1189088138
H   H57       1.0  0.65412  0.59275  0.46377  1.0000 0.1189088138
H   H58       1.0  0.81481  0.59618  0.55568  1.0000 0.1009388718
H   H59       1.0  0.96093  0.68392  0.56763  1.0000 0.1278865515
H   H60       1.0  0.01276  0.79756  0.49740  1.0000 0.3160057725
C   C1        1.0  0.03830  0.20510  0.14080  1.0000 0.079090579
C   C2        1.0  0.02670  0.15560  0.19450  1.0000 -0.1334040178
C   C3        1.0  0.13600  0.11300  0.30410  1.0000 0.266085154
C   C4        1.0  0.05510  0.06500  0.30590  1.0000 -0.2395713119
C   C5        1.0  0.07200  0.02510  0.36490  1.0000 -0.0820415282
C   C6        1.0  0.17150  0.03250  0.42300  1.0000 -0.0613597853
C   C7        1.0  0.25310  0.08020  0.41990  1.0000 -0.0820415282
C   C8        1.0  0.23510  0.12160  0.36100  1.0000 -0.2395713119
C   C9        1.0  0.19370  0.99210  0.49000  1.0000 0.532797909
C   C10       1.0  0.09090  0.15510  0.08270  1.0000 -0.0899777463
C   C11       1.0  0.13220  0.16050  0.96870  1.0000 0.2544292273
C   C12       1.0  0.12670  0.20260  0.91170  1.0000 -0.2395713119
C   C13       1.0  0.15630  0.16270  0.84120  1.0000 -0.0820415282
C   C14       1.0  0.19150  0.08580  0.82890  1.0000 -0.0531300978
C   C15       1.0  0.19750  0.04480  0.88660  1.0000 -0.0993726937
C   C16       1.0  0.16740  0.08240  0.95680  1.0000 -0.2486527203
C   C17       1.0  0.21760  0.03340  0.75100  1.0000 0.5622829856
C   C18       1.0  0.93500  0.20480  0.07900  1.0000 -0.10877327
C   C19       1.0  0.78750  0.09830  0.95120  1.0000 0.2810032727
C   C20       1.0  0.73770  0.01460  0.86910  1.0000 -0.2758573232
C   C21       1.0  0.63630  0.99160  0.80530  1.0000 -0.0706778542
C   C22       1.0  0.58570  0.05530  0.82180  1.0000 -0.0613597853
C   C23       1.0  0.63360  0.14470  0.89710  1.0000 -0.0706778542
C   C24       1.0  0.72960  0.16540  0.96030  1.0000 -0.2395713119
C   C25       1.0  0.47590  0.04010  0.75360  1.0000 0.5878281059
C   C26       1.0  0.10190  0.30740  0.20650  1.0000 -0.0993726937
C   C27       1.0  0.08516  0.44310  0.30972  1.0000 0.266085154
C   C28       1.0  0.17740  0.49782  0.32612  1.0000 -0.2627895413
C   C29       1.0  0.21349  0.59373  0.38926  1.0000 -0.0613597853
C   C30       1.0  0.15732  0.63491  0.43600  1.0000 -0.0706778542
C   C31       1.0  0.06507  0.58020  0.41960  1.0000 -0.0899777463
C   C32       1.0  0.02899  0.48429  0.35646  1.0000 -0.2486527203
C   C33       1.0  0.19780  0.73610  0.50340  1.0000 0.5410318734
C   C34       1.0  0.11120  0.17930  0.58500  1.0000 0.1805900397
C   C35       1.0  0.21590  0.26710  0.57690  1.0000 0.079090579
C   C36       1.0  0.30090  0.32180  0.58350  1.0000 -0.1774664832
C   C37       1.0  0.28850  0.37160  0.53300  1.0000 -0.1165368384
C   C38       1.0  0.19230  0.36910  0.47790  1.0000 -0.10877327
C   C39       1.0  0.10450  0.31690  0.47010  1.0000 -0.1873842938
C   C40       1.0  0.11900  0.26460  0.52240  1.0000 0.164516619
C   C41       1.0  0.96170  0.79490  0.85920  1.0000 0.079090579
C   C42       1.0  0.97330  0.84440  0.80550  1.0000 -0.1334040178
C   C43       1.0  0.86400  0.88700  0.69590  1.0000 0.266085154
C   C44       1.0  0.94490  0.93500  0.69410  1.0000 -0.2395713119
C   C45       1.0  0.92800  0.97490  0.63510  1.0000 -0.0820415282
C   C46       1.0  0.82850  0.96750  0.57700  1.0000 -0.0531300978
C   C47       1.0  0.74690  0.91980  0.58010  1.0000 -0.0820415282
C   C48       1.0  0.76490  0.87840  0.63900  1.0000 -0.2395713119
C   C49       1.0  0.80630  0.00790  0.51000  1.0000 0.532797909
C   C50       1.0  0.90910  0.84490  0.91730  1.0000 -0.0899777463
C   C51       1.0  0.86780  0.83950  0.03130  1.0000 0.2544292273
C   C52       1.0  0.87330  0.79740  0.08830  1.0000 -0.2395713119
C   C53       1.0  0.84370  0.83730  0.15880  1.0000 -0.0820415282
C   C54       1.0  0.80850  0.91420  0.17110  1.0000 -0.0531300978
C   C55       1.0  0.80250  0.95520  0.11340  1.0000 -0.0993726937
C   C56       1.0  0.83260  0.91760  0.04320  1.0000 -0.2486527203
C   C57       1.0  0.78240  0.96660  0.24900  1.0000 0.5622829856
C   C58       1.0  0.06500  0.79520  0.92100  1.0000 -0.10877327
C   C59       1.0  0.21250  0.90170  0.04880  1.0000 0.2810032727
C   C60       1.0  0.26230  0.98540  0.13090  1.0000 -0.2729127346
C   C61       1.0  0.36370  0.00840  0.19470  1.0000 -0.0706778542
C   C62       1.0  0.41430  0.94470  0.17820  1.0000 -0.0613597853
C   C63       1.0  0.36640  0.85530  0.10290  1.0000 -0.0706778542
C   C64       1.0  0.27040  0.83460  0.03970  1.0000 -0.2395713119
C   C65       1.0  0.52410  0.95990  0.24640  1.0000 0.5878281059
C   C66       1.0  0.89810  0.69260  0.79350  1.0000 -0.0993726937
C   C67       1.0  0.91484  0.55690  0.69028  1.0000 0.266085154
C   C68       1.0  0.82260  0.50218  0.67388  1.0000 -0.2627895413
C   C69       1.0  0.78651  0.40627  0.61074  1.0000 -0.0613597853
C   C70       1.0  0.84268  0.36509  0.56400  1.0000 -0.0706778542
C   C71       1.0  0.93493  0.41980  0.58040  1.0000 -0.0899777463
C   C72       1.0  0.97101  0.51571  0.64354  1.0000 -0.2486527203
C   C73       1.0  0.80220  0.26390  0.49660  1.0000 0.5410318734
C   C74       1.0  0.88880  0.82070  0.41500  1.0000 0.1805900397
C   C75       1.0  0.78410  0.73290  0.42310  1.0000 0.079090579
C   C76       1.0  0.69910  0.67820  0.41650  1.0000 -0.1774664832
C   C77       1.0  0.71150  0.62840  0.46700  1.0000 -0.1165368384
C   C78       1.0  0.80770  0.63090  0.52210  1.0000 -0.10877327
C   C79       1.0  0.89550  0.68310  0.52990  1.0000 -0.1873842938
C   C80       1.0  0.88100  0.73540  0.47760  1.0000 0.1655896665
N   N1        1.0  0.21000  0.20770  0.61660  1.0000 -0.3904373286
N   N2        1.0  0.05310  0.21340  0.52820  1.0000 -0.1994047029
N   N3        1.0  0.79000  0.79230  0.38340  1.0000 -0.3904373286
N   N4        1.0  0.94690  0.78660  0.47180  1.0000 -0.1994047029
O   O1        1.0  0.12745  0.15220  0.24901  1.0000 -0.1774664832
O   O2        1.0  0.09580  0.20081  0.02963  1.0000 -0.1577953002
O   O3        1.0  0.88160  0.11305  0.00677  1.0000 -0.1577953002
O   O4        1.0  0.04727  0.35230  0.25313  1.0000 -0.172502601
O   O5        1.0  0.28090  0.01836  0.55038  1.0000 -0.5111939548
O   O6        1.0  0.12310  0.93090  0.47620  1.0000 -0.5111939548
O   O7        1.0  0.23670  0.95750  0.73214  1.0000 -0.47530722
O   O8        1.0  0.20770  0.07680  0.70294  1.0000 -0.570223683
O   O9        1.0  0.43710  0.10730  0.76599  1.0000 -0.570223683
O   O10       1.0  0.43110  0.95670  0.69321  1.0000 -0.5038633385
O   O11       1.0  0.14450  0.77264  0.54207  1.0000 -0.5636234818
O   O12       1.0  0.28200  0.77860  0.51671  1.0000 -0.5038633385
O   O13       1.0  0.87255  0.84780  0.75099  1.0000 -0.1774664832
O   O14       1.0  0.90420  0.79919  0.97037  1.0000 -0.1577953002
O   O15       1.0  0.11840  0.88695  0.99323  1.0000 -0.1577953002
O   O16       1.0  0.95273  0.64770  0.74687  1.0000 -0.172502601
O   O17       1.0  0.71910  0.98164  0.44962  1.0000 -0.5168543397
O   O18       1.0  0.87690  0.06910  0.52380  1.0000 -0.5111939548
O   O19       1.0  0.76330  0.04250  0.26786  1.0000 -0.47530722
O   O20       1.0  0.79230  0.92320  0.29706  1.0000 -0.570223683
O   O21       1.0  0.56290  0.89270  0.23401  1.0000 -0.570223683
O   O22       1.0  0.56890  0.04330  0.30679  1.0000 -0.5038633385
O   O23       1.0  0.85550  0.22736  0.45793  1.0000 -0.5636234818
O   O24       1.0  0.71800  0.22140  0.48329  1.0000 -0.5111939548
