# DDEC6 charges by PACMAN v1.1 (https://github.com/mtap-research/PACMAN-charge/)
data_2018[Mg][ant]3[ASR]2
_chemical_formula_sum              "Mg4 H52 C76 N8 O18"
_cell_length_a       13.033
_cell_length_b       18.532
_cell_length_c       18.881
_cell_angle_alpha    60.752
_cell_angle_beta     80.205
_cell_angle_gamma    77.194

_symmetry_space_group_name_H-M    "P 1"
_symmetry_Int_Tables_number       1

loop_
  _symmetry_equiv_pos_as_xyz
  'x, y, z'

loop_
  _atom_site_type_symbol
  _atom_site_label
  _atom_site_symmetry_multiplicity
  _atom_site_fract_x
  _atom_site_fract_y
  _atom_site_fract_z
  _atom_site_occupancy
  _atom_site_charge
Mg  Mg1       1.0  0.89053  0.85859  0.32993  1.0000 1.2993319836
Mg  Mg2       1.0  0.63420  0.81995  0.32205  1.0000 1.3062370625
Mg  Mg3       1.0  0.10947  0.14141  0.67007  1.0000 1.2993319836
Mg  Mg4       1.0  0.36580  0.18005  0.67795  1.0000 1.3062370625
H   H1        1.0  0.99600  0.88720  0.09460  1.0000 0.1096946132
H   H2        1.0  0.03670  0.91740  0.96290  1.0000 0.1195176827
H   H3        1.0  0.73790  0.91870  0.93680  1.0000 0.1024393692
H   H4        1.0  0.70000  0.87890  0.07630  1.0000 0.1291631517
H   H5        1.0  0.99050  0.04160  0.83260  1.0000 0.1024393692
H   H6        1.0  0.99620  0.03610  0.62620  1.0000 0.1096946132
H   H7        1.0  0.04980  0.92170  0.60660  1.0000 0.1096946132
H   H8        1.0  0.01110  0.88640  0.50990  1.0000 0.1096946132
H   H9        1.0  0.71150  0.86460  0.61710  1.0000 0.1024393692
H   H10       1.0  0.74910  0.89510  0.71540  1.0000 0.1096946132
H   H11       1.0  0.51290  0.96630  0.63020  1.0000 0.1195176827
H   H12       1.0  0.55690  0.87520  0.57530  1.0000 0.1195176827
H   H13       1.0  0.25320  0.84640  0.60690  1.0000 0.1096946132
H   H14       1.0  0.20930  0.94030  0.65960  1.0000 0.1195176827
H   H15       1.0  0.53040  0.86620  0.46100  1.0000 0.1096946132
H   H16       1.0  0.49660  0.68740  0.42720  1.0000 0.1024393692
H   H17       1.0  0.25030  0.65160  0.49890  1.0000 0.1195176827
H   H18       1.0  0.19360  0.52630  0.53360  1.0000 0.1195176827
H   H19       1.0  0.45800  0.39440  0.65250  1.0000 0.1096946132
H   H20       1.0  0.51470  0.51970  0.61790  1.0000 0.1195176827
H   H21       1.0  0.83230  0.83110  0.80890  1.0000 0.2694016603
H   H22       1.0  0.79710  0.85250  0.87480  1.0000 0.2694016603
H   H23       1.0  0.32600  0.72300  0.67390  1.0000 0.2536044028
H   H24       1.0  0.36710  0.64010  0.69090  1.0000 0.2694016603
H   H25       1.0  0.75340  0.78580  0.42970  1.0000 0.3247188237
H   H26       1.0  0.79430  0.73520  0.39860  1.0000 0.3435287383
H   H27       1.0  0.00400  0.11280  0.90540  1.0000 0.1096946132
H   H28       1.0  0.96330  0.08260  0.03710  1.0000 0.1195176827
H   H29       1.0  0.26210  0.08130  0.06320  1.0000 0.1024393692
H   H30       1.0  0.30000  0.12110  0.92370  1.0000 0.1291631517
H   H31       1.0  0.00950  0.95840  0.16740  1.0000 0.1024393692
H   H32       1.0  0.00380  0.96390  0.37380  1.0000 0.1096946132
H   H33       1.0  0.95020  0.07830  0.39340  1.0000 0.1096946132
H   H34       1.0  0.98890  0.11360  0.49010  1.0000 0.1096946132
H   H35       1.0  0.28850  0.13540  0.38290  1.0000 0.1024393692
H   H36       1.0  0.25090  0.10490  0.28460  1.0000 0.1096946132
H   H37       1.0  0.48710  0.03370  0.36980  1.0000 0.1195176827
H   H38       1.0  0.44310  0.12480  0.42470  1.0000 0.1195176827
H   H39       1.0  0.74680  0.15360  0.39310  1.0000 0.1096946132
H   H40       1.0  0.79070  0.05970  0.34040  1.0000 0.1195176827
H   H41       1.0  0.46960  0.13380  0.53900  1.0000 0.1096946132
H   H42       1.0  0.50340  0.31260  0.57280  1.0000 0.1024393692
H   H43       1.0  0.74970  0.34840  0.50110  1.0000 0.1195176827
H   H44       1.0  0.80640  0.47370  0.46640  1.0000 0.1195176827
H   H45       1.0  0.54200  0.60560  0.34750  1.0000 0.1096946132
H   H46       1.0  0.48530  0.48030  0.38210  1.0000 0.1195176827
H   H47       1.0  0.16770  0.16890  0.19110  1.0000 0.2694016603
H   H48       1.0  0.20290  0.14750  0.12520  1.0000 0.2694016603
H   H49       1.0  0.67400  0.27700  0.32610  1.0000 0.2536044028
H   H50       1.0  0.63290  0.35990  0.30910  1.0000 0.2694016603
H   H51       1.0  0.24660  0.21420  0.57030  1.0000 0.3266751972
H   H52       1.0  0.20570  0.26480  0.60140  1.0000 0.3435287383
C   C1        1.0  0.81070  0.86350  0.18460  1.0000 0.6341153589
C   C2        1.0  0.84040  0.88280  0.09750  1.0000 -0.0335090579
C   C3        1.0  0.94270  0.89310  0.06270  1.0000 -0.0983469131
C   C4        1.0  0.96610  0.91110  0.98500  1.0000 -0.1582446861
C   C5        1.0  0.89300  0.92090  0.93600  1.0000 0.0820927813
C   C6        1.0  0.79170  0.91100  0.96920  1.0000 -0.1690655014
C   C7        1.0  0.76890  0.88930  0.05220  1.0000 -0.0911315971
C   C8        1.0  0.91550  0.95110  0.84780  1.0000 -0.0911315971
C   C9        1.0  0.97290  0.01680  0.80350  1.0000 0.0820927813
C   C10       1.0  0.97840  0.01340  0.68310  1.0000 0.0221248344
C   C11       1.0  0.92560  0.94520  0.72330  1.0000 -0.0810178568
C   C12       1.0  0.89660  0.91090  0.80560  1.0000 0.2207177189
C   C13       1.0  0.90230  0.91580  0.66560  1.0000 0.09024413
C   C14       1.0  0.98170  0.91030  0.60790  1.0000 -0.1788523066
C   C15       1.0  0.95940  0.88770  0.55140  1.0000 -0.0983469131
C   C16       1.0  0.85710  0.86670  0.55760  1.0000 -0.0431810393
C   C17       1.0  0.78050  0.87420  0.61640  1.0000 -0.0911315971
C   C18       1.0  0.80050  0.89480  0.67330  1.0000 -0.1973871383
C   C19       1.0  0.83410  0.84340  0.49790  1.0000 0.5727891531
C   C20       1.0  0.32440  0.02960  0.67540  1.0000 0.6189614144
C   C21       1.0  0.35740  0.96560  0.64770  1.0000 -0.0431810393
C   C22       1.0  0.45870  0.94300  0.62450  1.0000 -0.0911315971
C   C23       1.0  0.48560  0.88740  0.59310  1.0000 -0.143675642
C   C24       1.0  0.41210  0.85060  0.58760  1.0000 0.09024413
C   C25       1.0  0.30650  0.87120  0.61160  1.0000 -0.1690655014
C   C26       1.0  0.28060  0.92740  0.64210  1.0000 -0.0983469131
C   C27       1.0  0.43800  0.79480  0.55010  1.0000 -0.0810178568
C   C28       1.0  0.50170  0.81630  0.48060  1.0000 0.0432961938
C   C29       1.0  0.48580  0.71330  0.46120  1.0000 0.0820927813
C   C30       1.0  0.42250  0.67700  0.53490  1.0000 -0.0810178568
C   C31       1.0  0.39750  0.72030  0.58020  1.0000 0.2102618646
C   C32       1.0  0.38780  0.59740  0.55510  1.0000 0.09024413
C   C33       1.0  0.29240  0.59940  0.53010  1.0000 -0.1690655014
C   C34       1.0  0.25880  0.52490  0.55070  1.0000 -0.0911315971
C   C35       1.0  0.32050  0.44850  0.59630  1.0000 -0.0502501744
C   C36       1.0  0.41590  0.44660  0.62130  1.0000 -0.0983469131
C   C37       1.0  0.44950  0.52100  0.60070  1.0000 -0.1690655014
C   C38       1.0  0.28820  0.36750  0.62080  1.0000 0.5727891531
C   C39       1.0  0.18930  0.13650  0.81540  1.0000 0.6341153589
C   C40       1.0  0.15960  0.11720  0.90250  1.0000 -0.0335090579
C   C41       1.0  0.05730  0.10690  0.93730  1.0000 -0.0983469131
C   C42       1.0  0.03390  0.08890  0.01500  1.0000 -0.1582446861
C   C43       1.0  0.10700  0.07910  0.06400  1.0000 0.0820927813
C   C44       1.0  0.20830  0.08900  0.03080  1.0000 -0.1690655014
C   C45       1.0  0.23110  0.11070  0.94780  1.0000 -0.0911315971
C   C46       1.0  0.08450  0.04890  0.15220  1.0000 -0.0911315971
C   C47       1.0  0.02710  0.98320  0.19650  1.0000 0.0820927813
C   C48       1.0  0.02160  0.98660  0.31690  1.0000 0.0221248344
C   C49       1.0  0.07440  0.05480  0.27670  1.0000 -0.0810178568
C   C50       1.0  0.10340  0.08910  0.19440  1.0000 0.2207177189
C   C51       1.0  0.09770  0.08420  0.33440  1.0000 0.09024413
C   C52       1.0  0.01830  0.08970  0.39210  1.0000 -0.1788523066
C   C53       1.0  0.04060  0.11230  0.44860  1.0000 -0.0983469131
C   C54       1.0  0.14290  0.13330  0.44240  1.0000 -0.0431810393
C   C55       1.0  0.21950  0.12580  0.38360  1.0000 -0.0911315971
C   C56       1.0  0.19950  0.10520  0.32670  1.0000 -0.1973871383
C   C57       1.0  0.16590  0.15660  0.50210  1.0000 0.5727891531
C   C58       1.0  0.67560  0.97040  0.32460  1.0000 0.6189614144
C   C59       1.0  0.64260  0.03440  0.35230  1.0000 -0.0431810393
C   C60       1.0  0.54130  0.05700  0.37550  1.0000 -0.0911315971
C   C61       1.0  0.51440  0.11260  0.40690  1.0000 -0.143675642
C   C62       1.0  0.58790  0.14940  0.41240  1.0000 0.09024413
C   C63       1.0  0.69350  0.12880  0.38840  1.0000 -0.1690655014
C   C64       1.0  0.71940  0.07260  0.35790  1.0000 -0.0983469131
C   C65       1.0  0.56200  0.20520  0.44990  1.0000 -0.0810178568
C   C66       1.0  0.49830  0.18370  0.51940  1.0000 0.0432961938
C   C67       1.0  0.51420  0.28670  0.53880  1.0000 0.0820927813
C   C68       1.0  0.57750  0.32300  0.46510  1.0000 -0.0810178568
C   C69       1.0  0.60250  0.27970  0.41980  1.0000 0.2102618646
C   C70       1.0  0.61220  0.40260  0.44490  1.0000 0.09024413
C   C71       1.0  0.70760  0.40060  0.46990  1.0000 -0.1690655014
C   C72       1.0  0.74120  0.47510  0.44930  1.0000 -0.0810178568
C   C73       1.0  0.67950  0.55150  0.40370  1.0000 -0.0502501744
C   C74       1.0  0.58410  0.55340  0.37870  1.0000 -0.0983469131
C   C75       1.0  0.55050  0.47900  0.39930  1.0000 -0.1690655014
C   C76       1.0  0.71180  0.63250  0.37920  1.0000 0.5727891531
N   N1        1.0  0.00550  0.04840  0.72630  1.0000 -0.325465599
N   N2        1.0  0.85170  0.84180  0.84550  1.0000 -0.5229826662
N   N3        1.0  0.52870  0.77630  0.43700  1.0000 -0.2854622695
N   N4        1.0  0.33820  0.68620  0.65490  1.0000 -0.5441275629
N   N5        1.0  0.99450  0.95160  0.27370  1.0000 -0.325465599
N   N6        1.0  0.14830  0.15820  0.15450  1.0000 -0.5229826662
N   N7        1.0  0.47130  0.22370  0.56300  1.0000 -0.2854622695
N   N8        1.0  0.66180  0.31380  0.34510  1.0000 -0.5441275629
O   O1        1.0  0.71690  0.85380  0.21340  1.0000 -0.6421881708
O   O2        1.0  0.88530  0.85780  0.22400  1.0000 -0.6790548357
O   O3        1.0  0.75330  0.81270  0.51130  1.0000 -0.5229826662
O   O4        1.0  0.90250  0.85210  0.44030  1.0000 -0.6421881708
O   O5        1.0  0.77010  0.78200  0.38750  1.0000 -0.7740802559
O   O6        1.0  0.22750  0.04290  0.69530  1.0000 -0.6311749909
O   O7        1.0  0.39090  0.06620  0.67840  1.0000 -0.6217922959
O   O8        1.0  0.20980  0.37390  0.58010  1.0000 -0.5675120148
O   O9        1.0  0.34690  0.30090  0.66060  1.0000 -0.6311749909
O   O10       1.0  0.28310  0.14620  0.78660  1.0000 -0.6421881708
O   O11       1.0  0.11470  0.14220  0.77600  1.0000 -0.6790548357
O   O12       1.0  0.24670  0.18730  0.48870  1.0000 -0.5229826662
O   O13       1.0  0.09750  0.14790  0.55970  1.0000 -0.6421881708
O   O14       1.0  0.22990  0.21800  0.61250  1.0000 -0.7740802559
O   O15       1.0  0.77250  0.95710  0.30470  1.0000 -0.6311749909
O   O16       1.0  0.60910  0.93380  0.32160  1.0000 -0.6217922959
O   O17       1.0  0.79020  0.62610  0.41990  1.0000 -0.5675120148
O   O18       1.0  0.65310  0.69910  0.33940  1.0000 -0.6311749909
