# DDEC6 charges by PACMAN v1.1 (https://github.com/mtap-research/PACMAN-charge/)
data_2018[Ho][nan]3[ASR]2
_chemical_formula_sum              "Ho6 H18 C42 N6 O30"
_cell_length_a       11.693
_cell_length_b       11.693
_cell_length_c       15.546
_cell_angle_alpha    90
_cell_angle_beta     90
_cell_angle_gamma    120

_symmetry_space_group_name_H-M    "P 1"
_symmetry_Int_Tables_number       1

loop_
  _symmetry_equiv_pos_as_xyz
  'x, y, z'

loop_
  _atom_site_type_symbol
  _atom_site_label
  _atom_site_symmetry_multiplicity
  _atom_site_fract_x
  _atom_site_fract_y
  _atom_site_fract_z
  _atom_site_occupancy
  _atom_site_charge
Ho  Ho1       1.0  0.82262  0.64524  0.25000  1.0000 2.0629353233
Ho  Ho2       1.0  0.82262  0.17738  0.58333  1.0000 2.0629353233
Ho  Ho3       1.0  0.35476  0.17738  0.91667  1.0000 2.0629353233
Ho  Ho4       1.0  0.17738  0.35476  0.75000  1.0000 2.0629353233
Ho  Ho5       1.0  0.17738  0.82262  0.08333  1.0000 2.0629353233
Ho  Ho6       1.0  0.64524  0.82262  0.41667  1.0000 2.0629353233
H   H1        1.0  0.78661  0.36698  0.34848  1.0000 0.1168222087
H   H2        1.0  0.58037  0.21339  0.68182  1.0000 0.1168222087
H   H3        1.0  0.63302  0.41963  0.01515  1.0000 0.1168222087
H   H4        1.0  0.21339  0.63302  0.84848  1.0000 0.1168222087
H   H5        1.0  0.41963  0.78661  0.18182  1.0000 0.1168222087
H   H6        1.0  0.36698  0.58037  0.51515  1.0000 0.1168222087
H   H7        1.0  0.41963  0.63302  0.65152  1.0000 0.1168222087
H   H8        1.0  0.36698  0.78661  0.31818  1.0000 0.1168222087
H   H9        1.0  0.21339  0.58037  0.98485  1.0000 0.1168222087
H   H10       1.0  0.58037  0.36698  0.15152  1.0000 0.1168222087
H   H11       1.0  0.63302  0.21339  0.81818  1.0000 0.1168222087
H   H12       1.0  0.78661  0.41963  0.48485  1.0000 0.1168222087
H   H13       1.0  0.50819  0.01638  0.25000  1.0000 0.1339199203
H   H14       1.0  0.50819  0.49181  0.58333  1.0000 0.1339199203
H   H15       1.0  0.98362  0.49181  0.91667  1.0000 0.1339199203
H   H16       1.0  0.49181  0.98362  0.75000  1.0000 0.1339199203
H   H17       1.0  0.49181  0.50819  0.08333  1.0000 0.1339199203
H   H18       1.0  0.01638  0.50819  0.41667  1.0000 0.1339199203
C   C1        1.0  0.71970  0.32080  0.30863  1.0000 0.0831442433
C   C2        1.0  0.65230  0.18720  0.31293  1.0000 -0.0773305227
C   C3        1.0  0.67230  0.11440  0.38583  1.0000 0.645793687
C   C4        1.0  0.60110  0.28030  0.64197  1.0000 0.0831442433
C   C5        1.0  0.53490  0.34770  0.64627  1.0000 -0.0773305227
C   C6        1.0  0.44210  0.32770  0.71917  1.0000 0.645793687
C   C7        1.0  0.67920  0.39890  0.97530  1.0000 0.0831442433
C   C8        1.0  0.81280  0.46510  0.97960  1.0000 -0.0773305227
C   C9        1.0  0.88560  0.55790  0.05250  1.0000 0.645793687
C   C10       1.0  0.28030  0.67920  0.80863  1.0000 0.0831442433
C   C11       1.0  0.34770  0.81280  0.81293  1.0000 -0.0773305227
C   C12       1.0  0.32770  0.88560  0.88583  1.0000 0.645793687
C   C13       1.0  0.39890  0.71970  0.14197  1.0000 0.0831442433
C   C14       1.0  0.46510  0.65230  0.14627  1.0000 -0.0773305227
C   C15       1.0  0.55790  0.67230  0.21917  1.0000 0.645793687
C   C16       1.0  0.32080  0.60110  0.47530  1.0000 0.0831442433
C   C17       1.0  0.18720  0.53490  0.47960  1.0000 -0.0773305227
C   C18       1.0  0.11440  0.44210  0.55250  1.0000 0.645793687
C   C19       1.0  0.39890  0.67920  0.69137  1.0000 0.0831442433
C   C20       1.0  0.46510  0.81280  0.68707  1.0000 -0.0773305227
C   C21       1.0  0.55790  0.88560  0.61417  1.0000 0.645793687
C   C22       1.0  0.32080  0.71970  0.35803  1.0000 0.0831442433
C   C23       1.0  0.18720  0.65230  0.35373  1.0000 -0.0773305227
C   C24       1.0  0.11440  0.67230  0.28083  1.0000 0.645793687
C   C25       1.0  0.28030  0.60110  0.02470  1.0000 0.0831442433
C   C26       1.0  0.34770  0.53490  0.02040  1.0000 -0.0773305227
C   C27       1.0  0.32770  0.44210  0.94750  1.0000 0.645793687
C   C28       1.0  0.60110  0.32080  0.19137  1.0000 0.0831442433
C   C29       1.0  0.53490  0.18720  0.18707  1.0000 -0.0773305227
C   C30       1.0  0.44210  0.11440  0.11417  1.0000 0.645793687
C   C31       1.0  0.67920  0.28030  0.85803  1.0000 0.0831442433
C   C32       1.0  0.81280  0.34770  0.85373  1.0000 -0.0773305227
C   C33       1.0  0.88560  0.32770  0.78083  1.0000 0.645793687
C   C34       1.0  0.71970  0.39890  0.52470  1.0000 0.0831442433
C   C35       1.0  0.65230  0.46510  0.52040  1.0000 -0.0773305227
C   C36       1.0  0.67230  0.55790  0.44750  1.0000 0.645793687
C   C37       1.0  0.55410  0.10820  0.25000  1.0000 -0.0568236006
C   C38       1.0  0.55410  0.44590  0.58333  1.0000 -0.0568236006
C   C39       1.0  0.89180  0.44590  0.91667  1.0000 -0.0568236006
C   C40       1.0  0.44590  0.89180  0.75000  1.0000 -0.0568236006
C   C41       1.0  0.44590  0.55410  0.08333  1.0000 -0.0568236006
C   C42       1.0  0.10820  0.55410  0.41667  1.0000 -0.0568236006
N   N1        1.0  0.69510  0.39020  0.25000  1.0000 -0.3189544472
N   N2        1.0  0.69510  0.30490  0.58333  1.0000 -0.3189544472
N   N3        1.0  0.60980  0.30490  0.91667  1.0000 -0.3189544472
N   N4        1.0  0.30490  0.60980  0.75000  1.0000 -0.3189544472
N   N5        1.0  0.30490  0.69510  0.08333  1.0000 -0.3189544472
N   N6        1.0  0.39020  0.69510  0.41667  1.0000 -0.3189544472
O   O1        1.0  0.75460  0.18580  0.44343  1.0000 -0.6171285633
O   O2        1.0  0.60680  0.99020  0.38793  1.0000 -0.6252579908
O   O3        1.0  0.43120  0.24540  0.77677  1.0000 -0.6171285633
O   O4        1.0  0.38340  0.39320  0.72127  1.0000 -0.6252579908
O   O5        1.0  0.81420  0.56880  0.11010  1.0000 -0.6171285633
O   O6        1.0  0.00980  0.61660  0.05460  1.0000 -0.6252579908
O   O7        1.0  0.24540  0.81420  0.94343  1.0000 -0.6171285633
O   O8        1.0  0.39320  0.00980  0.88793  1.0000 -0.6252579908
O   O9        1.0  0.56880  0.75460  0.27677  1.0000 -0.6171285633
O   O10       1.0  0.61660  0.60680  0.22127  1.0000 -0.6252579908
O   O11       1.0  0.18580  0.43120  0.61010  1.0000 -0.6171285633
O   O12       1.0  0.99020  0.38340  0.55460  1.0000 -0.6252579908
O   O13       1.0  0.56880  0.81420  0.55657  1.0000 -0.6171285633
O   O14       1.0  0.61660  0.00980  0.61207  1.0000 -0.6252579908
O   O15       1.0  0.18580  0.75460  0.22323  1.0000 -0.6171285633
O   O16       1.0  0.99020  0.60680  0.27873  1.0000 -0.6252579908
O   O17       1.0  0.24540  0.43120  0.88990  1.0000 -0.6171285633
O   O18       1.0  0.39320  0.38340  0.94540  1.0000 -0.6252579908
O   O19       1.0  0.43120  0.18580  0.05657  1.0000 -0.6171285633
O   O20       1.0  0.38340  0.99020  0.11207  1.0000 -0.6252579908
O   O21       1.0  0.81420  0.24540  0.72323  1.0000 -0.6171285633
O   O22       1.0  0.00980  0.39320  0.77873  1.0000 -0.6252579908
O   O23       1.0  0.75460  0.56880  0.38990  1.0000 -0.6171285633
O   O24       1.0  0.60680  0.61660  0.44540  1.0000 -0.6171285633
O   O25       1.0  0.82000  0.82000  0.33333  1.0000 -0.8718406809
O   O26       1.0  0.00000  0.18000  0.66667  1.0000 -0.8718406809
O   O27       1.0  0.18000  0.00000  0.00000  1.0000 -0.8879059447
O   O28       1.0  0.18000  0.18000  0.83333  1.0000 -0.8718406809
O   O29       1.0  0.00000  0.82000  0.16667  1.0000 -0.8718406809
O   O30       1.0  0.82000  0.00000  0.50000  1.0000 -0.8718406809
