# DDEC6 charges by PACMAN v1.1 (https://github.com/mtap-research/PACMAN-charge/)
data_2018[Eu][nan]3[ASR]5
_chemical_formula_sum              "Eu4 H48 C76 O40"
_cell_length_a       15.2483
_cell_length_b       15.2483
_cell_length_c       12.298
_cell_angle_alpha    74.5195
_cell_angle_beta     105.48
_cell_angle_gamma    96.6568

_symmetry_space_group_name_H-M    "P 1"
_symmetry_Int_Tables_number       1

loop_
  _symmetry_equiv_pos_as_xyz
  'x, y, z'

loop_
  _atom_site_type_symbol
  _atom_site_label
  _atom_site_symmetry_multiplicity
  _atom_site_fract_x
  _atom_site_fract_y
  _atom_site_fract_z
  _atom_site_occupancy
  _atom_site_charge
Eu  Eu1       1.0  0.95696  0.60328  0.06720  1.0000 2.1098055818
Eu  Eu2       1.0  0.60328  0.95696  0.43280  1.0000 2.1098055818
Eu  Eu3       1.0  0.04304  0.39672  0.93280  1.0000 2.1098055818
Eu  Eu4       1.0  0.39672  0.04304  0.56720  1.0000 2.1098055818
H   H1        1.0  0.79740  0.70340  0.69370  1.0000 0.1406695169
H   H2        1.0  0.59960  0.62540  0.43640  1.0000 0.1329260242
H   H3        1.0  0.77020  0.44080  0.67150  1.0000 0.1406695169
H   H4        1.0  0.51920  0.49540  0.39550  1.0000 0.0998217392
H   H5        1.0  0.60140  0.50200  0.33410  1.0000 0.0998217392
H   H6        1.0  0.50300  0.37960  0.29400  1.0000 0.1159715631
H   H7        1.0  0.50740  0.33860  0.42900  1.0000 0.1329260242
H   H8        1.0  0.59470  0.25290  0.37050  1.0000 0.0895955317
H   H9        1.0  0.66110  0.30390  0.46230  1.0000 0.0998217392
H   H10       1.0  0.77960  0.42180  0.17480  1.0000 0.1548821159
H   H11       1.0  0.88520  0.18820  0.18560  1.0000 0.1406695169
H   H12       1.0  0.69610  0.18150  0.36510  1.0000 0.1406695169
H   H13       1.0  0.70340  0.79740  0.80630  1.0000 0.1406695169
H   H14       1.0  0.62540  0.59960  0.06360  1.0000 0.1329260242
H   H15       1.0  0.44080  0.77020  0.82850  1.0000 0.1406695169
H   H16       1.0  0.49540  0.51920  0.10450  1.0000 0.0998217392
H   H17       1.0  0.50200  0.60140  0.16590  1.0000 0.0998217392
H   H18       1.0  0.37960  0.50300  0.20600  1.0000 0.1159715631
H   H19       1.0  0.33860  0.50740  0.07100  1.0000 0.1329260242
H   H20       1.0  0.25290  0.59470  0.12950  1.0000 0.0895955317
H   H21       1.0  0.30390  0.66110  0.03770  1.0000 0.0998217392
H   H22       1.0  0.42180  0.77960  0.32520  1.0000 0.1548821159
H   H23       1.0  0.18820  0.88520  0.31440  1.0000 0.1406695169
H   H24       1.0  0.18150  0.69610  0.13490  1.0000 0.1406695169
H   H25       1.0  0.20260  0.29660  0.30630  1.0000 0.1406695169
H   H26       1.0  0.40040  0.37460  0.56360  1.0000 0.1329260242
H   H27       1.0  0.22980  0.55920  0.32850  1.0000 0.1406695169
H   H28       1.0  0.48080  0.50460  0.60450  1.0000 0.0998217392
H   H29       1.0  0.39860  0.49800  0.66590  1.0000 0.0998217392
H   H30       1.0  0.49700  0.62040  0.70600  1.0000 0.1159715631
H   H31       1.0  0.49260  0.66140  0.57100  1.0000 0.1329260242
H   H32       1.0  0.40530  0.74710  0.62950  1.0000 0.0895955317
H   H33       1.0  0.33890  0.69610  0.53770  1.0000 0.0998217392
H   H34       1.0  0.22040  0.57820  0.82520  1.0000 0.1548821159
H   H35       1.0  0.11480  0.81180  0.81440  1.0000 0.1406695169
H   H36       1.0  0.30390  0.81850  0.63490  1.0000 0.1406695169
H   H37       1.0  0.29660  0.20260  0.19370  1.0000 0.1406695169
H   H38       1.0  0.37460  0.40040  0.93640  1.0000 0.1329260242
H   H39       1.0  0.55920  0.22980  0.17150  1.0000 0.1406695169
H   H40       1.0  0.50460  0.48080  0.89550  1.0000 0.0998217392
H   H41       1.0  0.49800  0.39860  0.83410  1.0000 0.0998217392
H   H42       1.0  0.62040  0.49700  0.79400  1.0000 0.1159715631
H   H43       1.0  0.66140  0.49260  0.92900  1.0000 0.1329260242
H   H44       1.0  0.74710  0.40530  0.87050  1.0000 0.0895955317
H   H45       1.0  0.69610  0.33890  0.96230  1.0000 0.0998217392
H   H46       1.0  0.57820  0.22040  0.67480  1.0000 0.1548821159
H   H47       1.0  0.81180  0.11480  0.68560  1.0000 0.1406695169
H   H48       1.0  0.81850  0.30390  0.86510  1.0000 0.1406695169
C   C1        1.0  0.86960  0.54120  0.80740  1.0000 0.6431731049
C   C2        1.0  0.79470  0.56810  0.69860  1.0000 0.0021601627
C   C3        1.0  0.76770  0.65750  0.65550  1.0000 -0.1239699594
C   C4        1.0  0.69660  0.67920  0.55560  1.0000 0.0093814784
C   C5        1.0  0.64950  0.61090  0.50260  1.0000 -0.2536476574
C   C6        1.0  0.67640  0.52200  0.54790  1.0000 0.2574404382
C   C7        1.0  0.75020  0.50120  0.64350  1.0000 -0.2097828968
C   C8        1.0  0.66840  0.77460  0.50740  1.0000 0.5686429717
C   C9        1.0  0.57250  0.46410  0.39530  1.0000 -0.0103373752
C   C10       1.0  0.54360  0.37160  0.37330  1.0000 -0.2228047608
C   C11       1.0  0.61970  0.31330  0.38350  1.0000 -0.0103373752
C   C12       1.0  0.72840  0.30940  0.27370  1.0000 0.2574404382
C   C13       1.0  0.78320  0.35760  0.20240  1.0000 -0.2097828968
C   C14       1.0  0.84240  0.31360  0.17100  1.0000 -0.0103373752
C   C15       1.0  0.84590  0.21930  0.20940  1.0000 -0.1093360058
C   C16       1.0  0.79170  0.17010  0.28250  1.0000 0.0021601627
C   C17       1.0  0.73300  0.21460  0.31520  1.0000 -0.2228047608
C   C18       1.0  0.79460  0.06780  0.32170  1.0000 0.612518219
C   C19       1.0  0.90400  0.36500  0.09650  1.0000 0.6431731049
C   C20       1.0  0.54120  0.86960  0.69260  1.0000 0.6431731049
C   C21       1.0  0.56810  0.79470  0.80140  1.0000 0.0021601627
C   C22       1.0  0.65750  0.76770  0.84450  1.0000 -0.1239699594
C   C23       1.0  0.67920  0.69660  0.94440  1.0000 0.0093814784
C   C24       1.0  0.61090  0.64950  0.99740  1.0000 -0.2536476574
C   C25       1.0  0.52200  0.67640  0.95210  1.0000 0.2574404382
C   C26       1.0  0.50120  0.75020  0.85650  1.0000 -0.2097828968
C   C27       1.0  0.77460  0.66840  0.99260  1.0000 0.5686429717
C   C28       1.0  0.46410  0.57250  0.10470  1.0000 -0.0103373752
C   C29       1.0  0.37160  0.54360  0.12670  1.0000 -0.2228047608
C   C30       1.0  0.31330  0.61970  0.11650  1.0000 -0.0103373752
C   C31       1.0  0.30940  0.72840  0.22630  1.0000 0.2574404382
C   C32       1.0  0.35760  0.78320  0.29760  1.0000 -0.2097828968
C   C33       1.0  0.31360  0.84240  0.32900  1.0000 -0.0103373752
C   C34       1.0  0.21930  0.84590  0.29060  1.0000 -0.1093360058
C   C35       1.0  0.17010  0.79170  0.21750  1.0000 0.0021601627
C   C36       1.0  0.21460  0.73300  0.18480  1.0000 -0.2228047608
C   C37       1.0  0.06780  0.79460  0.17830  1.0000 0.612518219
C   C38       1.0  0.36500  0.90400  0.40350  1.0000 0.6431731049
C   C39       1.0  0.13040  0.45880  0.19260  1.0000 0.6431731049
C   C40       1.0  0.20530  0.43190  0.30140  1.0000 0.0021601627
C   C41       1.0  0.23230  0.34250  0.34450  1.0000 -0.1239699594
C   C42       1.0  0.30340  0.32080  0.44440  1.0000 0.0093814784
C   C43       1.0  0.35050  0.38910  0.49740  1.0000 -0.2536476574
C   C44       1.0  0.32360  0.47800  0.45210  1.0000 0.2574404382
C   C45       1.0  0.24980  0.49880  0.35650  1.0000 -0.2097828968
C   C46       1.0  0.33160  0.22540  0.49260  1.0000 0.5686429717
C   C47       1.0  0.42750  0.53590  0.60470  1.0000 -0.0103373752
C   C48       1.0  0.45640  0.62840  0.62670  1.0000 -0.2228047608
C   C49       1.0  0.38030  0.68670  0.61650  1.0000 -0.0103373752
C   C50       1.0  0.27160  0.69060  0.72630  1.0000 0.2574404382
C   C51       1.0  0.21680  0.64240  0.79760  1.0000 -0.2097828968
C   C52       1.0  0.15760  0.68640  0.82900  1.0000 -0.0103373752
C   C53       1.0  0.15410  0.78070  0.79060  1.0000 -0.1093360058
C   C54       1.0  0.20830  0.82990  0.71750  1.0000 0.0021601627
C   C55       1.0  0.26700  0.78540  0.68480  1.0000 -0.2228047608
C   C56       1.0  0.20540  0.93220  0.67830  1.0000 0.612518219
C   C57       1.0  0.09600  0.63500  0.90350  1.0000 0.6431731049
C   C58       1.0  0.45880  0.13040  0.30740  1.0000 0.6431731049
C   C59       1.0  0.43190  0.20530  0.19860  1.0000 0.0021601627
C   C60       1.0  0.34250  0.23230  0.15550  1.0000 -0.1239699594
C   C61       1.0  0.32080  0.30340  0.05560  1.0000 0.0093814784
C   C62       1.0  0.38910  0.35050  0.00260  1.0000 -0.2536476574
C   C63       1.0  0.47800  0.32360  0.04790  1.0000 0.2574404382
C   C64       1.0  0.49880  0.24980  0.14350  1.0000 -0.2097828968
C   C65       1.0  0.22540  0.33160  0.00740  1.0000 0.5686429717
C   C66       1.0  0.53590  0.42750  0.89530  1.0000 -0.0103373752
C   C67       1.0  0.62840  0.45640  0.87330  1.0000 -0.2228047608
C   C68       1.0  0.68670  0.38030  0.88350  1.0000 -0.0103373752
C   C69       1.0  0.69060  0.27160  0.77370  1.0000 0.2574404382
C   C70       1.0  0.64240  0.21680  0.70240  1.0000 -0.2097828968
C   C71       1.0  0.68640  0.15760  0.67100  1.0000 -0.0103373752
C   C72       1.0  0.78070  0.15410  0.70940  1.0000 -0.1093360058
C   C73       1.0  0.82990  0.20830  0.78250  1.0000 0.0021601627
C   C74       1.0  0.78540  0.26700  0.81520  1.0000 -0.2228047608
C   C75       1.0  0.93220  0.20540  0.82170  1.0000 0.612518219
C   C76       1.0  0.63500  0.09600  0.59650  1.0000 0.645577667
O   O1        1.0  0.89010  0.59510  0.87180  1.0000 -0.6352325699
O   O2        1.0  0.90530  0.46730  0.82560  1.0000 -0.6582570098
O   O3        1.0  0.72470  0.83970  0.52670  1.0000 -0.5858510456
O   O4        1.0  0.58890  0.78950  0.44630  1.0000 -0.6308865807
O   O5        1.0  0.63620  0.44940  0.50670  1.0000 -0.168724174
O   O6        1.0  0.66870  0.35870  0.29730  1.0000 -0.1817002169
O   O7        1.0  0.91680  0.44900  0.08560  1.0000 -0.6946612022
O   O8        1.0  0.93980  0.32020  0.04850  1.0000 -0.6201339505
O   O9        1.0  0.86410  0.03190  0.31640  1.0000 -0.4072518073
O   O10       1.0  0.73110  0.02270  0.35880  1.0000 -0.6201339505
O   O11       1.0  0.59510  0.89010  0.62820  1.0000 -0.6352325699
O   O12       1.0  0.46730  0.90530  0.67440  1.0000 -0.6582570098
O   O13       1.0  0.83970  0.72470  0.97330  1.0000 -0.5858510456
O   O14       1.0  0.78950  0.58890  0.05370  1.0000 -0.6352325699
O   O15       1.0  0.44940  0.63620  0.99330  1.0000 -0.168724174
O   O16       1.0  0.35870  0.66870  0.20270  1.0000 -0.1817002169
O   O17       1.0  0.44900  0.91680  0.41440  1.0000 -0.6952047966
O   O18       1.0  0.32020  0.93980  0.45150  1.0000 -0.6201339505
O   O19       1.0  0.03190  0.86410  0.18360  1.0000 -0.4038970343
O   O20       1.0  0.02270  0.73110  0.14120  1.0000 -0.6308865807
O   O21       1.0  0.10990  0.40490  0.12820  1.0000 -0.6352325699
O   O22       1.0  0.09470  0.53270  0.17440  1.0000 -0.6582570098
O   O23       1.0  0.27530  0.16030  0.47330  1.0000 -0.5858510456
O   O24       1.0  0.41110  0.21050  0.55370  1.0000 -0.6308865807
O   O25       1.0  0.36380  0.55060  0.49330  1.0000 -0.168724174
O   O26       1.0  0.33130  0.64130  0.70270  1.0000 -0.1817002169
O   O27       1.0  0.08320  0.55100  0.91440  1.0000 -0.6952047966
O   O28       1.0  0.06020  0.67980  0.95150  1.0000 -0.6201339505
O   O29       1.0  0.13590  0.96810  0.68360  1.0000 -0.4072518073
O   O30       1.0  0.26890  0.97730  0.64120  1.0000 -0.6308865807
O   O31       1.0  0.40490  0.10990  0.37180  1.0000 -0.6352325699
O   O32       1.0  0.53270  0.09470  0.32560  1.0000 -0.6582570098
O   O33       1.0  0.16030  0.27530  0.02670  1.0000 -0.5858510456
O   O34       1.0  0.21050  0.41110  0.94630  1.0000 -0.6352325699
O   O35       1.0  0.55060  0.36380  0.00670  1.0000 -0.168724174
O   O36       1.0  0.64130  0.33130  0.79730  1.0000 -0.1817002169
O   O37       1.0  0.55100  0.08320  0.58560  1.0000 -0.6952047966
O   O38       1.0  0.67980  0.06020  0.54850  1.0000 -0.6201339505
O   O39       1.0  0.96810  0.13590  0.81640  1.0000 -0.4038970343
O   O40       1.0  0.97730  0.26890  0.85880  1.0000 -0.6308865807
