# DDEC6 charges by PACMAN v1.1 (https://github.com/mtap-research/PACMAN-charge/)
data_2018[Cd][tfz]3[ASR]5
_chemical_formula_sum              "Cd18 H216 C360 N72 O72"
_cell_length_a       26.578
_cell_length_b       26.578
_cell_length_c       21.314
_cell_angle_alpha    90
_cell_angle_beta     90
_cell_angle_gamma    120

_symmetry_space_group_name_H-M    "P 1"
_symmetry_Int_Tables_number       1

loop_
  _symmetry_equiv_pos_as_xyz
  'x, y, z'

loop_
  _atom_site_type_symbol
  _atom_site_label
  _atom_site_symmetry_multiplicity
  _atom_site_fract_x
  _atom_site_fract_y
  _atom_site_fract_z
  _atom_site_occupancy
  _atom_site_charge
Cd  Cd1       1.0  0.57154  0.00000  0.75000  1.0000 0.8250984183
Cd  Cd2       1.0  0.42845  0.42845  0.75000  1.0000 0.820502175
Cd  Cd3       1.0  0.00000  0.57154  0.75000  1.0000 0.820502175
Cd  Cd4       1.0  0.42845  0.00000  0.25000  1.0000 0.8250984183
Cd  Cd5       1.0  0.57154  0.57154  0.25000  1.0000 0.820502175
Cd  Cd6       1.0  0.00000  0.42845  0.25000  1.0000 0.820502175
Cd  Cd7       1.0  0.66667  0.90357  0.58159  1.0000 0.814754062
Cd  Cd8       1.0  0.09643  0.76310  0.58159  1.0000 0.814754062
Cd  Cd9       1.0  0.23690  0.33333  0.58159  1.0000 0.814754062
Cd  Cd10      1.0  0.23690  0.90357  0.08159  1.0000 0.814754062
Cd  Cd11      1.0  0.66667  0.76310  0.08159  1.0000 0.814754062
Cd  Cd12      1.0  0.09643  0.33333  0.08159  1.0000 0.814754062
Cd  Cd13      1.0  0.76310  0.09643  0.91841  1.0000 0.820502175
Cd  Cd14      1.0  0.33333  0.23690  0.91841  1.0000 0.814754062
Cd  Cd15      1.0  0.90357  0.66667  0.91841  1.0000 0.814754062
Cd  Cd16      1.0  0.33333  0.09643  0.41841  1.0000 0.814754062
Cd  Cd17      1.0  0.90357  0.23690  0.41841  1.0000 0.820502175
Cd  Cd18      1.0  0.76310  0.66667  0.41841  1.0000 0.814754062
H   H1        1.0  0.43691  0.90930  0.74280  1.0000 0.1207934933
H   H2        1.0  0.36761  0.81490  0.73310  1.0000 0.1301581592
H   H3        1.0  0.48951  0.77080  0.75150  1.0000 0.1301581592
H   H4        1.0  0.55801  0.86740  0.74750  1.0000 0.1086880601
H   H5        1.0  0.45951  0.02060  0.91660  1.0000 0.1301581592
H   H6        1.0  0.56941  0.97320  0.98060  1.0000 0.1207934933
H   H7        1.0  0.47240  0.56309  0.74280  1.0000 0.1207934933
H   H8        1.0  0.44730  0.63239  0.73310  1.0000 0.1301581592
H   H9        1.0  0.28130  0.51049  0.75150  1.0000 0.1301581592
H   H10       1.0  0.30940  0.44199  0.74750  1.0000 0.1086880601
H   H11       1.0  0.56110  0.54049  0.91660  1.0000 0.1301581592
H   H12       1.0  0.40380  0.43059  0.98060  1.0000 0.1207934933
H   H13       1.0  0.09070  0.52760  0.74280  1.0000 0.1207934933
H   H14       1.0  0.18510  0.55270  0.73310  1.0000 0.1301581592
H   H15       1.0  0.22920  0.71870  0.75150  1.0000 0.1301581592
H   H16       1.0  0.13260  0.69060  0.74750  1.0000 0.1086880601
H   H17       1.0  0.97940  0.43890  0.91660  1.0000 0.1301581592
H   H18       1.0  0.02680  0.59620  0.98060  1.0000 0.1207934933
H   H19       1.0  0.52760  0.09070  0.75720  1.0000 0.1207934933
H   H20       1.0  0.55270  0.18510  0.76690  1.0000 0.1301581592
H   H21       1.0  0.71870  0.22920  0.74850  1.0000 0.1301581592
H   H22       1.0  0.69060  0.13260  0.75250  1.0000 0.1086880601
H   H23       1.0  0.43890  0.97940  0.58340  1.0000 0.1301581592
H   H24       1.0  0.59620  0.02680  0.51940  1.0000 0.1207934933
H   H25       1.0  0.90930  0.43691  0.75720  1.0000 0.1207934933
H   H26       1.0  0.81490  0.36761  0.76690  1.0000 0.1301581592
H   H27       1.0  0.77080  0.48951  0.74850  1.0000 0.1301581592
H   H28       1.0  0.86740  0.55801  0.75250  1.0000 0.1086880601
H   H29       1.0  0.02060  0.45951  0.58340  1.0000 0.1301581592
H   H30       1.0  0.97320  0.56941  0.51940  1.0000 0.1207934933
H   H31       1.0  0.56309  0.47240  0.75720  1.0000 0.1207934933
H   H32       1.0  0.63239  0.44730  0.76690  1.0000 0.1301581592
H   H33       1.0  0.51049  0.28130  0.74850  1.0000 0.1301581592
H   H34       1.0  0.44199  0.30940  0.75250  1.0000 0.1086880601
H   H35       1.0  0.54049  0.56110  0.58340  1.0000 0.1301581592
H   H36       1.0  0.43059  0.40380  0.51940  1.0000 0.1207934933
H   H37       1.0  0.56309  0.09070  0.25720  1.0000 0.1207934933
H   H38       1.0  0.63239  0.18510  0.26690  1.0000 0.1301581592
H   H39       1.0  0.51049  0.22920  0.24850  1.0000 0.1301581592
H   H40       1.0  0.44199  0.13260  0.25250  1.0000 0.1086880601
H   H41       1.0  0.54049  0.97940  0.08340  1.0000 0.1301581592
H   H42       1.0  0.43059  0.02680  0.01940  1.0000 0.1207934933
H   H43       1.0  0.52760  0.43691  0.25720  1.0000 0.1207934933
H   H44       1.0  0.55270  0.36761  0.26690  1.0000 0.1301581592
H   H45       1.0  0.71870  0.48951  0.24850  1.0000 0.1301581592
H   H46       1.0  0.69060  0.55801  0.25250  1.0000 0.1086880601
H   H47       1.0  0.43890  0.45951  0.08340  1.0000 0.1301581592
H   H48       1.0  0.59620  0.56941  0.01940  1.0000 0.1207934933
H   H49       1.0  0.90930  0.47240  0.25720  1.0000 0.1207934933
H   H50       1.0  0.81490  0.44730  0.26690  1.0000 0.1301581592
H   H51       1.0  0.77080  0.28130  0.24850  1.0000 0.1301581592
H   H52       1.0  0.86740  0.30940  0.25250  1.0000 0.1086880601
H   H53       1.0  0.02060  0.56110  0.08340  1.0000 0.1301581592
H   H54       1.0  0.97320  0.40380  0.01940  1.0000 0.1207934933
H   H55       1.0  0.47240  0.90930  0.24280  1.0000 0.1207934933
H   H56       1.0  0.44730  0.81490  0.23310  1.0000 0.1301581592
H   H57       1.0  0.28130  0.77080  0.25150  1.0000 0.1301581592
H   H58       1.0  0.30940  0.86740  0.24750  1.0000 0.1086880601
H   H59       1.0  0.56110  0.02060  0.41660  1.0000 0.1301581592
H   H60       1.0  0.40380  0.97320  0.48060  1.0000 0.1207934933
H   H61       1.0  0.09070  0.56309  0.24280  1.0000 0.1207934933
H   H62       1.0  0.18510  0.63239  0.23310  1.0000 0.1301581592
H   H63       1.0  0.22920  0.51049  0.25150  1.0000 0.1301581592
H   H64       1.0  0.13260  0.44199  0.24750  1.0000 0.1086880601
H   H65       1.0  0.97940  0.54049  0.41660  1.0000 0.1301581592
H   H66       1.0  0.02680  0.43059  0.48060  1.0000 0.1207934933
H   H67       1.0  0.43691  0.52760  0.24280  1.0000 0.1207934933
H   H68       1.0  0.36761  0.55270  0.23310  1.0000 0.1301581592
H   H69       1.0  0.48951  0.71870  0.25150  1.0000 0.1301581592
H   H70       1.0  0.55801  0.69060  0.24750  1.0000 0.1086880601
H   H71       1.0  0.45951  0.43890  0.41660  1.0000 0.1301581592
H   H72       1.0  0.56941  0.59620  0.48060  1.0000 0.1207934933
H   H73       1.0  0.53570  0.89250  0.57430  1.0000 0.1086880601
H   H74       1.0  0.43870  0.82300  0.57530  1.0000 0.1390296833
H   H75       1.0  0.48640  0.70230  0.58900  1.0000 0.1390296833
H   H76       1.0  0.58060  0.77600  0.59280  1.0000 0.1207934933
H   H77       1.0  0.79830  0.02280  0.57440  1.0000 0.1086880601
H   H78       1.0  0.89410  0.05030  0.57710  1.0000 0.1390296833
H   H79       1.0  0.84870  0.88110  0.58830  1.0000 0.1390296833
H   H80       1.0  0.75350  0.86180  0.58440  1.0000 0.1086880601
H   H81       1.0  0.66667  0.91956  0.81140  1.0000 0.1301581592
H   H82       1.0  0.66590  0.89420  0.91130  1.0000 0.1301581592
H   H83       1.0  0.68080  0.76090  0.85910  1.0000 0.1301581592
H   H84       1.0  0.67820  0.78390  0.75220  1.0000 0.1207934933
H   H85       1.0  0.10750  0.64321  0.57430  1.0000 0.1086880601
H   H86       1.0  0.17700  0.61571  0.57530  1.0000 0.1390296833
H   H87       1.0  0.29770  0.78411  0.58900  1.0000 0.1390296833
H   H88       1.0  0.22400  0.80461  0.59280  1.0000 0.1207934933
H   H89       1.0  0.97720  0.77551  0.57440  1.0000 0.1086880601
H   H90       1.0  0.94970  0.84381  0.57710  1.0000 0.1390296833
H   H91       1.0  0.11890  0.96761  0.58830  1.0000 0.1390296833
H   H92       1.0  0.13820  0.89171  0.58440  1.0000 0.1086880601
H   H93       1.0  0.08044  0.74711  0.81140  1.0000 0.1301581592
H   H94       1.0  0.10580  0.77171  0.91130  1.0000 0.1301581592
H   H95       1.0  0.23910  0.91991  0.85910  1.0000 0.1301581592
H   H96       1.0  0.21610  0.89431  0.75220  1.0000 0.1207934933
H   H97       1.0  0.35679  0.46430  0.57430  1.0000 0.1086880601
H   H98       1.0  0.38429  0.56130  0.57530  1.0000 0.1390296833
H   H99       1.0  0.21589  0.51360  0.58900  1.0000 0.1390296833
H   H100      1.0  0.19539  0.41940  0.59280  1.0000 0.1207934933
H   H101      1.0  0.22449  0.20170  0.57440  1.0000 0.1086880601
H   H102      1.0  0.15619  0.10590  0.57710  1.0000 0.1390296833
H   H103      1.0  0.03239  0.15130  0.58830  1.0000 0.1390296833
H   H104      1.0  0.10829  0.24650  0.58440  1.0000 0.1086880601
H   H105      1.0  0.25289  0.33333  0.81140  1.0000 0.1301581592
H   H106      1.0  0.22829  0.33410  0.91130  1.0000 0.1301581592
H   H107      1.0  0.08009  0.31920  0.85910  1.0000 0.1301581592
H   H108      1.0  0.10569  0.32180  0.75220  1.0000 0.1207934933
H   H109      1.0  0.35679  0.89250  0.07430  1.0000 0.1086880601
H   H110      1.0  0.38429  0.82300  0.07530  1.0000 0.1390296833
H   H111      1.0  0.21589  0.70230  0.08900  1.0000 0.1390296833
H   H112      1.0  0.19539  0.77600  0.09280  1.0000 0.1207934933
H   H113      1.0  0.22449  0.02280  0.07440  1.0000 0.1086880601
H   H114      1.0  0.15619  0.05030  0.07710  1.0000 0.1390296833
H   H115      1.0  0.03239  0.88110  0.08830  1.0000 0.1390296833
H   H116      1.0  0.10829  0.86180  0.08440  1.0000 0.1086880601
H   H117      1.0  0.25289  0.91956  0.31140  1.0000 0.1301581592
H   H118      1.0  0.22829  0.89420  0.41130  1.0000 0.1301581592
H   H119      1.0  0.08009  0.76090  0.35910  1.0000 0.1301581592
H   H120      1.0  0.10569  0.78390  0.25220  1.0000 0.1207934933
H   H121      1.0  0.53570  0.64321  0.07430  1.0000 0.1086880601
H   H122      1.0  0.43870  0.61571  0.07530  1.0000 0.1390296833
H   H123      1.0  0.48640  0.78411  0.08900  1.0000 0.1390296833
H   H124      1.0  0.58060  0.80461  0.09280  1.0000 0.1207934933
H   H125      1.0  0.79830  0.77551  0.07440  1.0000 0.1086880601
H   H126      1.0  0.89410  0.84381  0.07710  1.0000 0.1390296833
H   H127      1.0  0.84870  0.96761  0.08830  1.0000 0.1390296833
H   H128      1.0  0.75350  0.89171  0.08440  1.0000 0.1086880601
H   H129      1.0  0.66667  0.74711  0.31140  1.0000 0.1301581592
H   H130      1.0  0.66590  0.77171  0.41130  1.0000 0.1301581592
H   H131      1.0  0.68080  0.91991  0.35910  1.0000 0.1301581592
H   H132      1.0  0.67820  0.89431  0.25220  1.0000 0.1207934933
H   H133      1.0  0.10750  0.46430  0.07430  1.0000 0.1086880601
H   H134      1.0  0.17700  0.56130  0.07530  1.0000 0.1390296833
H   H135      1.0  0.29770  0.51360  0.08900  1.0000 0.1390296833
H   H136      1.0  0.22400  0.41940  0.09280  1.0000 0.1207934933
H   H137      1.0  0.97720  0.20170  0.07440  1.0000 0.1086880601
H   H138      1.0  0.94970  0.10590  0.07710  1.0000 0.1390296833
H   H139      1.0  0.11890  0.15130  0.08830  1.0000 0.1390296833
H   H140      1.0  0.13820  0.24650  0.08440  1.0000 0.1086880601
H   H141      1.0  0.08044  0.33333  0.31140  1.0000 0.1301581592
H   H142      1.0  0.10580  0.33410  0.41130  1.0000 0.1301581592
H   H143      1.0  0.23910  0.31920  0.35910  1.0000 0.1301581592
H   H144      1.0  0.21610  0.32180  0.25220  1.0000 0.1207934933
H   H145      1.0  0.64321  0.10750  0.92570  1.0000 0.1086880601
H   H146      1.0  0.61571  0.17700  0.92470  1.0000 0.1390296833
H   H147      1.0  0.78411  0.29770  0.91100  1.0000 0.1390296833
H   H148      1.0  0.80461  0.22400  0.90720  1.0000 0.1207934933
H   H149      1.0  0.77551  0.97720  0.92560  1.0000 0.1086880601
H   H150      1.0  0.84381  0.94970  0.92290  1.0000 0.1390296833
H   H151      1.0  0.96761  0.11890  0.91170  1.0000 0.1390296833
H   H152      1.0  0.89171  0.13820  0.91560  1.0000 0.1086880601
H   H153      1.0  0.74711  0.08044  0.68860  1.0000 0.1301581592
H   H154      1.0  0.77171  0.10580  0.58870  1.0000 0.1207934933
H   H155      1.0  0.91991  0.23910  0.64090  1.0000 0.1301581592
H   H156      1.0  0.89431  0.21610  0.74780  1.0000 0.1207934933
H   H157      1.0  0.46430  0.35679  0.92570  1.0000 0.1086880601
H   H158      1.0  0.56130  0.38429  0.92470  1.0000 0.1390296833
H   H159      1.0  0.51360  0.21589  0.91100  1.0000 0.1390296833
H   H160      1.0  0.41940  0.19539  0.90720  1.0000 0.1207934933
H   H161      1.0  0.20170  0.22449  0.92560  1.0000 0.1086880601
H   H162      1.0  0.10590  0.15619  0.92290  1.0000 0.1390296833
H   H163      1.0  0.15130  0.03239  0.91170  1.0000 0.1390296833
H   H164      1.0  0.24650  0.10829  0.91560  1.0000 0.1086880601
H   H165      1.0  0.33333  0.25289  0.68860  1.0000 0.1301581592
H   H166      1.0  0.33410  0.22829  0.58870  1.0000 0.1301581592
H   H167      1.0  0.31920  0.08009  0.64090  1.0000 0.1301581592
H   H168      1.0  0.32180  0.10569  0.74780  1.0000 0.1207934933
H   H169      1.0  0.89250  0.53570  0.92570  1.0000 0.1086880601
H   H170      1.0  0.82300  0.43870  0.92470  1.0000 0.1390296833
H   H171      1.0  0.70230  0.48640  0.91100  1.0000 0.1390296833
H   H172      1.0  0.77600  0.58060  0.90720  1.0000 0.1207934933
H   H173      1.0  0.02280  0.79830  0.92560  1.0000 0.1086880601
H   H174      1.0  0.05030  0.89410  0.92290  1.0000 0.1390296833
H   H175      1.0  0.88110  0.84870  0.91170  1.0000 0.1390296833
H   H176      1.0  0.86180  0.75350  0.91560  1.0000 0.1086880601
H   H177      1.0  0.91956  0.66667  0.68860  1.0000 0.1301581592
H   H178      1.0  0.89420  0.66590  0.58870  1.0000 0.1301581592
H   H179      1.0  0.76090  0.68080  0.64090  1.0000 0.1301581592
H   H180      1.0  0.78390  0.67820  0.74780  1.0000 0.1207934933
H   H181      1.0  0.46430  0.10750  0.42570  1.0000 0.1086880601
H   H182      1.0  0.56130  0.17700  0.42470  1.0000 0.1390296833
H   H183      1.0  0.51360  0.29770  0.41100  1.0000 0.1390296833
H   H184      1.0  0.41940  0.22400  0.40720  1.0000 0.1207934933
H   H185      1.0  0.20170  0.97720  0.42560  1.0000 0.1086880601
H   H186      1.0  0.10590  0.94970  0.42290  1.0000 0.1390296833
H   H187      1.0  0.15130  0.11890  0.41170  1.0000 0.1390296833
H   H188      1.0  0.24650  0.13820  0.41560  1.0000 0.1086880601
H   H189      1.0  0.33333  0.08044  0.18860  1.0000 0.1301581592
H   H190      1.0  0.33410  0.10580  0.08870  1.0000 0.1301581592
H   H191      1.0  0.31920  0.23910  0.14090  1.0000 0.1301581592
H   H192      1.0  0.32180  0.21610  0.24780  1.0000 0.1207934933
H   H193      1.0  0.89250  0.35679  0.42570  1.0000 0.1086880601
H   H194      1.0  0.82300  0.38429  0.42470  1.0000 0.1390296833
H   H195      1.0  0.70230  0.21589  0.41100  1.0000 0.1390296833
H   H196      1.0  0.77600  0.19539  0.40720  1.0000 0.1207934933
H   H197      1.0  0.02280  0.22449  0.42560  1.0000 0.1086880601
H   H198      1.0  0.05030  0.15619  0.42290  1.0000 0.1390296833
H   H199      1.0  0.88110  0.03239  0.41170  1.0000 0.1390296833
H   H200      1.0  0.86180  0.10829  0.41560  1.0000 0.1086880601
H   H201      1.0  0.91956  0.25289  0.18860  1.0000 0.1301581592
H   H202      1.0  0.89420  0.22829  0.08870  1.0000 0.1301581592
H   H203      1.0  0.76090  0.08009  0.14090  1.0000 0.1301581592
H   H204      1.0  0.78390  0.10569  0.24780  1.0000 0.1207934933
H   H205      1.0  0.64321  0.53570  0.42570  1.0000 0.1086880601
H   H206      1.0  0.61571  0.43870  0.42470  1.0000 0.1390296833
H   H207      1.0  0.78411  0.48640  0.41100  1.0000 0.1390296833
H   H208      1.0  0.80461  0.58060  0.40720  1.0000 0.1207934933
H   H209      1.0  0.77551  0.79830  0.42560  1.0000 0.1086880601
H   H210      1.0  0.84381  0.89410  0.42290  1.0000 0.1390296833
H   H211      1.0  0.96761  0.84870  0.41170  1.0000 0.1390296833
H   H212      1.0  0.89171  0.75350  0.41560  1.0000 0.1086880601
H   H213      1.0  0.74711  0.66667  0.18860  1.0000 0.1301581592
H   H214      1.0  0.77171  0.66590  0.08870  1.0000 0.1301581592
H   H215      1.0  0.91991  0.68080  0.14090  1.0000 0.1301581592
H   H216      1.0  0.89431  0.67820  0.24780  1.0000 0.1207934933
C   C1        1.0  0.44811  0.88130  0.74260  1.0000 0.0603273014
C   C2        1.0  0.40611  0.82490  0.73940  1.0000 -0.1552861699
C   C3        1.0  0.42071  0.78330  0.74560  1.0000 0.0603273014
C   C4        1.0  0.47831  0.79870  0.74860  1.0000 -0.1723226621
C   C5        1.0  0.51901  0.85710  0.74720  1.0000 0.0829627049
C   C6        1.0  0.37141  0.72170  0.74380  1.0000 0.3591781662
C   C7        1.0  0.53671  0.99750  0.87280  1.0000 0.5397859942
C   C8        1.0  0.51751  0.99930  0.93910  1.0000 -0.0155917344
C   C9        1.0  0.47671  0.01270  0.95030  1.0000 -0.1013649891
C   C10       1.0  0.54191  0.98450  0.98790  1.0000 -0.1095692135
C   C11       1.0  0.43320  0.55189  0.74260  1.0000 0.0603273014
C   C12       1.0  0.41880  0.59389  0.73940  1.0000 -0.1552861699
C   C13       1.0  0.36260  0.57929  0.74560  1.0000 0.0603273014
C   C14       1.0  0.32040  0.52169  0.74860  1.0000 -0.1723226621
C   C15       1.0  0.33810  0.48099  0.74720  1.0000 0.0829627049
C   C16       1.0  0.35030  0.62859  0.74380  1.0000 0.3591781662
C   C17       1.0  0.46080  0.46329  0.87280  1.0000 0.5397859942
C   C18       1.0  0.48180  0.48249  0.93910  1.0000 -0.0155917344
C   C19       1.0  0.53600  0.52329  0.95030  1.0000 -0.1013649891
C   C20       1.0  0.44260  0.45809  0.98790  1.0000 -0.1095692135
C   C21       1.0  0.11870  0.56680  0.74260  1.0000 0.0603273014
C   C22       1.0  0.17510  0.58120  0.73940  1.0000 -0.1552861699
C   C23       1.0  0.21670  0.63740  0.74560  1.0000 0.0603273014
C   C24       1.0  0.20130  0.67960  0.74860  1.0000 -0.1723226621
C   C25       1.0  0.14290  0.66190  0.74720  1.0000 0.0829627049
C   C26       1.0  0.27830  0.64970  0.74380  1.0000 0.3591781662
C   C27       1.0  0.00250  0.53920  0.87280  1.0000 0.5397859942
C   C28       1.0  0.00070  0.51820  0.93910  1.0000 -0.0155917344
C   C29       1.0  0.98730  0.46400  0.95030  1.0000 -0.1013649891
C   C30       1.0  0.01550  0.55740  0.98790  1.0000 -0.1095692135
C   C31       1.0  0.56680  0.11870  0.75740  1.0000 0.0603273014
C   C32       1.0  0.58120  0.17510  0.76060  1.0000 -0.1552861699
C   C33       1.0  0.63740  0.21670  0.75440  1.0000 0.0603273014
C   C34       1.0  0.67960  0.20130  0.75140  1.0000 -0.1723226621
C   C35       1.0  0.66190  0.14290  0.75280  1.0000 0.0829627049
C   C36       1.0  0.64970  0.27830  0.75620  1.0000 0.3591781662
C   C37       1.0  0.53920  0.00250  0.62720  1.0000 0.5397859942
C   C38       1.0  0.51820  0.00070  0.56090  1.0000 -0.0146304912
C   C39       1.0  0.46400  0.98730  0.54970  1.0000 -0.1013649891
C   C40       1.0  0.55740  0.01550  0.51210  1.0000 -0.1095692135
C   C41       1.0  0.88130  0.44811  0.75740  1.0000 0.0603273014
C   C42       1.0  0.82490  0.40611  0.76060  1.0000 -0.1552861699
C   C43       1.0  0.78330  0.42071  0.75440  1.0000 0.0603273014
C   C44       1.0  0.79870  0.47831  0.75140  1.0000 -0.1723226621
C   C45       1.0  0.85710  0.51901  0.75280  1.0000 0.0829627049
C   C46       1.0  0.72170  0.37141  0.75620  1.0000 0.3591781662
C   C47       1.0  0.99750  0.53671  0.62720  1.0000 0.5397859942
C   C48       1.0  0.99930  0.51751  0.56090  1.0000 -0.0146304912
C   C49       1.0  0.01270  0.47671  0.54970  1.0000 -0.1013649891
C   C50       1.0  0.98450  0.54191  0.51210  1.0000 -0.1095692135
C   C51       1.0  0.55189  0.43320  0.75740  1.0000 0.0603273014
C   C52       1.0  0.59389  0.41880  0.76060  1.0000 -0.1548295238
C   C53       1.0  0.57929  0.36260  0.75440  1.0000 0.0603273014
C   C54       1.0  0.52169  0.32040  0.75140  1.0000 -0.1723226621
C   C55       1.0  0.48099  0.33810  0.75280  1.0000 0.0829627049
C   C56       1.0  0.62859  0.35030  0.75620  1.0000 0.3591781662
C   C57       1.0  0.46329  0.46080  0.62720  1.0000 0.5397859942
C   C58       1.0  0.48249  0.48180  0.56090  1.0000 -0.0146304912
C   C59       1.0  0.52329  0.53600  0.54970  1.0000 -0.1013649891
C   C60       1.0  0.45809  0.44260  0.51210  1.0000 -0.1095692135
C   C61       1.0  0.55189  0.11870  0.25740  1.0000 0.0603273014
C   C62       1.0  0.59389  0.17510  0.26060  1.0000 -0.1552861699
C   C63       1.0  0.57929  0.21670  0.25440  1.0000 0.0603273014
C   C64       1.0  0.52169  0.20130  0.25140  1.0000 -0.1723226621
C   C65       1.0  0.48099  0.14290  0.25280  1.0000 0.0829627049
C   C66       1.0  0.62859  0.27830  0.25620  1.0000 0.3591781662
C   C67       1.0  0.46329  0.00250  0.12720  1.0000 0.5397859942
C   C68       1.0  0.48249  0.00070  0.06090  1.0000 -0.0146304912
C   C69       1.0  0.52329  0.98730  0.04970  1.0000 -0.1013649891
C   C70       1.0  0.45809  0.01550  0.01210  1.0000 -0.1095692135
C   C71       1.0  0.56680  0.44811  0.25740  1.0000 0.0603273014
C   C72       1.0  0.58120  0.40611  0.26060  1.0000 -0.1552861699
C   C73       1.0  0.63740  0.42071  0.25440  1.0000 0.0603273014
C   C74       1.0  0.67960  0.47831  0.25140  1.0000 -0.1723226621
C   C75       1.0  0.66190  0.51901  0.25280  1.0000 0.0829627049
C   C76       1.0  0.64970  0.37141  0.25620  1.0000 0.3591781662
C   C77       1.0  0.53920  0.53671  0.12720  1.0000 0.5397859942
C   C78       1.0  0.51820  0.51751  0.06090  1.0000 -0.0146304912
C   C79       1.0  0.46400  0.47671  0.04970  1.0000 -0.1013649891
C   C80       1.0  0.55740  0.54191  0.01210  1.0000 -0.1095692135
C   C81       1.0  0.88130  0.43320  0.25740  1.0000 0.0603273014
C   C82       1.0  0.82490  0.41880  0.26060  1.0000 -0.1552861699
C   C83       1.0  0.78330  0.36260  0.25440  1.0000 0.0603273014
C   C84       1.0  0.79870  0.32040  0.25140  1.0000 -0.1723226621
C   C85       1.0  0.85710  0.33810  0.25280  1.0000 0.0829627049
C   C86       1.0  0.72170  0.35030  0.25620  1.0000 0.3591781662
C   C87       1.0  0.99750  0.46080  0.12720  1.0000 0.5397859942
C   C88       1.0  0.99930  0.48180  0.06090  1.0000 -0.0146304912
C   C89       1.0  0.01270  0.53600  0.04970  1.0000 -0.1013649891
C   C90       1.0  0.98450  0.44260  0.01210  1.0000 -0.1095692135
C   C91       1.0  0.43320  0.88130  0.24260  1.0000 0.0603273014
C   C92       1.0  0.41880  0.82490  0.23940  1.0000 -0.1552861699
C   C93       1.0  0.36260  0.78330  0.24560  1.0000 0.0603273014
C   C94       1.0  0.32040  0.79870  0.24860  1.0000 -0.1723226621
C   C95       1.0  0.33810  0.85710  0.24720  1.0000 0.0829627049
C   C96       1.0  0.35030  0.72170  0.24380  1.0000 0.3591781662
C   C97       1.0  0.46080  0.99750  0.37280  1.0000 0.5397859942
C   C98       1.0  0.48180  0.99930  0.43910  1.0000 -0.0146304912
C   C99       1.0  0.53600  0.01270  0.45030  1.0000 -0.1013649891
C   C100      1.0  0.44260  0.98450  0.48790  1.0000 -0.1095692135
C   C101      1.0  0.11870  0.55189  0.24260  1.0000 0.0603273014
C   C102      1.0  0.17510  0.59389  0.23940  1.0000 -0.1552861699
C   C103      1.0  0.21670  0.57929  0.24560  1.0000 0.0603273014
C   C104      1.0  0.20130  0.52169  0.24860  1.0000 -0.1723226621
C   C105      1.0  0.14290  0.48099  0.24720  1.0000 0.0829627049
C   C106      1.0  0.27830  0.62859  0.24380  1.0000 0.3591781662
C   C107      1.0  0.00250  0.46329  0.37280  1.0000 0.5397859942
C   C108      1.0  0.00070  0.48249  0.43910  1.0000 -0.0155917344
C   C109      1.0  0.98730  0.52329  0.45030  1.0000 -0.1013649891
C   C110      1.0  0.01550  0.45809  0.48790  1.0000 -0.1095692135
C   C111      1.0  0.44811  0.56680  0.24260  1.0000 0.0603273014
C   C112      1.0  0.40611  0.58120  0.23940  1.0000 -0.1552861699
C   C113      1.0  0.42071  0.63740  0.24560  1.0000 0.0603273014
C   C114      1.0  0.47831  0.67960  0.24860  1.0000 -0.1723226621
C   C115      1.0  0.51901  0.66190  0.24720  1.0000 0.0829627049
C   C116      1.0  0.37141  0.64970  0.24380  1.0000 0.3591781662
C   C117      1.0  0.53671  0.53920  0.37280  1.0000 0.5397859942
C   C118      1.0  0.51751  0.51820  0.43910  1.0000 -0.0146304912
C   C119      1.0  0.47671  0.46400  0.45030  1.0000 -0.1013649891
C   C120      1.0  0.54191  0.55740  0.48790  1.0000 -0.1095692135
C   C121      1.0  0.52490  0.85350  0.57830  1.0000 0.0715713323
C   C122      1.0  0.46660  0.81170  0.57800  1.0000 -0.1723226621
C   C123      1.0  0.44900  0.75260  0.58160  1.0000 0.0514872863
C   C124      1.0  0.49460  0.74060  0.58670  1.0000 -0.1859919696
C   C125      1.0  0.55130  0.78520  0.58840  1.0000 0.1049131534
C   C126      1.0  0.38670  0.70950  0.58030  1.0000 0.348510343
C   C127      1.0  0.80880  0.99440  0.57730  1.0000 0.0715713323
C   C128      1.0  0.86640  0.01110  0.57770  1.0000 -0.1723226621
C   C129      1.0  0.88410  0.96970  0.57890  1.0000 0.0715713323
C   C130      1.0  0.84020  0.91090  0.58430  1.0000 -0.1834451948
C   C131      1.0  0.78310  0.90050  0.58320  1.0000 0.1086880601
C   C132      1.0  0.94630  0.98590  0.58010  1.0000 0.3417556317
C   C133      1.0  0.66830  0.86990  0.70300  1.0000 0.5397859942
C   C134      1.0  0.66970  0.85470  0.76980  1.0000 -0.0268817288
C   C135      1.0  0.66770  0.88570  0.81960  1.0000 -0.1095692135
C   C136      1.0  0.66730  0.87060  0.87980  1.0000 -0.1095692135
C   C137      1.0  0.66870  0.82260  0.89610  1.0000 -0.0155917344
C   C138      1.0  0.67560  0.79210  0.84890  1.0000 -0.1095692135
C   C139      1.0  0.67510  0.80630  0.78390  1.0000 -0.1013649891
C   C140      1.0  0.66680  0.80320  0.96220  1.0000 0.5397859942
C   C141      1.0  0.14650  0.67141  0.57830  1.0000 0.0715713323
C   C142      1.0  0.18830  0.65491  0.57800  1.0000 -0.1723226621
C   C143      1.0  0.24740  0.69641  0.58160  1.0000 0.0514872863
C   C144      1.0  0.25940  0.75401  0.58670  1.0000 -0.1859919696
C   C145      1.0  0.21480  0.76611  0.58840  1.0000 0.1049131534
C   C146      1.0  0.29050  0.67721  0.58030  1.0000 0.348510343
C   C147      1.0  0.00560  0.81441  0.57730  1.0000 0.0715713323
C   C148      1.0  0.98890  0.85531  0.57770  1.0000 -0.1723226621
C   C149      1.0  0.03030  0.91441  0.57890  1.0000 0.0715713323
C   C150      1.0  0.08910  0.92931  0.58430  1.0000 -0.1834451948
C   C151      1.0  0.09950  0.88261  0.58320  1.0000 0.1086880601
C   C152      1.0  0.01410  0.96041  0.58010  1.0000 0.3417556317
C   C153      1.0  0.13010  0.79841  0.70300  1.0000 0.5397859942
C   C154      1.0  0.14530  0.81501  0.76980  1.0000 -0.0268817288
C   C155      1.0  0.11430  0.78201  0.81960  1.0000 -0.1095692135
C   C156      1.0  0.12940  0.79671  0.87980  1.0000 -0.1095692135
C   C157      1.0  0.17740  0.84611  0.89610  1.0000 -0.0155917344
C   C158      1.0  0.20790  0.88351  0.84890  1.0000 -0.1095692135
C   C159      1.0  0.19370  0.86881  0.78390  1.0000 -0.1013649891
C   C160      1.0  0.19680  0.86361  0.96220  1.0000 0.5397859942
C   C161      1.0  0.32859  0.47510  0.57830  1.0000 0.0715713323
C   C162      1.0  0.34509  0.53340  0.57800  1.0000 -0.1723226621
C   C163      1.0  0.30359  0.55100  0.58160  1.0000 0.0514872863
C   C164      1.0  0.24599  0.50540  0.58670  1.0000 -0.1859919696
C   C165      1.0  0.23389  0.44870  0.58840  1.0000 0.1049131534
C   C166      1.0  0.32279  0.61330  0.58030  1.0000 0.348510343
C   C167      1.0  0.18559  0.19120  0.57730  1.0000 0.0715713323
C   C168      1.0  0.14469  0.13360  0.57770  1.0000 -0.1723226621
C   C169      1.0  0.08559  0.11590  0.57890  1.0000 0.0715713323
C   C170      1.0  0.07069  0.15980  0.58430  1.0000 -0.1834451948
C   C171      1.0  0.11739  0.21690  0.58320  1.0000 0.1086880601
C   C172      1.0  0.03959  0.05370  0.58010  1.0000 0.3417556317
C   C173      1.0  0.20159  0.33170  0.70300  1.0000 0.5397859942
C   C174      1.0  0.18499  0.33030  0.76980  1.0000 -0.0268817288
C   C175      1.0  0.21799  0.33230  0.81960  1.0000 -0.1095692135
C   C176      1.0  0.20329  0.33270  0.87980  1.0000 -0.1095692135
C   C177      1.0  0.15389  0.33130  0.89610  1.0000 -0.0155917344
C   C178      1.0  0.11649  0.32440  0.84890  1.0000 -0.1095692135
C   C179      1.0  0.13119  0.32490  0.78390  1.0000 -0.1013649891
C   C180      1.0  0.13639  0.33320  0.96220  1.0000 0.5397859942
C   C181      1.0  0.32859  0.85350  0.07830  1.0000 0.0715713323
C   C182      1.0  0.34509  0.81170  0.07800  1.0000 -0.1723226621
C   C183      1.0  0.30359  0.75260  0.08160  1.0000 0.0514872863
C   C184      1.0  0.24599  0.74060  0.08670  1.0000 -0.1859919696
C   C185      1.0  0.23389  0.78520  0.08840  1.0000 0.1049131534
C   C186      1.0  0.32279  0.70950  0.08030  1.0000 0.348510343
C   C187      1.0  0.18559  0.99440  0.07730  1.0000 0.0715713323
C   C188      1.0  0.14469  0.01110  0.07770  1.0000 -0.1723226621
C   C189      1.0  0.08559  0.96970  0.07890  1.0000 0.0715713323
C   C190      1.0  0.07069  0.91090  0.08430  1.0000 -0.1834451948
C   C191      1.0  0.11739  0.90050  0.08320  1.0000 0.1086880601
C   C192      1.0  0.03959  0.98590  0.08010  1.0000 0.3417556317
C   C193      1.0  0.20159  0.86990  0.20300  1.0000 0.5397859942
C   C194      1.0  0.18499  0.85470  0.26980  1.0000 -0.0268817288
C   C195      1.0  0.21799  0.88570  0.31960  1.0000 -0.1095692135
C   C196      1.0  0.20329  0.87060  0.37980  1.0000 -0.1095692135
C   C197      1.0  0.15389  0.82260  0.39610  1.0000 -0.0155917344
C   C198      1.0  0.11649  0.79210  0.34890  1.0000 -0.1095692135
C   C199      1.0  0.13119  0.80630  0.28390  1.0000 -0.1013649891
C   C200      1.0  0.13639  0.80320  0.46220  1.0000 0.5397859942
C   C201      1.0  0.52490  0.67141  0.07830  1.0000 0.0715713323
C   C202      1.0  0.46660  0.65491  0.07800  1.0000 -0.1723226621
C   C203      1.0  0.44900  0.69641  0.08160  1.0000 0.0514872863
C   C204      1.0  0.49460  0.75401  0.08670  1.0000 -0.1859919696
C   C205      1.0  0.55130  0.76611  0.08840  1.0000 0.1049131534
C   C206      1.0  0.38670  0.67721  0.08030  1.0000 0.348510343
C   C207      1.0  0.80880  0.81441  0.07730  1.0000 0.0715713323
C   C208      1.0  0.86640  0.85531  0.07770  1.0000 -0.1723226621
C   C209      1.0  0.88410  0.91441  0.07890  1.0000 0.0715713323
C   C210      1.0  0.84020  0.92931  0.08430  1.0000 -0.1834451948
C   C211      1.0  0.78310  0.88261  0.08320  1.0000 0.1086880601
C   C212      1.0  0.94630  0.96041  0.08010  1.0000 0.3417556317
C   C213      1.0  0.66830  0.79841  0.20300  1.0000 0.5397859942
C   C214      1.0  0.66970  0.81501  0.26980  1.0000 -0.0268817288
C   C215      1.0  0.66770  0.78201  0.31960  1.0000 -0.1095692135
C   C216      1.0  0.66730  0.79671  0.37980  1.0000 -0.1095692135
C   C217      1.0  0.66870  0.84611  0.39610  1.0000 -0.0155917344
C   C218      1.0  0.67560  0.88351  0.34890  1.0000 -0.1095692135
C   C219      1.0  0.67510  0.86881  0.28390  1.0000 -0.1013649891
C   C220      1.0  0.66680  0.86361  0.46220  1.0000 0.5397859942
C   C221      1.0  0.14650  0.47510  0.07830  1.0000 0.0715713323
C   C222      1.0  0.18830  0.53340  0.07800  1.0000 -0.1723226621
C   C223      1.0  0.24740  0.55100  0.08160  1.0000 0.0514872863
C   C224      1.0  0.25940  0.50540  0.08670  1.0000 -0.1859919696
C   C225      1.0  0.21480  0.44870  0.08840  1.0000 0.1049131534
C   C226      1.0  0.29050  0.61330  0.08030  1.0000 0.348510343
C   C227      1.0  0.00560  0.19120  0.07730  1.0000 0.0715713323
C   C228      1.0  0.98890  0.13360  0.07770  1.0000 -0.1723226621
C   C229      1.0  0.03030  0.11590  0.07890  1.0000 0.0715713323
C   C230      1.0  0.08910  0.15980  0.08430  1.0000 -0.1834451948
C   C231      1.0  0.09950  0.21690  0.08320  1.0000 0.1086880601
C   C232      1.0  0.01410  0.05370  0.08010  1.0000 0.3417556317
C   C233      1.0  0.13010  0.33170  0.20300  1.0000 0.5397859942
C   C234      1.0  0.14530  0.33030  0.26980  1.0000 -0.0268817288
C   C235      1.0  0.11430  0.33230  0.31960  1.0000 -0.1095692135
C   C236      1.0  0.12940  0.33270  0.37980  1.0000 -0.1095692135
C   C237      1.0  0.17740  0.33130  0.39610  1.0000 -0.0155917344
C   C238      1.0  0.20790  0.32440  0.34890  1.0000 -0.1095692135
C   C239      1.0  0.19370  0.32490  0.28390  1.0000 -0.1013649891
C   C240      1.0  0.19680  0.33320  0.46220  1.0000 0.5397859942
C   C241      1.0  0.67141  0.14650  0.92170  1.0000 0.0715713323
C   C242      1.0  0.65491  0.18830  0.92200  1.0000 -0.1723226621
C   C243      1.0  0.69641  0.24740  0.91840  1.0000 0.0514872863
C   C244      1.0  0.75401  0.25940  0.91330  1.0000 -0.1859919696
C   C245      1.0  0.76611  0.21480  0.91160  1.0000 0.1049131534
C   C246      1.0  0.67721  0.29050  0.91970  1.0000 0.348510343
C   C247      1.0  0.81441  0.00560  0.92270  1.0000 0.0715713323
C   C248      1.0  0.85531  0.98890  0.92230  1.0000 -0.1723226621
C   C249      1.0  0.91441  0.03030  0.92110  1.0000 0.0715713323
C   C250      1.0  0.92931  0.08910  0.91570  1.0000 -0.1834451948
C   C251      1.0  0.88261  0.09950  0.91680  1.0000 0.1086880601
C   C252      1.0  0.96041  0.01410  0.91990  1.0000 0.3417556317
C   C253      1.0  0.79841  0.13010  0.79700  1.0000 0.5397859942
C   C254      1.0  0.81501  0.14530  0.73020  1.0000 -0.0268817288
C   C255      1.0  0.78201  0.11430  0.68040  1.0000 -0.1095692135
C   C256      1.0  0.79671  0.12940  0.62020  1.0000 -0.1095692135
C   C257      1.0  0.84611  0.17740  0.60390  1.0000 -0.0155917344
C   C258      1.0  0.88351  0.20790  0.65110  1.0000 -0.1095692135
C   C259      1.0  0.86881  0.19370  0.71610  1.0000 -0.1013649891
C   C260      1.0  0.86361  0.19680  0.53780  1.0000 0.5397859942
C   C261      1.0  0.47510  0.32859  0.92170  1.0000 0.0715713323
C   C262      1.0  0.53340  0.34509  0.92200  1.0000 -0.1723226621
C   C263      1.0  0.55100  0.30359  0.91840  1.0000 0.0514872863
C   C264      1.0  0.50540  0.24599  0.91330  1.0000 -0.1859919696
C   C265      1.0  0.44870  0.23389  0.91160  1.0000 0.1049131534
C   C266      1.0  0.61330  0.32279  0.91970  1.0000 0.348510343
C   C267      1.0  0.19120  0.18559  0.92270  1.0000 0.0715713323
C   C268      1.0  0.13360  0.14469  0.92230  1.0000 -0.1723226621
C   C269      1.0  0.11590  0.08559  0.92110  1.0000 0.0715713323
C   C270      1.0  0.15980  0.07069  0.91570  1.0000 -0.1834451948
C   C271      1.0  0.21690  0.11739  0.91680  1.0000 0.1086880601
C   C272      1.0  0.05370  0.03959  0.91990  1.0000 0.3417556317
C   C273      1.0  0.33170  0.20159  0.79700  1.0000 0.5397859942
C   C274      1.0  0.33030  0.18499  0.73020  1.0000 -0.0268817288
C   C275      1.0  0.33230  0.21799  0.68040  1.0000 -0.1095692135
C   C276      1.0  0.33270  0.20329  0.62020  1.0000 -0.1095692135
C   C277      1.0  0.33130  0.15389  0.60390  1.0000 -0.0155917344
C   C278      1.0  0.32440  0.11649  0.65110  1.0000 -0.1095692135
C   C279      1.0  0.32490  0.13119  0.71610  1.0000 -0.1013649891
C   C280      1.0  0.33320  0.13639  0.53780  1.0000 0.5397859942
C   C281      1.0  0.85350  0.52490  0.92170  1.0000 0.0715713323
C   C282      1.0  0.81170  0.46660  0.92200  1.0000 -0.1723226621
C   C283      1.0  0.75260  0.44900  0.91840  1.0000 0.0514872863
C   C284      1.0  0.74060  0.49460  0.91330  1.0000 -0.1859919696
C   C285      1.0  0.78520  0.55130  0.91160  1.0000 0.1049131534
C   C286      1.0  0.70950  0.38670  0.91970  1.0000 0.348510343
C   C287      1.0  0.99440  0.80880  0.92270  1.0000 0.0715713323
C   C288      1.0  0.01110  0.86640  0.92230  1.0000 -0.1723226621
C   C289      1.0  0.96970  0.88410  0.92110  1.0000 0.0715713323
C   C290      1.0  0.91090  0.84020  0.91570  1.0000 -0.1834451948
C   C291      1.0  0.90050  0.78310  0.91680  1.0000 0.1086880601
C   C292      1.0  0.98590  0.94630  0.91990  1.0000 0.3417556317
C   C293      1.0  0.86990  0.66830  0.79700  1.0000 0.5397859942
C   C294      1.0  0.85470  0.66970  0.73020  1.0000 -0.0268817288
C   C295      1.0  0.88570  0.66770  0.68040  1.0000 -0.1095692135
C   C296      1.0  0.87060  0.66730  0.62020  1.0000 -0.1095692135
C   C297      1.0  0.82260  0.66870  0.60390  1.0000 -0.0155917344
C   C298      1.0  0.79210  0.67560  0.65110  1.0000 -0.1095692135
C   C299      1.0  0.80630  0.67510  0.71610  1.0000 -0.1013649891
C   C300      1.0  0.80320  0.66680  0.53780  1.0000 0.5397859942
C   C301      1.0  0.47510  0.14650  0.42170  1.0000 0.0715713323
C   C302      1.0  0.53340  0.18830  0.42200  1.0000 -0.1723226621
C   C303      1.0  0.55100  0.24740  0.41840  1.0000 0.0514872863
C   C304      1.0  0.50540  0.25940  0.41330  1.0000 -0.1859919696
C   C305      1.0  0.44870  0.21480  0.41160  1.0000 0.1049131534
C   C306      1.0  0.61330  0.29050  0.41970  1.0000 0.348510343
C   C307      1.0  0.19120  0.00560  0.42270  1.0000 0.0715713323
C   C308      1.0  0.13360  0.98890  0.42230  1.0000 -0.1723226621
C   C309      1.0  0.11590  0.03030  0.42110  1.0000 0.0715713323
C   C310      1.0  0.15980  0.08910  0.41570  1.0000 -0.1834451948
C   C311      1.0  0.21690  0.09950  0.41680  1.0000 0.1086880601
C   C312      1.0  0.05370  0.01410  0.41990  1.0000 0.3417556317
C   C313      1.0  0.33170  0.13010  0.29700  1.0000 0.5397859942
C   C314      1.0  0.33030  0.14530  0.23020  1.0000 -0.0268817288
C   C315      1.0  0.33230  0.11430  0.18040  1.0000 -0.1095692135
C   C316      1.0  0.33270  0.12940  0.12020  1.0000 -0.1095692135
C   C317      1.0  0.33130  0.17740  0.10390  1.0000 -0.0155917344
C   C318      1.0  0.32440  0.20790  0.15110  1.0000 -0.1095692135
C   C319      1.0  0.32490  0.19370  0.21610  1.0000 -0.1013649891
C   C320      1.0  0.33320  0.19680  0.03780  1.0000 0.5397859942
C   C321      1.0  0.85350  0.32859  0.42170  1.0000 0.0715713323
C   C322      1.0  0.81170  0.34509  0.42200  1.0000 -0.1723226621
C   C323      1.0  0.75260  0.30359  0.41840  1.0000 0.0514872863
C   C324      1.0  0.74060  0.24599  0.41330  1.0000 -0.1859919696
C   C325      1.0  0.78520  0.23389  0.41160  1.0000 0.1049131534
C   C326      1.0  0.70950  0.32279  0.41970  1.0000 0.348510343
C   C327      1.0  0.99440  0.18559  0.42270  1.0000 0.0715713323
C   C328      1.0  0.01110  0.14469  0.42230  1.0000 -0.1723226621
C   C329      1.0  0.96970  0.08559  0.42110  1.0000 0.0715713323
C   C330      1.0  0.91090  0.07069  0.41570  1.0000 -0.1834451948
C   C331      1.0  0.90050  0.11739  0.41680  1.0000 0.1086880601
C   C332      1.0  0.98590  0.03959  0.41990  1.0000 0.3417556317
C   C333      1.0  0.86990  0.20159  0.29700  1.0000 0.5397859942
C   C334      1.0  0.85470  0.18499  0.23020  1.0000 -0.0268817288
C   C335      1.0  0.88570  0.21799  0.18040  1.0000 -0.1095692135
C   C336      1.0  0.87060  0.20329  0.12020  1.0000 -0.1095692135
C   C337      1.0  0.82260  0.15389  0.10390  1.0000 -0.0155917344
C   C338      1.0  0.79210  0.11649  0.15110  1.0000 -0.1095692135
C   C339      1.0  0.80630  0.13119  0.21610  1.0000 -0.1013649891
C   C340      1.0  0.80320  0.13639  0.03780  1.0000 0.5397859942
C   C341      1.0  0.67141  0.52490  0.42170  1.0000 0.0715713323
C   C342      1.0  0.65491  0.46660  0.42200  1.0000 -0.1723226621
C   C343      1.0  0.69641  0.44900  0.41840  1.0000 0.0514872863
C   C344      1.0  0.75401  0.49460  0.41330  1.0000 -0.1859919696
C   C345      1.0  0.76611  0.55130  0.41160  1.0000 0.1049131534
C   C346      1.0  0.67721  0.38670  0.41970  1.0000 0.348510343
C   C347      1.0  0.81441  0.80880  0.42270  1.0000 0.0715713323
C   C348      1.0  0.85531  0.86640  0.42230  1.0000 -0.1723226621
C   C349      1.0  0.91441  0.88410  0.42110  1.0000 0.0715713323
C   C350      1.0  0.92931  0.84020  0.41570  1.0000 -0.1834451948
C   C351      1.0  0.88261  0.78310  0.41680  1.0000 0.1086880601
C   C352      1.0  0.96041  0.94630  0.41990  1.0000 0.3417556317
C   C353      1.0  0.79841  0.66830  0.29700  1.0000 0.5397859942
C   C354      1.0  0.81501  0.66970  0.23020  1.0000 -0.0268817288
C   C355      1.0  0.78201  0.66770  0.18040  1.0000 -0.1095692135
C   C356      1.0  0.79671  0.66730  0.12020  1.0000 -0.1095692135
C   C357      1.0  0.84611  0.66870  0.10390  1.0000 -0.0155917344
C   C358      1.0  0.88351  0.67560  0.15110  1.0000 -0.1095692135
C   C359      1.0  0.86881  0.67510  0.21610  1.0000 -0.1013649891
C   C360      1.0  0.86361  0.66680  0.03780  1.0000 0.5397859942
N   N1        1.0  0.50651  0.89970  0.74550  1.0000 -0.2324388244
N   N2        1.0  0.31631  0.70830  0.74420  1.0000 -0.4051554867
N   N3        1.0  0.39320  0.49349  0.74550  1.0000 -0.2324388244
N   N4        1.0  0.39200  0.68369  0.74420  1.0000 -0.4051554867
N   N5        1.0  0.10030  0.60680  0.74550  1.0000 -0.2324388244
N   N6        1.0  0.29170  0.60800  0.74420  1.0000 -0.4051554867
N   N7        1.0  0.60680  0.10030  0.75450  1.0000 -0.2324388244
N   N8        1.0  0.60800  0.29170  0.75580  1.0000 -0.400075083
N   N9        1.0  0.89970  0.50651  0.75450  1.0000 -0.2324388244
N   N10       1.0  0.70830  0.31631  0.75580  1.0000 -0.400075083
N   N11       1.0  0.49349  0.39320  0.75450  1.0000 -0.2324388244
N   N12       1.0  0.68369  0.39200  0.75580  1.0000 -0.4051554867
N   N13       1.0  0.49349  0.10030  0.25450  1.0000 -0.2324388244
N   N14       1.0  0.68369  0.29170  0.25580  1.0000 -0.400075083
N   N15       1.0  0.60680  0.50651  0.25450  1.0000 -0.2324388244
N   N16       1.0  0.60800  0.31631  0.25580  1.0000 -0.400075083
N   N17       1.0  0.89970  0.39320  0.25450  1.0000 -0.2324388244
N   N18       1.0  0.70830  0.39200  0.25580  1.0000 -0.4051554867
N   N19       1.0  0.39320  0.89970  0.24550  1.0000 -0.2324388244
N   N20       1.0  0.39200  0.70830  0.24420  1.0000 -0.4051554867
N   N21       1.0  0.10030  0.49349  0.24550  1.0000 -0.2324388244
N   N22       1.0  0.29170  0.68369  0.24420  1.0000 -0.4051554867
N   N23       1.0  0.50651  0.60680  0.24550  1.0000 -0.2324388244
N   N24       1.0  0.31631  0.60800  0.24420  1.0000 -0.4051554867
N   N25       1.0  0.56600  0.83900  0.58420  1.0000 -0.2190099774
N   N26       1.0  0.34400  0.72210  0.58070  1.0000 -0.400075083
N   N27       1.0  0.76740  0.93940  0.58080  1.0000 -0.2190099774
N   N28       1.0  0.95890  0.94360  0.58080  1.0000 -0.3881492087
N   N29       1.0  0.16100  0.72701  0.58420  1.0000 -0.2190099774
N   N30       1.0  0.27790  0.62191  0.58070  1.0000 -0.400075083
N   N31       1.0  0.06060  0.82801  0.58080  1.0000 -0.2190099774
N   N32       1.0  0.05640  0.01531  0.58080  1.0000 -0.3881492087
N   N33       1.0  0.27299  0.43400  0.58420  1.0000 -0.2190099774
N   N34       1.0  0.37809  0.65600  0.58070  1.0000 -0.400075083
N   N35       1.0  0.17199  0.23260  0.58080  1.0000 -0.2190099774
N   N36       1.0  0.98469  0.04110  0.58080  1.0000 -0.3881492087
N   N37       1.0  0.27299  0.83900  0.08420  1.0000 -0.2190099774
N   N38       1.0  0.37809  0.72210  0.08070  1.0000 -0.400075083
N   N39       1.0  0.17199  0.93940  0.08080  1.0000 -0.2190099774
N   N40       1.0  0.98469  0.94360  0.08080  1.0000 -0.3881492087
N   N41       1.0  0.56600  0.72701  0.08420  1.0000 -0.2190099774
N   N42       1.0  0.34400  0.62191  0.08070  1.0000 -0.400075083
N   N43       1.0  0.76740  0.82801  0.08080  1.0000 -0.2190099774
N   N44       1.0  0.95890  0.01531  0.08080  1.0000 -0.3881492087
N   N45       1.0  0.16100  0.43400  0.08420  1.0000 -0.2190099774
N   N46       1.0  0.27790  0.65600  0.08070  1.0000 -0.400075083
N   N47       1.0  0.06060  0.23260  0.08080  1.0000 -0.2190099774
N   N48       1.0  0.05640  0.04110  0.08080  1.0000 -0.3881492087
N   N49       1.0  0.72701  0.16100  0.91580  1.0000 -0.2190099774
N   N50       1.0  0.62191  0.27790  0.91930  1.0000 -0.400075083
N   N51       1.0  0.82801  0.06060  0.91920  1.0000 -0.2190099774
N   N52       1.0  0.01531  0.05640  0.91920  1.0000 -0.3881492087
N   N53       1.0  0.43400  0.27299  0.91580  1.0000 -0.2190099774
N   N54       1.0  0.65600  0.37809  0.91930  1.0000 -0.400075083
N   N55       1.0  0.23260  0.17199  0.91920  1.0000 -0.2190099774
N   N56       1.0  0.04110  0.98469  0.91920  1.0000 -0.3881492087
N   N57       1.0  0.83900  0.56600  0.91580  1.0000 -0.2190099774
N   N58       1.0  0.72210  0.34400  0.91930  1.0000 -0.400075083
N   N59       1.0  0.93940  0.76740  0.91920  1.0000 -0.2190099774
N   N60       1.0  0.94360  0.95890  0.91920  1.0000 -0.3881492087
N   N61       1.0  0.43400  0.16100  0.41580  1.0000 -0.2190099774
N   N62       1.0  0.65600  0.27790  0.41930  1.0000 -0.400075083
N   N63       1.0  0.23260  0.06060  0.41920  1.0000 -0.2190099774
N   N64       1.0  0.04110  0.05640  0.41920  1.0000 -0.3881492087
N   N65       1.0  0.83900  0.27299  0.41580  1.0000 -0.2190099774
N   N66       1.0  0.72210  0.37809  0.41930  1.0000 -0.400075083
N   N67       1.0  0.93940  0.17199  0.41920  1.0000 -0.2190099774
N   N68       1.0  0.94360  0.98469  0.41920  1.0000 -0.3881492087
N   N69       1.0  0.72701  0.56600  0.41580  1.0000 -0.2190099774
N   N70       1.0  0.62191  0.34400  0.41930  1.0000 -0.400075083
N   N71       1.0  0.82801  0.76740  0.41920  1.0000 -0.2190099774
N   N72       1.0  0.01531  0.95890  0.41920  1.0000 -0.3881492087
O   O1        1.0  0.50521  0.99720  0.82930  1.0000 -0.5288266568
O   O2        1.0  0.58291  0.99770  0.86230  1.0000 -0.5394019367
O   O3        1.0  0.49200  0.49479  0.82930  1.0000 -0.5288266568
O   O4        1.0  0.41480  0.41709  0.86230  1.0000 -0.5394019367
O   O5        1.0  0.00280  0.50800  0.82930  1.0000 -0.5288266568
O   O6        1.0  0.00230  0.58520  0.86230  1.0000 -0.5288266568
O   O7        1.0  0.50800  0.00280  0.67070  1.0000 -0.5288266568
O   O8        1.0  0.58520  0.00230  0.63770  1.0000 -0.5394019367
O   O9        1.0  0.99720  0.50521  0.67070  1.0000 -0.5288266568
O   O10       1.0  0.99770  0.58291  0.63770  1.0000 -0.5394019367
O   O11       1.0  0.49479  0.49200  0.67070  1.0000 -0.5288266568
O   O12       1.0  0.41709  0.41480  0.63770  1.0000 -0.5394019367
O   O13       1.0  0.49479  0.00280  0.17070  1.0000 -0.5288266568
O   O14       1.0  0.41709  0.00230  0.13770  1.0000 -0.5394019367
O   O15       1.0  0.50800  0.50521  0.17070  1.0000 -0.5288266568
O   O16       1.0  0.58520  0.58291  0.13770  1.0000 -0.5288266568
O   O17       1.0  0.99720  0.49200  0.17070  1.0000 -0.5288266568
O   O18       1.0  0.99770  0.41480  0.13770  1.0000 -0.5394019367
O   O19       1.0  0.49200  0.99720  0.32930  1.0000 -0.5288266568
O   O20       1.0  0.41480  0.99770  0.36230  1.0000 -0.5394019367
O   O21       1.0  0.00280  0.49479  0.32930  1.0000 -0.5288266568
O   O22       1.0  0.00230  0.41709  0.36230  1.0000 -0.5394019367
O   O23       1.0  0.50521  0.50800  0.32930  1.0000 -0.5288266568
O   O24       1.0  0.58291  0.58520  0.36230  1.0000 -0.5288266568
O   O25       1.0  0.66630  0.91510  0.69110  1.0000 -0.5394019367
O   O26       1.0  0.67040  0.83840  0.66060  1.0000 -0.5471445092
O   O27       1.0  0.66700  0.83440  0.00510  1.0000 -0.5394019367
O   O28       1.0  0.66790  0.75730  0.97250  1.0000 -0.5394019367
O   O29       1.0  0.08490  0.75121  0.69110  1.0000 -0.5394019367
O   O30       1.0  0.16160  0.83201  0.66060  1.0000 -0.5471445092
O   O31       1.0  0.16560  0.83261  0.00510  1.0000 -0.5394019367
O   O32       1.0  0.24270  0.91061  0.97250  1.0000 -0.5394019367
O   O33       1.0  0.24879  0.33370  0.69110  1.0000 -0.5394019367
O   O34       1.0  0.16799  0.32960  0.66060  1.0000 -0.5471445092
O   O35       1.0  0.16739  0.33300  0.00510  1.0000 -0.5394019367
O   O36       1.0  0.08939  0.33210  0.97250  1.0000 -0.5394019367
O   O37       1.0  0.24879  0.91510  0.19110  1.0000 -0.5394019367
O   O38       1.0  0.16799  0.83840  0.16060  1.0000 -0.5471445092
O   O39       1.0  0.16739  0.83440  0.50510  1.0000 -0.5394019367
O   O40       1.0  0.08939  0.75730  0.47250  1.0000 -0.5394019367
O   O41       1.0  0.66630  0.75121  0.19110  1.0000 -0.5394019367
O   O42       1.0  0.67040  0.83201  0.16060  1.0000 -0.5471445092
O   O43       1.0  0.66700  0.83261  0.50510  1.0000 -0.5394019367
O   O44       1.0  0.66790  0.91061  0.47250  1.0000 -0.5394019367
O   O45       1.0  0.08490  0.33370  0.19110  1.0000 -0.5394019367
O   O46       1.0  0.16160  0.32960  0.16060  1.0000 -0.5471445092
O   O47       1.0  0.16560  0.33300  0.50510  1.0000 -0.5394019367
O   O48       1.0  0.24270  0.33210  0.47250  1.0000 -0.5394019367
O   O49       1.0  0.75121  0.08490  0.80890  1.0000 -0.5394019367
O   O50       1.0  0.83201  0.16160  0.83940  1.0000 -0.5471445092
O   O51       1.0  0.83261  0.16560  0.49490  1.0000 -0.5394019367
O   O52       1.0  0.91061  0.24270  0.52750  1.0000 -0.5394019367
O   O53       1.0  0.33370  0.24879  0.80890  1.0000 -0.5394019367
O   O54       1.0  0.32960  0.16799  0.83940  1.0000 -0.5471445092
O   O55       1.0  0.33300  0.16739  0.49490  1.0000 -0.5394019367
O   O56       1.0  0.33210  0.08939  0.52750  1.0000 -0.5394019367
O   O57       1.0  0.91510  0.66630  0.80890  1.0000 -0.5394019367
O   O58       1.0  0.83840  0.67040  0.83940  1.0000 -0.5471445092
O   O59       1.0  0.83440  0.66700  0.49490  1.0000 -0.5394019367
O   O60       1.0  0.75730  0.66790  0.52750  1.0000 -0.5394019367
O   O61       1.0  0.33370  0.08490  0.30890  1.0000 -0.5394019367
O   O62       1.0  0.32960  0.16160  0.33940  1.0000 -0.5471445092
O   O63       1.0  0.33300  0.16560  0.99490  1.0000 -0.5394019367
O   O64       1.0  0.33210  0.24270  0.02750  1.0000 -0.5394019367
O   O65       1.0  0.91510  0.24879  0.30890  1.0000 -0.5394019367
O   O66       1.0  0.83840  0.16799  0.33940  1.0000 -0.5471445092
O   O67       1.0  0.83440  0.16739  0.99490  1.0000 -0.5394019367
O   O68       1.0  0.75730  0.08939  0.02750  1.0000 -0.5394019367
O   O69       1.0  0.75121  0.66630  0.30890  1.0000 -0.5394019367
O   O70       1.0  0.83201  0.67040  0.33940  1.0000 -0.5471445092
O   O71       1.0  0.83261  0.66700  0.99490  1.0000 -0.5394019367
O   O72       1.0  0.91061  0.66790  0.02750  1.0000 -0.5394019367
