# DDEC6 charges by PACMAN v1.1 (https://github.com/mtap-research/PACMAN-charge/)
data_2018[Eu][nan]3[ASR]2
_chemical_formula_sum              "Eu4 H36 C64 O28"
_cell_length_a       15.8728
_cell_length_b       15.8728
_cell_length_c       13.394
_cell_angle_alpha    80.5142
_cell_angle_beta     99.4858
_cell_angle_gamma    125.482

_symmetry_space_group_name_H-M    "P 1"
_symmetry_Int_Tables_number       1

loop_
  _symmetry_equiv_pos_as_xyz
  'x, y, z'

loop_
  _atom_site_type_symbol
  _atom_site_label
  _atom_site_symmetry_multiplicity
  _atom_site_fract_x
  _atom_site_fract_y
  _atom_site_fract_z
  _atom_site_occupancy
  _atom_site_charge
Eu  Eu1       1.0  0.03107  0.39263  0.54872  1.0000 2.0768344339
Eu  Eu2       1.0  0.39263  0.03107  0.95128  1.0000 2.0768344339
Eu  Eu3       1.0  0.96893  0.60737  0.45128  1.0000 2.0768344339
Eu  Eu4       1.0  0.60737  0.96893  0.04872  1.0000 2.0768344339
H   H1        1.0  0.19142  0.72826  0.20867  1.0000 0.1289861548
H   H2        1.0  0.39423  0.71465  0.08190  1.0000 0.1289861548
H   H3        1.0  0.21343  0.48647  0.28627  1.0000 0.1289861548
H   H4        1.0  0.40102  0.53626  0.22658  1.0000 0.1086823193
H   H5        1.0  0.40147  0.57095  0.10945  1.0000 0.1086823193
H   H6        1.0  0.45683  0.47591  0.10509  1.0000 0.1086823193
H   H7        1.0  0.48264  0.36400  0.04600  1.0000 0.1086823193
H   H8        1.0  0.18060  0.13970  0.04669  1.0000 0.1200090621
H   H9        1.0  0.15379  0.24743  0.11114  1.0000 0.1376950752
H   H10       1.0  0.72826  0.19142  0.29133  1.0000 0.1289861548
H   H11       1.0  0.71465  0.39423  0.41810  1.0000 0.1289861548
H   H12       1.0  0.48647  0.21343  0.21373  1.0000 0.1289861548
H   H13       1.0  0.53626  0.40102  0.27342  1.0000 0.1086823193
H   H14       1.0  0.57095  0.40147  0.39055  1.0000 0.1086823193
H   H15       1.0  0.47591  0.45683  0.39491  1.0000 0.1086823193
H   H16       1.0  0.36400  0.48264  0.45400  1.0000 0.1086823193
H   H17       1.0  0.13970  0.18060  0.45331  1.0000 0.1200090621
H   H18       1.0  0.24743  0.15379  0.38886  1.0000 0.1376950752
H   H19       1.0  0.80858  0.27174  0.79133  1.0000 0.1289861548
H   H20       1.0  0.60577  0.28535  0.91810  1.0000 0.1289861548
H   H21       1.0  0.78657  0.51353  0.71373  1.0000 0.1289861548
H   H22       1.0  0.59898  0.46374  0.77342  1.0000 0.1086823193
H   H23       1.0  0.59853  0.42905  0.89055  1.0000 0.1086823193
H   H24       1.0  0.54317  0.52409  0.89491  1.0000 0.1086823193
H   H25       1.0  0.51736  0.63600  0.95400  1.0000 0.1086823193
H   H26       1.0  0.81940  0.86030  0.95331  1.0000 0.1200090621
H   H27       1.0  0.84621  0.75257  0.88886  1.0000 0.1376950752
H   H28       1.0  0.27174  0.80858  0.70867  1.0000 0.1289861548
H   H29       1.0  0.28535  0.60577  0.58190  1.0000 0.1289861548
H   H30       1.0  0.51353  0.78657  0.78627  1.0000 0.1289861548
H   H31       1.0  0.46374  0.59898  0.72658  1.0000 0.1086823193
H   H32       1.0  0.42905  0.59853  0.60945  1.0000 0.1086823193
H   H33       1.0  0.52409  0.54317  0.60509  1.0000 0.1086823193
H   H34       1.0  0.63600  0.51736  0.54600  1.0000 0.1086823193
H   H35       1.0  0.86030  0.81940  0.54669  1.0000 0.1200090621
H   H36       1.0  0.75257  0.84621  0.61114  1.0000 0.1376950752
C   C1        1.0  0.11100  0.55780  0.33550  1.0000 0.6497573193
C   C2        1.0  0.18990  0.60070  0.25900  1.0000 -0.0192148816
C   C3        1.0  0.22210  0.69430  0.20270  1.0000 -0.1010656122
C   C4        1.0  0.30000  0.73820  0.13730  1.0000 -0.0192148816
C   C5        1.0  0.34270  0.68590  0.12610  1.0000 -0.1617151487
C   C6        1.0  0.30910  0.59010  0.18040  1.0000 0.0841851991
C   C7        1.0  0.23420  0.54900  0.24800  1.0000 -0.1429731611
C   C8        1.0  0.35810  0.53590  0.16580  1.0000 -0.072661205
C   C9        1.0  0.30220  0.37300  0.11310  1.0000 0.2439581241
C   C10       1.0  0.40110  0.40830  0.09400  1.0000 -0.2481807459
C   C11       1.0  0.41600  0.34080  0.05800  1.0000 -0.0926065657
C   C12       1.0  0.33530  0.24130  0.03960  1.0000 -0.0395178625
C   C13       1.0  0.23640  0.20700  0.05910  1.0000 -0.0789371345
C   C14       1.0  0.22010  0.27170  0.09670  1.0000 -0.2113755744
C   C15       1.0  0.35280  0.17020  0.00060  1.0000 0.5744610067
C   C16       1.0  0.33830  0.84150  0.08020  1.0000 0.6277278896
C   C17       1.0  0.55780  0.11100  0.16450  1.0000 0.6497573193
C   C18       1.0  0.60070  0.18990  0.24100  1.0000 -0.0192148816
C   C19       1.0  0.69430  0.22210  0.29730  1.0000 -0.1010656122
C   C20       1.0  0.73820  0.30000  0.36270  1.0000 -0.0192148816
C   C21       1.0  0.68590  0.34270  0.37390  1.0000 -0.1617151487
C   C22       1.0  0.59010  0.30910  0.31960  1.0000 0.0841851991
C   C23       1.0  0.54900  0.23420  0.25200  1.0000 -0.1429731611
C   C24       1.0  0.53590  0.35810  0.33420  1.0000 -0.072661205
C   C25       1.0  0.37300  0.30220  0.38690  1.0000 0.2439581241
C   C26       1.0  0.40830  0.40110  0.40600  1.0000 -0.2481807459
C   C27       1.0  0.34080  0.41600  0.44200  1.0000 -0.0926065657
C   C28       1.0  0.24130  0.33530  0.46040  1.0000 -0.0395178625
C   C29       1.0  0.20700  0.23640  0.44090  1.0000 -0.0789371345
C   C30       1.0  0.27170  0.22010  0.40330  1.0000 -0.2113755744
C   C31       1.0  0.17020  0.35280  0.49940  1.0000 0.5744610067
C   C32       1.0  0.84150  0.33830  0.41980  1.0000 0.6277278896
C   C33       1.0  0.88900  0.44220  0.66450  1.0000 0.6497573193
C   C34       1.0  0.81010  0.39930  0.74100  1.0000 -0.0192148816
C   C35       1.0  0.77790  0.30570  0.79730  1.0000 -0.1010656122
C   C36       1.0  0.70000  0.26180  0.86270  1.0000 -0.0192148816
C   C37       1.0  0.65730  0.31410  0.87390  1.0000 -0.1617151487
C   C38       1.0  0.69090  0.40990  0.81960  1.0000 0.0841851991
C   C39       1.0  0.76580  0.45100  0.75200  1.0000 -0.1429731611
C   C40       1.0  0.64190  0.46410  0.83420  1.0000 -0.072661205
C   C41       1.0  0.69780  0.62700  0.88690  1.0000 0.2439581241
C   C42       1.0  0.59890  0.59170  0.90600  1.0000 -0.2481807459
C   C43       1.0  0.58400  0.65920  0.94200  1.0000 -0.0926065657
C   C44       1.0  0.66470  0.75870  0.96040  1.0000 -0.0395178625
C   C45       1.0  0.76360  0.79300  0.94090  1.0000 -0.0789371345
C   C46       1.0  0.77990  0.72830  0.90330  1.0000 -0.2113755744
C   C47       1.0  0.64720  0.82980  0.99940  1.0000 0.5744610067
C   C48       1.0  0.66170  0.15850  0.91980  1.0000 0.6277278896
C   C49       1.0  0.44220  0.88900  0.83550  1.0000 0.6497573193
C   C50       1.0  0.39930  0.81010  0.75900  1.0000 -0.0192148816
C   C51       1.0  0.30570  0.77790  0.70270  1.0000 -0.1010656122
C   C52       1.0  0.26180  0.70000  0.63730  1.0000 -0.0192148816
C   C53       1.0  0.31410  0.65730  0.62610  1.0000 -0.1617151487
C   C54       1.0  0.40990  0.69090  0.68040  1.0000 0.0841851991
C   C55       1.0  0.45100  0.76580  0.74800  1.0000 -0.1429731611
C   C56       1.0  0.46410  0.64190  0.66580  1.0000 -0.072661205
C   C57       1.0  0.62700  0.69780  0.61310  1.0000 0.2439581241
C   C58       1.0  0.59170  0.59890  0.59400  1.0000 -0.2481807459
C   C59       1.0  0.65920  0.58400  0.55800  1.0000 -0.0926065657
C   C60       1.0  0.75870  0.66470  0.53960  1.0000 -0.0395178625
C   C61       1.0  0.79300  0.76360  0.55910  1.0000 -0.0789371345
C   C62       1.0  0.72830  0.77990  0.59670  1.0000 -0.2113755744
C   C63       1.0  0.82980  0.64720  0.50060  1.0000 0.5744610067
C   C64       1.0  0.15850  0.66170  0.58020  1.0000 0.6277278896
O   O1        1.0  0.08264  0.47136  0.38340  1.0000 -0.6520452712
O   O2        1.0  0.07987  0.61253  0.34620  1.0000 -0.6820348416
O   O3        1.0  0.43718  0.20762  0.96370  1.0000 -0.6520452712
O   O4        1.0  0.28286  0.07334  0.00640  1.0000 -0.6432144556
O   O5        1.0  0.42911  0.89529  0.05220  1.0000 -0.7486099068
O   O6        1.0  0.27979  0.87201  0.05770  1.0000 -0.5957592342
O   O7        1.0  0.27647  0.43233  0.14540  1.0000 -0.1749864135
O   O8        1.0  0.47136  0.08264  0.11660  1.0000 -0.6520452712
O   O9        1.0  0.61253  0.07987  0.15380  1.0000 -0.6820348416
O   O10       1.0  0.20762  0.43718  0.53630  1.0000 -0.6520452712
O   O11       1.0  0.07334  0.28286  0.49360  1.0000 -0.6432144556
O   O12       1.0  0.89529  0.42911  0.44780  1.0000 -0.7486099068
O   O13       1.0  0.87201  0.27979  0.44230  1.0000 -0.5957592342
O   O14       1.0  0.43233  0.27647  0.35460  1.0000 -0.1749864135
O   O15       1.0  0.91736  0.52864  0.61660  1.0000 -0.6520452712
O   O16       1.0  0.92013  0.38747  0.65380  1.0000 -0.6820348416
O   O17       1.0  0.56282  0.79238  0.03630  1.0000 -0.6520452712
O   O18       1.0  0.71714  0.92666  0.99360  1.0000 -0.6432144556
O   O19       1.0  0.57089  0.10471  0.94780  1.0000 -0.7486099068
O   O20       1.0  0.72021  0.12799  0.94230  1.0000 -0.5957592342
O   O21       1.0  0.72353  0.56767  0.85460  1.0000 -0.1749864135
O   O22       1.0  0.52864  0.91736  0.88340  1.0000 -0.6520452712
O   O23       1.0  0.38747  0.92013  0.84620  1.0000 -0.6820348416
O   O24       1.0  0.79238  0.56282  0.46370  1.0000 -0.6520452712
O   O25       1.0  0.92666  0.71714  0.50640  1.0000 -0.6432144556
O   O26       1.0  0.10471  0.57089  0.55220  1.0000 -0.7486099068
O   O27       1.0  0.12799  0.72021  0.55770  1.0000 -0.5957592342
O   O28       1.0  0.56767  0.72353  0.64540  1.0000 -0.1756171498
