# DDEC6 charges by PACMAN v1.1 (https://github.com/mtap-research/PACMAN-charge/)
data_2019[Yb][sql]2[ASR]1
_chemical_formula_sum              "Yb8 H56 C64 O52"
_cell_length_a       8.7405
_cell_length_b       14.074
_cell_length_c       24.7017
_cell_angle_alpha    90
_cell_angle_beta     90
_cell_angle_gamma    90

_symmetry_space_group_name_H-M    "P 1"
_symmetry_Int_Tables_number       1

loop_
  _symmetry_equiv_pos_as_xyz
  'x, y, z'

loop_
  _atom_site_type_symbol
  _atom_site_label
  _atom_site_symmetry_multiplicity
  _atom_site_fract_x
  _atom_site_fract_y
  _atom_site_fract_z
  _atom_site_occupancy
  _atom_site_charge
Yb  Yb1       1.0  0.52648  0.89384  0.44320  1.0000 2.0051659994
Yb  Yb2       1.0  0.47352  0.10616  0.94320  1.0000 2.0034248285
Yb  Yb3       1.0  0.47352  0.10616  0.55680  1.0000 2.0051659994
Yb  Yb4       1.0  0.52648  0.89384  0.05680  1.0000 2.0051659994
Yb  Yb5       1.0  0.97352  0.39384  0.55680  1.0000 2.0051659994
Yb  Yb6       1.0  0.02648  0.60616  0.05680  1.0000 2.0051659994
Yb  Yb7       1.0  0.02648  0.60616  0.44320  1.0000 2.0034248285
Yb  Yb8       1.0  0.97352  0.39384  0.94320  1.0000 2.0034248285
H   H1        1.0  0.24280  0.06460  0.37890  1.0000 0.1182646952
H   H2        1.0  0.16750  0.16140  0.39650  1.0000 0.1324984632
H   H3        1.0  0.99110  0.08310  0.45160  1.0000 0.0956570009
H   H4        1.0  0.07690  0.98620  0.44460  1.0000 0.0956570009
H   H5        1.0  0.91720  0.07600  0.36030  1.0000 0.1141420059
H   H6        1.0  0.99680  0.97620  0.35560  1.0000 0.1141420059
H   H7        1.0  0.10400  0.77260  0.30130  1.0000 0.1479799259
H   H8        1.0  0.75720  0.93540  0.87890  1.0000 0.1182646952
H   H9        1.0  0.83250  0.83860  0.89650  1.0000 0.1324984632
H   H10       1.0  0.00890  0.91690  0.95160  1.0000 0.0956570009
H   H11       1.0  0.92310  0.01380  0.94460  1.0000 0.0956570009
H   H12       1.0  0.08280  0.92400  0.86030  1.0000 0.1141420059
H   H13       1.0  0.00320  0.02380  0.85560  1.0000 0.1141420059
H   H14       1.0  0.89600  0.22740  0.80130  1.0000 0.1479799259
H   H15       1.0  0.75720  0.93540  0.62110  1.0000 0.1182646952
H   H16       1.0  0.83250  0.83860  0.60350  1.0000 0.1324984632
H   H17       1.0  0.00890  0.91690  0.54840  1.0000 0.0956570009
H   H18       1.0  0.92310  0.01380  0.55540  1.0000 0.0956570009
H   H19       1.0  0.08280  0.92400  0.63970  1.0000 0.1141420059
H   H20       1.0  0.00320  0.02380  0.64440  1.0000 0.1141420059
H   H21       1.0  0.89600  0.22740  0.69870  1.0000 0.1479799259
H   H22       1.0  0.24280  0.06460  0.12110  1.0000 0.1182646952
H   H23       1.0  0.16750  0.16140  0.10350  1.0000 0.1324984632
H   H24       1.0  0.99110  0.08310  0.04840  1.0000 0.0956570009
H   H25       1.0  0.07690  0.98620  0.05540  1.0000 0.0956570009
H   H26       1.0  0.91720  0.07600  0.13970  1.0000 0.1141420059
H   H27       1.0  0.99680  0.97620  0.14440  1.0000 0.1141420059
H   H28       1.0  0.10400  0.77260  0.19870  1.0000 0.1479799259
H   H29       1.0  0.25720  0.56460  0.62110  1.0000 0.1182646952
H   H30       1.0  0.33250  0.66140  0.60350  1.0000 0.1324984632
H   H31       1.0  0.50890  0.58310  0.54840  1.0000 0.0956570009
H   H32       1.0  0.42310  0.48620  0.55540  1.0000 0.0956570009
H   H33       1.0  0.58280  0.57600  0.63970  1.0000 0.1141420059
H   H34       1.0  0.50320  0.47620  0.64440  1.0000 0.1141420059
H   H35       1.0  0.39600  0.27260  0.69870  1.0000 0.1479799259
H   H36       1.0  0.74280  0.43540  0.12110  1.0000 0.1182646952
H   H37       1.0  0.66750  0.33860  0.10350  1.0000 0.1324984632
H   H38       1.0  0.49110  0.41690  0.04840  1.0000 0.0956570009
H   H39       1.0  0.57690  0.51380  0.05540  1.0000 0.0956570009
H   H40       1.0  0.41720  0.42400  0.13970  1.0000 0.1141420059
H   H41       1.0  0.49680  0.52380  0.14440  1.0000 0.1141420059
H   H42       1.0  0.60400  0.72740  0.19870  1.0000 0.1479799259
H   H43       1.0  0.74280  0.43540  0.37890  1.0000 0.1182646952
H   H44       1.0  0.66750  0.33860  0.39650  1.0000 0.1324984632
H   H45       1.0  0.49110  0.41690  0.45160  1.0000 0.0956570009
H   H46       1.0  0.57690  0.51380  0.44460  1.0000 0.0956570009
H   H47       1.0  0.41720  0.42400  0.36030  1.0000 0.1141420059
H   H48       1.0  0.49680  0.52380  0.35560  1.0000 0.1141420059
H   H49       1.0  0.60400  0.72740  0.30130  1.0000 0.1479799259
H   H50       1.0  0.25720  0.56460  0.87890  1.0000 0.1182646952
H   H51       1.0  0.33250  0.66140  0.89650  1.0000 0.1324984632
H   H52       1.0  0.50890  0.58310  0.95160  1.0000 0.0956570009
H   H53       1.0  0.42310  0.48620  0.94460  1.0000 0.0956570009
H   H54       1.0  0.58280  0.57600  0.86030  1.0000 0.1141420059
H   H55       1.0  0.50320  0.47620  0.85560  1.0000 0.1141420059
H   H56       1.0  0.39600  0.27260  0.80130  1.0000 0.1479799259
C   C1        1.0  0.29770  0.10220  0.45620  1.0000 0.6593516149
C   C2        1.0  0.35510  0.87860  0.34740  1.0000 0.5041893177
C   C3        1.0  0.80170  0.97210  0.40140  1.0000 0.6060576043
C   C4        1.0  0.19340  0.09770  0.40850  1.0000 -0.3273103185
C   C5        1.0  0.04730  0.04400  0.42610  1.0000 -0.1080790855
C   C6        1.0  0.94430  0.01900  0.38020  1.0000 -0.3108539827
C   C7        1.0  0.28620  0.85320  0.29560  1.0000 0.048009758
C   C8        1.0  0.17400  0.80370  0.27930  1.0000 -0.1535917022
C   C9        1.0  0.70230  0.89780  0.95620  1.0000 0.6593516149
C   C10       1.0  0.64490  0.12140  0.84740  1.0000 0.5041893177
C   C11       1.0  0.19830  0.02790  0.90140  1.0000 0.6060576043
C   C12       1.0  0.80660  0.90230  0.90850  1.0000 -0.3273103185
C   C13       1.0  0.95270  0.95600  0.92610  1.0000 -0.1080790855
C   C14       1.0  0.05570  0.98100  0.88020  1.0000 -0.3108539827
C   C15       1.0  0.71380  0.14680  0.79560  1.0000 0.048009758
C   C16       1.0  0.82600  0.19630  0.77930  1.0000 -0.1535917022
C   C17       1.0  0.70230  0.89780  0.54380  1.0000 0.6593516149
C   C18       1.0  0.64490  0.12140  0.65260  1.0000 0.5041893177
C   C19       1.0  0.19830  0.02790  0.59860  1.0000 0.6060576043
C   C20       1.0  0.80660  0.90230  0.59150  1.0000 -0.3273103185
C   C21       1.0  0.95270  0.95600  0.57390  1.0000 -0.1080790855
C   C22       1.0  0.05570  0.98100  0.61980  1.0000 -0.3108539827
C   C23       1.0  0.71380  0.14680  0.70440  1.0000 0.048009758
C   C24       1.0  0.82600  0.19630  0.72070  1.0000 -0.1535917022
C   C25       1.0  0.29770  0.10220  0.04380  1.0000 0.6593516149
C   C26       1.0  0.35510  0.87860  0.15260  1.0000 0.5041893177
C   C27       1.0  0.80170  0.97210  0.09860  1.0000 0.6060576043
C   C28       1.0  0.19340  0.09770  0.09150  1.0000 -0.3273103185
C   C29       1.0  0.04730  0.04400  0.07390  1.0000 -0.1080790855
C   C30       1.0  0.94430  0.01900  0.11980  1.0000 -0.3108539827
C   C31       1.0  0.28620  0.85320  0.20440  1.0000 0.048009758
C   C32       1.0  0.17400  0.80370  0.22070  1.0000 -0.1535917022
C   C33       1.0  0.20230  0.60220  0.54380  1.0000 0.6593516149
C   C34       1.0  0.14490  0.37860  0.65260  1.0000 0.5041893177
C   C35       1.0  0.69830  0.47210  0.59860  1.0000 0.6060576043
C   C36       1.0  0.30660  0.59770  0.59150  1.0000 -0.3273103185
C   C37       1.0  0.45270  0.54400  0.57390  1.0000 -0.1080790855
C   C38       1.0  0.55570  0.51900  0.61980  1.0000 -0.3108539827
C   C39       1.0  0.21380  0.35320  0.70440  1.0000 0.048009758
C   C40       1.0  0.32600  0.30370  0.72070  1.0000 -0.1535917022
C   C41       1.0  0.79770  0.39780  0.04380  1.0000 0.6593516149
C   C42       1.0  0.85510  0.62140  0.15260  1.0000 0.5041893177
C   C43       1.0  0.30170  0.52790  0.09860  1.0000 0.6060576043
C   C44       1.0  0.69340  0.40230  0.09150  1.0000 -0.3273103185
C   C45       1.0  0.54730  0.45600  0.07390  1.0000 -0.1080790855
C   C46       1.0  0.44430  0.48100  0.11980  1.0000 -0.3108539827
C   C47       1.0  0.78620  0.64680  0.20440  1.0000 0.048009758
C   C48       1.0  0.67400  0.69630  0.22070  1.0000 -0.1535917022
C   C49       1.0  0.79770  0.39780  0.45620  1.0000 0.6593516149
C   C50       1.0  0.85510  0.62140  0.34740  1.0000 0.5041893177
C   C51       1.0  0.30170  0.52790  0.40140  1.0000 0.6060576043
C   C52       1.0  0.69340  0.40230  0.40850  1.0000 -0.3273103185
C   C53       1.0  0.54730  0.45600  0.42610  1.0000 -0.1080790855
C   C54       1.0  0.44430  0.48100  0.38020  1.0000 -0.3108539827
C   C55       1.0  0.78620  0.64680  0.29560  1.0000 0.048009758
C   C56       1.0  0.67400  0.69630  0.27930  1.0000 -0.1535917022
C   C57       1.0  0.20230  0.60220  0.95620  1.0000 0.6593516149
C   C58       1.0  0.14490  0.37860  0.84740  1.0000 0.5041893177
C   C59       1.0  0.69830  0.47210  0.90140  1.0000 0.6060576043
C   C60       1.0  0.30660  0.59770  0.90850  1.0000 -0.3273103185
C   C61       1.0  0.45270  0.54400  0.92610  1.0000 -0.1080790855
C   C62       1.0  0.55570  0.51900  0.88020  1.0000 -0.3108539827
C   C63       1.0  0.21380  0.35320  0.79560  1.0000 0.048009758
C   C64       1.0  0.32600  0.30370  0.77930  1.0000 -0.1535917022
O   O1        1.0  0.28930  0.85830  0.39170  1.0000 -0.6127120279
O   O2        1.0  0.38840  0.03300  0.46570  1.0000 -0.7341827103
O   O3        1.0  0.29230  0.16870  0.48880  1.0000 -0.589788992
O   O4        1.0  0.69750  0.02300  0.42010  1.0000 -0.6127120279
O   O5        1.0  0.78760  0.88390  0.40060  1.0000 -0.5960999973
O   O6        1.0  0.48270  0.91750  0.34720  1.0000 -0.5677550607
O   O7        1.0  0.71070  0.14170  0.89170  1.0000 -0.6127120279
O   O8        1.0  0.61160  0.96700  0.96570  1.0000 -0.7341827103
O   O9        1.0  0.70770  0.83130  0.98880  1.0000 -0.589788992
O   O10       1.0  0.30250  0.97700  0.92010  1.0000 -0.6127120279
O   O11       1.0  0.21240  0.11610  0.90060  1.0000 -0.5960999973
O   O12       1.0  0.51730  0.08250  0.84720  1.0000 -0.5677550607
O   O13       1.0  0.71070  0.14170  0.60830  1.0000 -0.6127120279
O   O14       1.0  0.61160  0.96700  0.53430  1.0000 -0.7341827103
O   O15       1.0  0.70770  0.83130  0.51120  1.0000 -0.589788992
O   O16       1.0  0.30250  0.97700  0.57990  1.0000 -0.6127120279
O   O17       1.0  0.21240  0.11610  0.59940  1.0000 -0.5960999973
O   O18       1.0  0.51730  0.08250  0.65280  1.0000 -0.5677550607
O   O19       1.0  0.28930  0.85830  0.10830  1.0000 -0.6127120279
O   O20       1.0  0.38840  0.03300  0.03430  1.0000 -0.7341827103
O   O21       1.0  0.29230  0.16870  0.01120  1.0000 -0.589788992
O   O22       1.0  0.69750  0.02300  0.07990  1.0000 -0.6127120279
O   O23       1.0  0.78760  0.88390  0.09940  1.0000 -0.5960999973
O   O24       1.0  0.48270  0.91750  0.15280  1.0000 -0.5677550607
O   O25       1.0  0.36420  0.88420  0.25000  1.0000 -0.0579085988
O   O26       1.0  0.63580  0.11580  0.75000  1.0000 -0.0579085988
O   O27       1.0  0.21070  0.35830  0.60830  1.0000 -0.6127120279
O   O28       1.0  0.11160  0.53300  0.53430  1.0000 -0.7341827103
O   O29       1.0  0.20770  0.66870  0.51120  1.0000 -0.589788992
O   O30       1.0  0.80250  0.52300  0.57990  1.0000 -0.6127120279
O   O31       1.0  0.71240  0.38390  0.59940  1.0000 -0.5960999973
O   O32       1.0  0.01730  0.41750  0.65280  1.0000 -0.5677550607
O   O33       1.0  0.78930  0.64170  0.10830  1.0000 -0.6127120279
O   O34       1.0  0.88840  0.46700  0.03430  1.0000 -0.7341827103
O   O35       1.0  0.79230  0.33130  0.01120  1.0000 -0.589788992
O   O36       1.0  0.19750  0.47700  0.07990  1.0000 -0.6127120279
O   O37       1.0  0.28760  0.61610  0.09940  1.0000 -0.5960999973
O   O38       1.0  0.98270  0.58250  0.15280  1.0000 -0.5677550607
O   O39       1.0  0.78930  0.64170  0.39170  1.0000 -0.6127120279
O   O40       1.0  0.88840  0.46700  0.46570  1.0000 -0.7341827103
O   O41       1.0  0.79230  0.33130  0.48880  1.0000 -0.589788992
O   O42       1.0  0.19750  0.47700  0.42010  1.0000 -0.6127120279
O   O43       1.0  0.28760  0.61610  0.40060  1.0000 -0.589788992
O   O44       1.0  0.98270  0.58250  0.34720  1.0000 -0.5677550607
O   O45       1.0  0.21070  0.35830  0.89170  1.0000 -0.6127120279
O   O46       1.0  0.11160  0.53300  0.96570  1.0000 -0.7341827103
O   O47       1.0  0.20770  0.66870  0.98880  1.0000 -0.589788992
O   O48       1.0  0.80250  0.52300  0.92010  1.0000 -0.6127120279
O   O49       1.0  0.71240  0.38390  0.90060  1.0000 -0.589788992
O   O50       1.0  0.01730  0.41750  0.84720  1.0000 -0.5677550607
O   O51       1.0  0.13580  0.38420  0.75000  1.0000 -0.0579085988
O   O52       1.0  0.86420  0.61580  0.25000  1.0000 -0.0579085988
