# DDEC6 charges by PACMAN v1.1 (https://github.com/mtap-research/PACMAN-charge/)
data_2019[Zn][lon]3[ASR]7
_chemical_formula_sum              "Zn2 H26 C20 N10 O8"
_cell_length_a       9.5645
_cell_length_b       9.0405
_cell_length_c       10.4571
_cell_angle_alpha    90
_cell_angle_beta     105.264
_cell_angle_gamma    90

_symmetry_space_group_name_H-M    "P 1"
_symmetry_Int_Tables_number       1

loop_
  _symmetry_equiv_pos_as_xyz
  'x, y, z'

loop_
  _atom_site_type_symbol
  _atom_site_label
  _atom_site_symmetry_multiplicity
  _atom_site_fract_x
  _atom_site_fract_y
  _atom_site_fract_z
  _atom_site_occupancy
  _atom_site_charge
Zn  Zn1       1.0  0.84494  0.47150  0.08750  1.0000 0.7093075429
Zn  Zn2       1.0  0.15506  0.97150  0.91250  1.0000 0.7093075429
H   H1        1.0  0.36270  0.49620  0.93600  1.0000 0.2704228525
H   H2        1.0  0.44000  0.32360  0.15510  1.0000 0.1202292556
H   H3        1.0  0.42370  0.15430  0.12130  1.0000 0.1291139389
H   H4        1.0  0.91050  0.16780  0.97040  1.0000 0.098185866
H   H5        1.0  0.82210  0.41900  0.30760  1.0000 0.258029065
H   H6        1.0  0.80060  0.57440  0.28630  1.0000 0.2803943966
H   H7        1.0  0.17370  0.62930  0.56940  1.0000 0.2704228525
H   H8        1.0  0.21220  0.63190  0.78410  1.0000 0.1202292556
H   H9        1.0  0.07240  0.53610  0.77000  1.0000 0.1291139389
H   H10       1.0  0.06470  0.45770  0.35610  1.0000 0.1128331785
H   H11       1.0  0.02660  0.62570  0.35550  1.0000 0.1291139389
H   H12       1.0  0.19310  0.44520  0.17090  1.0000 0.1202292556
H   H13       1.0  0.39040  0.19670  0.89970  1.0000 0.098185866
H   H14       1.0  0.63730  0.99620  0.06400  1.0000 0.2704228525
H   H15       1.0  0.56000  0.82360  0.84490  1.0000 0.1202292556
H   H16       1.0  0.57630  0.65430  0.87870  1.0000 0.1291139389
H   H17       1.0  0.08950  0.66780  0.02960  1.0000 0.098185866
H   H18       1.0  0.17790  0.91900  0.69240  1.0000 0.258029065
H   H19       1.0  0.19940  0.07440  0.71370  1.0000 0.2803943966
H   H20       1.0  0.82630  0.12930  0.43060  1.0000 0.2704228525
H   H21       1.0  0.78780  0.13190  0.21590  1.0000 0.1202292556
H   H22       1.0  0.92760  0.03610  0.23000  1.0000 0.1291139389
H   H23       1.0  0.93530  0.95770  0.64390  1.0000 0.1128331785
H   H24       1.0  0.97340  0.12570  0.64450  1.0000 0.1291139389
H   H25       1.0  0.80690  0.94520  0.82910  1.0000 0.1202292556
H   H26       1.0  0.60960  0.69670  0.10030  1.0000 0.098185866
C   C1        1.0  0.38900  0.25200  0.09010  1.0000 -0.2912085961
C   C2        1.0  0.58850  0.29790  0.98310  1.0000 0.547614864
C   C3        1.0  0.99800  0.21300  0.01100  1.0000 0.1448253904
C   C4        1.0  0.15900  0.54700  0.73900  1.0000 -0.1982072875
C   C5        1.0  0.99500  0.52800  0.37300  1.0000 -0.1982072875
C   C6        1.0  0.15250  0.36400  0.11990  1.0000 -0.1216528948
C   C7        1.0  0.22760  0.26210  0.07780  1.0000 0.1606912975
C   C8        1.0  0.00000  0.51900  0.51900  1.0000 0.4889207695
C   C9        1.0  0.25200  0.40900  0.77570  1.0000 0.4889207695
C   C10       1.0  0.42260  0.28190  0.95810  1.0000 0.0057374797
C   C11       1.0  0.61100  0.75200  0.90990  1.0000 -0.2912085961
C   C12       1.0  0.41150  0.79790  0.01690  1.0000 0.547614864
C   C13       1.0  0.00200  0.71300  0.98900  1.0000 0.1448253904
C   C14       1.0  0.84100  0.04700  0.26100  1.0000 -0.1982072875
C   C15       1.0  0.00500  0.02800  0.62700  1.0000 -0.1939289804
C   C16       1.0  0.84750  0.86400  0.88010  1.0000 -0.1216528948
C   C17       1.0  0.77240  0.76210  0.92220  1.0000 0.1606912975
C   C18       1.0  0.00000  0.01900  0.48100  1.0000 0.4889207695
C   C19       1.0  0.74800  0.90900  0.22430  1.0000 0.4889207695
C   C20       1.0  0.57740  0.78190  0.04190  1.0000 0.0057374797
N   N1        1.0  0.34630  0.41310  0.89480  1.0000 -0.3671582576
N   N2        1.0  0.12810  0.15850  0.00460  1.0000 -0.3593251492
N   N3        1.0  0.00690  0.33540  0.07920  1.0000 -0.303058752
N   N4        1.0  0.85900  0.49970  0.28020  1.0000 -0.4662918533
N   N5        1.0  0.11840  0.57400  0.60170  1.0000 -0.2912085961
N   N6        1.0  0.65370  0.91310  0.10520  1.0000 -0.3671582576
N   N7        1.0  0.87190  0.65850  0.99540  1.0000 -0.3593251492
N   N8        1.0  0.99310  0.83540  0.92080  1.0000 -0.303058752
N   N9        1.0  0.14100  0.99970  0.71980  1.0000 -0.4662918533
N   N10       1.0  0.88160  0.07400  0.39830  1.0000 -0.2912085961
O   O1        1.0  0.63740  0.42550  0.02270  1.0000 -0.5498054708
O   O2        1.0  0.65960  0.18930  0.97100  1.0000 -0.5498054708
O   O3        1.0  0.90040  0.45800  0.55290  1.0000 -0.5097799386
O   O4        1.0  0.23240  0.30380  0.70020  1.0000 -0.4789513733
O   O5        1.0  0.36260  0.92550  0.97730  1.0000 -0.5498054708
O   O6        1.0  0.34040  0.68930  0.02900  1.0000 -0.5498054708
O   O7        1.0  0.09960  0.95800  0.44710  1.0000 -0.5097799386
O   O8        1.0  0.76760  0.80380  0.29980  1.0000 -0.4789513733
