# DDEC6 charges by PACMAN v1.1 (https://github.com/mtap-research/PACMAN-charge/)
data_2019[Fe][stp]3[ASR]2
_chemical_formula_sum              "Fe12 H168 C318 O52"
_cell_length_a       31.2164
_cell_length_b       31.2164
_cell_length_c       33.3866
_cell_angle_alpha    90
_cell_angle_beta     90
_cell_angle_gamma    120

_symmetry_space_group_name_H-M    "P 1"
_symmetry_Int_Tables_number       1

loop_
  _symmetry_equiv_pos_as_xyz
  'x, y, z'

loop_
  _atom_site_type_symbol
  _atom_site_label
  _atom_site_symmetry_multiplicity
  _atom_site_fract_x
  _atom_site_fract_y
  _atom_site_fract_z
  _atom_site_occupancy
  _atom_site_charge
Fe  Fe1       1.0  0.59810  0.31447  0.00000  1.0000 1.1820983045
Fe  Fe2       1.0  0.71637  0.40190  0.00000  1.0000 1.1820983045
Fe  Fe3       1.0  0.68553  0.28363  0.00000  1.0000 1.1820983045
Fe  Fe4       1.0  0.40190  0.68553  0.00000  1.0000 1.1820983045
Fe  Fe5       1.0  0.28363  0.59810  0.00000  1.0000 1.1820983045
Fe  Fe6       1.0  0.31447  0.71637  0.00000  1.0000 1.1820983045
Fe  Fe7       1.0  0.28363  0.68553  0.50000  1.0000 1.1820983045
Fe  Fe8       1.0  0.31447  0.59810  0.50000  1.0000 1.1820983045
Fe  Fe9       1.0  0.40190  0.71637  0.50000  1.0000 1.1820983045
Fe  Fe10      1.0  0.71637  0.31447  0.50000  1.0000 1.1820983045
Fe  Fe11      1.0  0.68553  0.40190  0.50000  1.0000 1.1820983045
Fe  Fe12      1.0  0.59810  0.28363  0.50000  1.0000 1.1820983045
H   H1        1.0  0.53000  0.45620  0.19060  1.0000 0.1276860849
H   H2        1.0  0.55750  0.38680  0.08720  1.0000 0.1276860849
H   H3        1.0  0.66690  0.57160  0.17400  1.0000 0.1131777698
H   H4        1.0  0.68460  0.52340  0.14630  1.0000 0.1131777698
H   H5        1.0  0.70020  0.48030  0.09860  1.0000 0.1364966385
H   H6        1.0  0.54070  0.42990  0.13420  1.0000 0.1223036774
H   H7        1.0  0.65190  0.61670  0.22170  1.0000 0.1276860849
H   H8        1.0  0.92620  0.47000  0.19060  1.0000 0.1276860849
H   H9        1.0  0.82930  0.44250  0.08720  1.0000 0.1276860849
H   H10       1.0  0.90470  0.33310  0.17400  1.0000 0.1131777698
H   H11       1.0  0.83880  0.31540  0.14630  1.0000 0.1131777698
H   H12       1.0  0.78010  0.29980  0.09860  1.0000 0.1364966385
H   H13       1.0  0.88920  0.45930  0.13420  1.0000 0.1223036774
H   H14       1.0  0.96480  0.34810  0.22170  1.0000 0.1276860849
H   H15       1.0  0.54380  0.07380  0.19060  1.0000 0.1276860849
H   H16       1.0  0.61320  0.17070  0.08720  1.0000 0.1276860849
H   H17       1.0  0.42840  0.09530  0.17400  1.0000 0.1131777698
H   H18       1.0  0.47660  0.16120  0.14630  1.0000 0.1131777698
H   H19       1.0  0.51970  0.21990  0.09860  1.0000 0.1364966385
H   H20       1.0  0.57010  0.11080  0.13420  1.0000 0.1223036774
H   H21       1.0  0.38330  0.03520  0.22170  1.0000 0.1276860849
H   H22       1.0  0.47000  0.54380  0.19060  1.0000 0.1276860849
H   H23       1.0  0.44250  0.61320  0.08720  1.0000 0.1276860849
H   H24       1.0  0.33310  0.42840  0.17400  1.0000 0.1131777698
H   H25       1.0  0.31540  0.47660  0.14630  1.0000 0.1131777698
H   H26       1.0  0.29980  0.51970  0.09860  1.0000 0.1364966385
H   H27       1.0  0.45930  0.57010  0.13420  1.0000 0.1223036774
H   H28       1.0  0.34810  0.38330  0.22170  1.0000 0.1276860849
H   H29       1.0  0.07380  0.53000  0.19060  1.0000 0.1276860849
H   H30       1.0  0.17070  0.55750  0.08720  1.0000 0.1276860849
H   H31       1.0  0.09530  0.66690  0.17400  1.0000 0.1131777698
H   H32       1.0  0.16120  0.68460  0.14630  1.0000 0.1131777698
H   H33       1.0  0.21990  0.70020  0.09860  1.0000 0.1364966385
H   H34       1.0  0.11080  0.54070  0.13420  1.0000 0.1223036774
H   H35       1.0  0.03520  0.65190  0.22170  1.0000 0.1276860849
H   H36       1.0  0.45620  0.92620  0.19060  1.0000 0.1276860849
H   H37       1.0  0.38680  0.82930  0.08720  1.0000 0.1276860849
H   H38       1.0  0.57160  0.90470  0.17400  1.0000 0.1131777698
H   H39       1.0  0.52340  0.83880  0.14630  1.0000 0.1131777698
H   H40       1.0  0.48030  0.78010  0.09860  1.0000 0.1364966385
H   H41       1.0  0.42990  0.88920  0.13420  1.0000 0.1223036774
H   H42       1.0  0.61670  0.96480  0.22170  1.0000 0.1276860849
H   H43       1.0  0.07380  0.54380  0.30940  1.0000 0.1276860849
H   H44       1.0  0.17070  0.61320  0.41280  1.0000 0.1276860849
H   H45       1.0  0.09530  0.42840  0.32600  1.0000 0.1131777698
H   H46       1.0  0.16120  0.47660  0.35370  1.0000 0.1131777698
H   H47       1.0  0.21990  0.51970  0.40140  1.0000 0.1364966385
H   H48       1.0  0.11080  0.57010  0.36580  1.0000 0.1223036774
H   H49       1.0  0.03520  0.38330  0.27830  1.0000 0.1276860849
H   H50       1.0  0.45620  0.53000  0.30940  1.0000 0.1276860849
H   H51       1.0  0.38680  0.55750  0.41280  1.0000 0.1276860849
H   H52       1.0  0.57160  0.66690  0.32600  1.0000 0.1131777698
H   H53       1.0  0.52340  0.68460  0.35370  1.0000 0.1131777698
H   H54       1.0  0.48030  0.70020  0.40140  1.0000 0.1364966385
H   H55       1.0  0.42990  0.54070  0.36580  1.0000 0.1223036774
H   H56       1.0  0.61670  0.65190  0.27830  1.0000 0.1276860849
H   H57       1.0  0.47000  0.92620  0.30940  1.0000 0.1276860849
H   H58       1.0  0.44250  0.82930  0.41280  1.0000 0.1276860849
H   H59       1.0  0.33310  0.90470  0.32600  1.0000 0.1131777698
H   H60       1.0  0.31540  0.83880  0.35370  1.0000 0.1131777698
H   H61       1.0  0.29980  0.78010  0.40140  1.0000 0.1364966385
H   H62       1.0  0.45930  0.88920  0.36580  1.0000 0.1223036774
H   H63       1.0  0.34810  0.96480  0.27830  1.0000 0.1276860849
H   H64       1.0  0.92620  0.45620  0.30940  1.0000 0.1276860849
H   H65       1.0  0.82930  0.38680  0.41280  1.0000 0.1276860849
H   H66       1.0  0.90470  0.57160  0.32600  1.0000 0.1131777698
H   H67       1.0  0.83880  0.52340  0.35370  1.0000 0.1131777698
H   H68       1.0  0.78010  0.48030  0.40140  1.0000 0.1364966385
H   H69       1.0  0.88920  0.42990  0.36580  1.0000 0.1223036774
H   H70       1.0  0.96480  0.61670  0.27830  1.0000 0.1276860849
H   H71       1.0  0.54380  0.47000  0.30940  1.0000 0.1276860849
H   H72       1.0  0.61320  0.44250  0.41280  1.0000 0.1276860849
H   H73       1.0  0.42840  0.33310  0.32600  1.0000 0.1131777698
H   H74       1.0  0.47660  0.31540  0.35370  1.0000 0.1131777698
H   H75       1.0  0.51970  0.29980  0.40140  1.0000 0.1364966385
H   H76       1.0  0.57010  0.45930  0.36580  1.0000 0.1223036774
H   H77       1.0  0.38330  0.34810  0.27830  1.0000 0.1276860849
H   H78       1.0  0.53000  0.07380  0.30940  1.0000 0.1276860849
H   H79       1.0  0.55750  0.17070  0.41280  1.0000 0.1276860849
H   H80       1.0  0.66690  0.09530  0.32600  1.0000 0.1131777698
H   H81       1.0  0.68460  0.16120  0.35370  1.0000 0.1131777698
H   H82       1.0  0.70020  0.21990  0.40140  1.0000 0.1364966385
H   H83       1.0  0.54070  0.11080  0.36580  1.0000 0.1223036774
H   H84       1.0  0.65190  0.03520  0.27830  1.0000 0.1276860849
H   H85       1.0  0.47000  0.54380  0.80940  1.0000 0.1276860849
H   H86       1.0  0.44250  0.61320  0.91280  1.0000 0.1276860849
H   H87       1.0  0.33310  0.42840  0.82600  1.0000 0.1131777698
H   H88       1.0  0.31540  0.47660  0.85370  1.0000 0.1131777698
H   H89       1.0  0.29980  0.51970  0.90140  1.0000 0.1364966385
H   H90       1.0  0.45930  0.57010  0.86580  1.0000 0.1223036774
H   H91       1.0  0.34810  0.38330  0.77830  1.0000 0.1276860849
H   H92       1.0  0.07380  0.53000  0.80940  1.0000 0.1276860849
H   H93       1.0  0.17070  0.55750  0.91280  1.0000 0.1276860849
H   H94       1.0  0.09530  0.66690  0.82600  1.0000 0.1131777698
H   H95       1.0  0.16120  0.68460  0.85370  1.0000 0.1131777698
H   H96       1.0  0.21990  0.70020  0.90140  1.0000 0.1364966385
H   H97       1.0  0.11080  0.54070  0.86580  1.0000 0.1223036774
H   H98       1.0  0.03520  0.65190  0.77830  1.0000 0.1276860849
H   H99       1.0  0.45620  0.92620  0.80940  1.0000 0.1276860849
H   H100      1.0  0.38680  0.82930  0.91280  1.0000 0.1276860849
H   H101      1.0  0.57160  0.90470  0.82600  1.0000 0.1131777698
H   H102      1.0  0.52340  0.83880  0.85370  1.0000 0.1131777698
H   H103      1.0  0.48030  0.78010  0.90140  1.0000 0.1364966385
H   H104      1.0  0.42990  0.88920  0.86580  1.0000 0.1223036774
H   H105      1.0  0.61670  0.96480  0.77830  1.0000 0.1276860849
H   H106      1.0  0.53000  0.45620  0.80940  1.0000 0.1276860849
H   H107      1.0  0.55750  0.38680  0.91280  1.0000 0.1276860849
H   H108      1.0  0.66690  0.57160  0.82600  1.0000 0.1131777698
H   H109      1.0  0.68460  0.52340  0.85370  1.0000 0.1131777698
H   H110      1.0  0.70020  0.48030  0.90140  1.0000 0.1364966385
H   H111      1.0  0.54070  0.42990  0.86580  1.0000 0.1223036774
H   H112      1.0  0.65190  0.61670  0.77830  1.0000 0.1276860849
H   H113      1.0  0.92620  0.47000  0.80940  1.0000 0.1276860849
H   H114      1.0  0.82930  0.44250  0.91280  1.0000 0.1276860849
H   H115      1.0  0.90470  0.33310  0.82600  1.0000 0.1131777698
H   H116      1.0  0.83880  0.31540  0.85370  1.0000 0.1131777698
H   H117      1.0  0.78010  0.29980  0.90140  1.0000 0.1364966385
H   H118      1.0  0.88920  0.45930  0.86580  1.0000 0.1223036774
H   H119      1.0  0.96480  0.34810  0.77830  1.0000 0.1276860849
H   H120      1.0  0.54380  0.07380  0.80940  1.0000 0.1276860849
H   H121      1.0  0.61320  0.17070  0.91280  1.0000 0.1276860849
H   H122      1.0  0.42840  0.09530  0.82600  1.0000 0.1131777698
H   H123      1.0  0.47660  0.16120  0.85370  1.0000 0.1131777698
H   H124      1.0  0.51970  0.21990  0.90140  1.0000 0.1364966385
H   H125      1.0  0.57010  0.11080  0.86580  1.0000 0.1223036774
H   H126      1.0  0.38330  0.03520  0.77830  1.0000 0.1276860849
H   H127      1.0  0.92620  0.45620  0.69060  1.0000 0.1276860849
H   H128      1.0  0.82930  0.38680  0.58720  1.0000 0.1276860849
H   H129      1.0  0.90470  0.57160  0.67400  1.0000 0.1131777698
H   H130      1.0  0.83880  0.52340  0.64630  1.0000 0.1131777698
H   H131      1.0  0.78010  0.48030  0.59860  1.0000 0.1364966385
H   H132      1.0  0.88920  0.42990  0.63420  1.0000 0.1223036774
H   H133      1.0  0.96480  0.61670  0.72170  1.0000 0.1276860849
H   H134      1.0  0.54380  0.47000  0.69060  1.0000 0.1276860849
H   H135      1.0  0.61320  0.44250  0.58720  1.0000 0.1276860849
H   H136      1.0  0.42840  0.33310  0.67400  1.0000 0.1131777698
H   H137      1.0  0.47660  0.31540  0.64630  1.0000 0.1131777698
H   H138      1.0  0.51970  0.29980  0.59860  1.0000 0.1364966385
H   H139      1.0  0.57010  0.45930  0.63420  1.0000 0.1223036774
H   H140      1.0  0.38330  0.34810  0.72170  1.0000 0.1276860849
H   H141      1.0  0.53000  0.07380  0.69060  1.0000 0.1276860849
H   H142      1.0  0.55750  0.17070  0.58720  1.0000 0.1276860849
H   H143      1.0  0.66690  0.09530  0.67400  1.0000 0.1131777698
H   H144      1.0  0.68460  0.16120  0.64630  1.0000 0.1131777698
H   H145      1.0  0.70020  0.21990  0.59860  1.0000 0.1364966385
H   H146      1.0  0.54070  0.11080  0.63420  1.0000 0.1223036774
H   H147      1.0  0.65190  0.03520  0.72170  1.0000 0.1276860849
H   H148      1.0  0.07380  0.54380  0.69060  1.0000 0.1276860849
H   H149      1.0  0.17070  0.61320  0.58720  1.0000 0.1276860849
H   H150      1.0  0.09530  0.42840  0.67400  1.0000 0.1131777698
H   H151      1.0  0.16120  0.47660  0.64630  1.0000 0.1131777698
H   H152      1.0  0.21990  0.51970  0.59860  1.0000 0.1364966385
H   H153      1.0  0.11080  0.57010  0.63420  1.0000 0.1223036774
H   H154      1.0  0.03520  0.38330  0.72170  1.0000 0.1276860849
H   H155      1.0  0.45620  0.53000  0.69060  1.0000 0.1276860849
H   H156      1.0  0.38680  0.55750  0.58720  1.0000 0.1276860849
H   H157      1.0  0.57160  0.66690  0.67400  1.0000 0.1131777698
H   H158      1.0  0.52340  0.68460  0.64630  1.0000 0.1131777698
H   H159      1.0  0.48030  0.70020  0.59860  1.0000 0.1364966385
H   H160      1.0  0.42990  0.54070  0.63420  1.0000 0.1223036774
H   H161      1.0  0.61670  0.65190  0.72170  1.0000 0.1276860849
H   H162      1.0  0.47000  0.92620  0.69060  1.0000 0.1276860849
H   H163      1.0  0.44250  0.82930  0.58720  1.0000 0.1276860849
H   H164      1.0  0.33310  0.90470  0.67400  1.0000 0.1131777698
H   H165      1.0  0.31540  0.83880  0.64630  1.0000 0.1131777698
H   H166      1.0  0.29980  0.78010  0.59860  1.0000 0.1364966385
H   H167      1.0  0.45930  0.88920  0.63420  1.0000 0.1223036774
H   H168      1.0  0.34810  0.96480  0.72170  1.0000 0.1276860849
C   C1        1.0  0.54596  0.51562  0.22512  1.0000 0.0218806373
C   C2        1.0  0.61051  0.48070  0.14663  1.0000 0.074288592
C   C3        1.0  0.60072  0.50897  0.17771  1.0000 0.0815361964
C   C4        1.0  0.63061  0.42885  0.08775  1.0000 -0.0355208613
C   C5        1.0  0.55469  0.48824  0.19680  1.0000 -0.2072921635
C   C6        1.0  0.63976  0.40135  0.05558  1.0000 0.6006025724
C   C7        1.0  0.58207  0.56259  0.23518  1.0000 0.0107792548
C   C8        1.0  0.58354  0.41454  0.09900  1.0000 -0.0888115627
C   C9        1.0  0.63652  0.55721  0.18706  1.0000 -0.1511490707
C   C10       1.0  0.65834  0.49555  0.13470  1.0000 -0.1511490707
C   C11       1.0  0.66764  0.46963  0.10590  1.0000 -0.0888115627
C   C12       1.0  0.57347  0.44033  0.12768  1.0000 -0.1604609973
C   C13       1.0  0.62769  0.58442  0.21571  1.0000 -0.1604609973
C   C14       1.0  0.96966  0.45404  0.22512  1.0000 0.0218806373
C   C15       1.0  0.87019  0.38949  0.14663  1.0000 0.074288592
C   C16       1.0  0.90825  0.39928  0.17771  1.0000 0.0815361964
C   C17       1.0  0.79824  0.36939  0.08775  1.0000 -0.0355208613
C   C18       1.0  0.93355  0.44531  0.19680  1.0000 -0.2072921635
C   C19       1.0  0.76159  0.36024  0.05558  1.0000 0.6006025724
C   C20       1.0  0.98052  0.41793  0.23518  1.0000 0.0107792548
C   C21       1.0  0.83100  0.41646  0.09900  1.0000 -0.0888115627
C   C22       1.0  0.92069  0.36348  0.18706  1.0000 -0.1511490707
C   C23       1.0  0.83721  0.34166  0.13470  1.0000 -0.1511490707
C   C24       1.0  0.80199  0.33236  0.10590  1.0000 -0.0888115627
C   C25       1.0  0.86686  0.42653  0.12768  1.0000 -0.1604609973
C   C26       1.0  0.95673  0.37231  0.21571  1.0000 -0.1604609973
C   C27       1.0  0.48438  0.03034  0.22512  1.0000 0.0218806373
C   C28       1.0  0.51930  0.12981  0.14663  1.0000 0.074288592
C   C29       1.0  0.49103  0.09175  0.17771  1.0000 0.0815361964
C   C30       1.0  0.57115  0.20176  0.08775  1.0000 -0.0355208613
C   C31       1.0  0.51176  0.06645  0.19680  1.0000 -0.2072921635
C   C32       1.0  0.59865  0.23841  0.05558  1.0000 0.6006025724
C   C33       1.0  0.43741  0.01948  0.23518  1.0000 0.0107792548
C   C34       1.0  0.58546  0.16900  0.09900  1.0000 -0.0888115627
C   C35       1.0  0.44279  0.07931  0.18706  1.0000 -0.1511490707
C   C36       1.0  0.50445  0.16279  0.13470  1.0000 -0.1511490707
C   C37       1.0  0.53037  0.19801  0.10590  1.0000 -0.0888115627
C   C38       1.0  0.55967  0.13314  0.12768  1.0000 -0.1604609973
C   C39       1.0  0.41558  0.04327  0.21571  1.0000 -0.1604609973
C   C40       1.0  0.45404  0.48438  0.22512  1.0000 0.0218806373
C   C41       1.0  0.38949  0.51930  0.14663  1.0000 0.074288592
C   C42       1.0  0.39928  0.49103  0.17771  1.0000 0.0815361964
C   C43       1.0  0.36939  0.57115  0.08775  1.0000 -0.0342337314
C   C44       1.0  0.44531  0.51176  0.19680  1.0000 -0.2072921635
C   C45       1.0  0.36024  0.59865  0.05558  1.0000 0.6006025724
C   C46       1.0  0.41793  0.43741  0.23518  1.0000 0.0107792548
C   C47       1.0  0.41646  0.58546  0.09900  1.0000 -0.0888115627
C   C48       1.0  0.36348  0.44279  0.18706  1.0000 -0.1511490707
C   C49       1.0  0.34166  0.50445  0.13470  1.0000 -0.1511490707
C   C50       1.0  0.33236  0.53037  0.10590  1.0000 -0.0888115627
C   C51       1.0  0.42653  0.55967  0.12768  1.0000 -0.1604609973
C   C52       1.0  0.37231  0.41558  0.21571  1.0000 -0.1604609973
C   C53       1.0  0.03034  0.54596  0.22512  1.0000 0.0218806373
C   C54       1.0  0.12981  0.61051  0.14663  1.0000 0.074288592
C   C55       1.0  0.09175  0.60072  0.17771  1.0000 0.0815361964
C   C56       1.0  0.20176  0.63061  0.08775  1.0000 -0.0342337314
C   C57       1.0  0.06645  0.55469  0.19680  1.0000 -0.2072921635
C   C58       1.0  0.23841  0.63976  0.05558  1.0000 0.6006025724
C   C59       1.0  0.01948  0.58207  0.23518  1.0000 0.0107792548
C   C60       1.0  0.16900  0.58354  0.09900  1.0000 -0.0888115627
C   C61       1.0  0.07931  0.63652  0.18706  1.0000 -0.1511490707
C   C62       1.0  0.16279  0.65834  0.13470  1.0000 -0.1511490707
C   C63       1.0  0.19801  0.66764  0.10590  1.0000 -0.0888115627
C   C64       1.0  0.13314  0.57347  0.12768  1.0000 -0.1511490707
C   C65       1.0  0.04327  0.62769  0.21571  1.0000 -0.1604609973
C   C66       1.0  0.51562  0.96966  0.22512  1.0000 0.0218806373
C   C67       1.0  0.48070  0.87019  0.14663  1.0000 0.074288592
C   C68       1.0  0.50897  0.90825  0.17771  1.0000 0.0815361964
C   C69       1.0  0.42885  0.79824  0.08775  1.0000 -0.0342337314
C   C70       1.0  0.48824  0.93355  0.19680  1.0000 -0.2072921635
C   C71       1.0  0.40135  0.76159  0.05558  1.0000 0.6006025724
C   C72       1.0  0.56259  0.98052  0.23518  1.0000 0.0107792548
C   C73       1.0  0.41454  0.83100  0.09900  1.0000 -0.0888115627
C   C74       1.0  0.55721  0.92069  0.18706  1.0000 -0.1511490707
C   C75       1.0  0.49555  0.83721  0.13470  1.0000 -0.1511490707
C   C76       1.0  0.46963  0.80199  0.10590  1.0000 -0.0888115627
C   C77       1.0  0.44033  0.86686  0.12768  1.0000 -0.1604609973
C   C78       1.0  0.58442  0.95673  0.21571  1.0000 -0.1604609973
C   C79       1.0  0.03034  0.48438  0.27488  1.0000 0.0218806373
C   C80       1.0  0.12981  0.51930  0.35337  1.0000 0.074288592
C   C81       1.0  0.09175  0.49103  0.32229  1.0000 0.0815361964
C   C82       1.0  0.20176  0.57115  0.41225  1.0000 -0.0342337314
C   C83       1.0  0.06645  0.51176  0.30320  1.0000 -0.2072921635
C   C84       1.0  0.23841  0.59865  0.44442  1.0000 0.6006025724
C   C85       1.0  0.01948  0.43741  0.26482  1.0000 0.0107792548
C   C86       1.0  0.16900  0.58546  0.40100  1.0000 -0.0888115627
C   C87       1.0  0.07931  0.44279  0.31294  1.0000 -0.1511490707
C   C88       1.0  0.16279  0.50445  0.36530  1.0000 -0.1511490707
C   C89       1.0  0.19801  0.53037  0.39410  1.0000 -0.0888115627
C   C90       1.0  0.13314  0.55967  0.37232  1.0000 -0.1511490707
C   C91       1.0  0.04327  0.41558  0.28429  1.0000 -0.1604609973
C   C92       1.0  0.51562  0.54596  0.27488  1.0000 0.0218806373
C   C93       1.0  0.48070  0.61051  0.35337  1.0000 0.074288592
C   C94       1.0  0.50897  0.60072  0.32229  1.0000 0.0815361964
C   C95       1.0  0.42885  0.63061  0.41225  1.0000 -0.0342337314
C   C96       1.0  0.48824  0.55469  0.30320  1.0000 -0.2072921635
C   C97       1.0  0.40135  0.63976  0.44442  1.0000 0.6006025724
C   C98       1.0  0.56259  0.58207  0.26482  1.0000 0.0107792548
C   C99       1.0  0.41454  0.58354  0.40100  1.0000 -0.0888115627
C   C100      1.0  0.55721  0.63652  0.31294  1.0000 -0.1511490707
C   C101      1.0  0.49555  0.65834  0.36530  1.0000 -0.1511490707
C   C102      1.0  0.46963  0.66764  0.39410  1.0000 -0.0888115627
C   C103      1.0  0.44033  0.57347  0.37232  1.0000 -0.1511490707
C   C104      1.0  0.58442  0.62769  0.28429  1.0000 -0.1604609973
C   C105      1.0  0.45404  0.96966  0.27488  1.0000 0.0218806373
C   C106      1.0  0.38949  0.87019  0.35337  1.0000 0.074288592
C   C107      1.0  0.39928  0.90825  0.32229  1.0000 0.0815361964
C   C108      1.0  0.36939  0.79824  0.41225  1.0000 -0.0342337314
C   C109      1.0  0.44531  0.93355  0.30320  1.0000 -0.2072921635
C   C110      1.0  0.36024  0.76159  0.44442  1.0000 0.6006025724
C   C111      1.0  0.41793  0.98052  0.26482  1.0000 0.0107792548
C   C112      1.0  0.41646  0.83100  0.40100  1.0000 -0.0888115627
C   C113      1.0  0.36348  0.92069  0.31294  1.0000 -0.1511490707
C   C114      1.0  0.34166  0.83721  0.36530  1.0000 -0.1511490707
C   C115      1.0  0.33236  0.80199  0.39410  1.0000 -0.0888115627
C   C116      1.0  0.42653  0.86686  0.37232  1.0000 -0.1604609973
C   C117      1.0  0.37231  0.95673  0.28429  1.0000 -0.1604609973
C   C118      1.0  0.96966  0.51562  0.27488  1.0000 0.0218806373
C   C119      1.0  0.87019  0.48070  0.35337  1.0000 0.074288592
C   C120      1.0  0.90825  0.50897  0.32229  1.0000 0.0815361964
C   C121      1.0  0.79824  0.42885  0.41225  1.0000 -0.0342337314
C   C122      1.0  0.93355  0.48824  0.30320  1.0000 -0.2072921635
C   C123      1.0  0.76159  0.40135  0.44442  1.0000 0.6006025724
C   C124      1.0  0.98052  0.56259  0.26482  1.0000 0.0107792548
C   C125      1.0  0.83100  0.41454  0.40100  1.0000 -0.0888115627
C   C126      1.0  0.92069  0.55721  0.31294  1.0000 -0.1511490707
C   C127      1.0  0.83721  0.49555  0.36530  1.0000 -0.1511490707
C   C128      1.0  0.80199  0.46963  0.39410  1.0000 -0.0888115627
C   C129      1.0  0.86686  0.44033  0.37232  1.0000 -0.1604609973
C   C130      1.0  0.95673  0.58442  0.28429  1.0000 -0.1604609973
C   C131      1.0  0.48438  0.45404  0.27488  1.0000 0.0218806373
C   C132      1.0  0.51930  0.38949  0.35337  1.0000 0.074288592
C   C133      1.0  0.49103  0.39928  0.32229  1.0000 0.0815361964
C   C134      1.0  0.57115  0.36939  0.41225  1.0000 -0.0342337314
C   C135      1.0  0.51176  0.44531  0.30320  1.0000 -0.2072921635
C   C136      1.0  0.59865  0.36024  0.44442  1.0000 0.6006025724
C   C137      1.0  0.43741  0.41793  0.26482  1.0000 0.0107792548
C   C138      1.0  0.58546  0.41646  0.40100  1.0000 -0.0888115627
C   C139      1.0  0.44279  0.36348  0.31294  1.0000 -0.1511490707
C   C140      1.0  0.50445  0.34166  0.36530  1.0000 -0.1511490707
C   C141      1.0  0.53037  0.33236  0.39410  1.0000 -0.0888115627
C   C142      1.0  0.55967  0.42653  0.37232  1.0000 -0.1511490707
C   C143      1.0  0.41558  0.37231  0.28429  1.0000 -0.1604609973
C   C144      1.0  0.54596  0.03034  0.27488  1.0000 0.0218806373
C   C145      1.0  0.61051  0.12981  0.35337  1.0000 0.074288592
C   C146      1.0  0.60072  0.09175  0.32229  1.0000 0.0815361964
C   C147      1.0  0.63061  0.20176  0.41225  1.0000 -0.0342337314
C   C148      1.0  0.55469  0.06645  0.30320  1.0000 -0.2072921635
C   C149      1.0  0.63976  0.23841  0.44442  1.0000 0.6006025724
C   C150      1.0  0.58207  0.01948  0.26482  1.0000 0.0107792548
C   C151      1.0  0.58354  0.16900  0.40100  1.0000 -0.0888115627
C   C152      1.0  0.63652  0.07931  0.31294  1.0000 -0.1511490707
C   C153      1.0  0.65834  0.16279  0.36530  1.0000 -0.1511490707
C   C154      1.0  0.66764  0.19801  0.39410  1.0000 -0.0888115627
C   C155      1.0  0.57347  0.13314  0.37232  1.0000 -0.1604609973
C   C156      1.0  0.62769  0.04327  0.28429  1.0000 -0.1604609973
C   C157      1.0  0.45404  0.48438  0.77488  1.0000 0.0218806373
C   C158      1.0  0.38949  0.51930  0.85337  1.0000 0.074288592
C   C159      1.0  0.39928  0.49103  0.82229  1.0000 0.0815361964
C   C160      1.0  0.36939  0.57115  0.91225  1.0000 -0.0342337314
C   C161      1.0  0.44531  0.51176  0.80320  1.0000 -0.2072921635
C   C162      1.0  0.36024  0.59865  0.94442  1.0000 0.6006025724
C   C163      1.0  0.41793  0.43741  0.76482  1.0000 0.0107792548
C   C164      1.0  0.41646  0.58546  0.90100  1.0000 -0.0888115627
C   C165      1.0  0.36348  0.44279  0.81294  1.0000 -0.1511490707
C   C166      1.0  0.34166  0.50445  0.86530  1.0000 -0.1511490707
C   C167      1.0  0.33236  0.53037  0.89410  1.0000 -0.0888115627
C   C168      1.0  0.42653  0.55967  0.87232  1.0000 -0.1511490707
C   C169      1.0  0.37231  0.41558  0.78429  1.0000 -0.1604609973
C   C170      1.0  0.03034  0.54596  0.77488  1.0000 0.0218806373
C   C171      1.0  0.12981  0.61051  0.85337  1.0000 0.074288592
C   C172      1.0  0.09175  0.60072  0.82229  1.0000 0.0815361964
C   C173      1.0  0.20176  0.63061  0.91225  1.0000 -0.0342337314
C   C174      1.0  0.06645  0.55469  0.80320  1.0000 -0.2072921635
C   C175      1.0  0.23841  0.63976  0.94442  1.0000 0.6006025724
C   C176      1.0  0.01948  0.58207  0.76482  1.0000 0.0107792548
C   C177      1.0  0.16900  0.58354  0.90100  1.0000 -0.0888115627
C   C178      1.0  0.07931  0.63652  0.81294  1.0000 -0.1511490707
C   C179      1.0  0.16279  0.65834  0.86530  1.0000 -0.1511490707
C   C180      1.0  0.19801  0.66764  0.89410  1.0000 -0.0888115627
C   C181      1.0  0.13314  0.57347  0.87232  1.0000 -0.1511490707
C   C182      1.0  0.04327  0.62769  0.78429  1.0000 -0.1604609973
C   C183      1.0  0.51562  0.96966  0.77488  1.0000 0.0218806373
C   C184      1.0  0.48070  0.87019  0.85337  1.0000 0.074288592
C   C185      1.0  0.50897  0.90825  0.82229  1.0000 0.0815361964
C   C186      1.0  0.42885  0.79824  0.91225  1.0000 -0.0342337314
C   C187      1.0  0.48824  0.93355  0.80320  1.0000 -0.2072921635
C   C188      1.0  0.40135  0.76159  0.94442  1.0000 0.6006025724
C   C189      1.0  0.56259  0.98052  0.76482  1.0000 0.0107792548
C   C190      1.0  0.41454  0.83100  0.90100  1.0000 -0.0888115627
C   C191      1.0  0.55721  0.92069  0.81294  1.0000 -0.1511490707
C   C192      1.0  0.49555  0.83721  0.86530  1.0000 -0.1511490707
C   C193      1.0  0.46963  0.80199  0.89410  1.0000 -0.0888115627
C   C194      1.0  0.44033  0.86686  0.87232  1.0000 -0.1511490707
C   C195      1.0  0.58442  0.95673  0.78429  1.0000 -0.1604609973
C   C196      1.0  0.54596  0.51562  0.77488  1.0000 0.0218806373
C   C197      1.0  0.61051  0.48070  0.85337  1.0000 0.074288592
C   C198      1.0  0.60072  0.50897  0.82229  1.0000 0.0815361964
C   C199      1.0  0.63061  0.42885  0.91225  1.0000 -0.0342337314
C   C200      1.0  0.55469  0.48824  0.80320  1.0000 -0.2072921635
C   C201      1.0  0.63976  0.40135  0.94442  1.0000 0.6006025724
C   C202      1.0  0.58207  0.56259  0.76482  1.0000 0.0107792548
C   C203      1.0  0.58354  0.41454  0.90100  1.0000 -0.0888115627
C   C204      1.0  0.63652  0.55721  0.81294  1.0000 -0.1511490707
C   C205      1.0  0.65834  0.49555  0.86530  1.0000 -0.1511490707
C   C206      1.0  0.66764  0.46963  0.89410  1.0000 -0.0888115627
C   C207      1.0  0.57347  0.44033  0.87232  1.0000 -0.1511490707
C   C208      1.0  0.62769  0.58442  0.78429  1.0000 -0.1604609973
C   C209      1.0  0.96966  0.45404  0.77488  1.0000 0.0218806373
C   C210      1.0  0.87019  0.38949  0.85337  1.0000 0.074288592
C   C211      1.0  0.90825  0.39928  0.82229  1.0000 0.0815361964
C   C212      1.0  0.79824  0.36939  0.91225  1.0000 -0.0342337314
C   C213      1.0  0.93355  0.44531  0.80320  1.0000 -0.2072921635
C   C214      1.0  0.76159  0.36024  0.94442  1.0000 0.6006025724
C   C215      1.0  0.98052  0.41793  0.76482  1.0000 0.0107792548
C   C216      1.0  0.83100  0.41646  0.90100  1.0000 -0.0888115627
C   C217      1.0  0.92069  0.36348  0.81294  1.0000 -0.1511490707
C   C218      1.0  0.83721  0.34166  0.86530  1.0000 -0.1511490707
C   C219      1.0  0.80199  0.33236  0.89410  1.0000 -0.0888115627
C   C220      1.0  0.86686  0.42653  0.87232  1.0000 -0.1511490707
C   C221      1.0  0.95673  0.37231  0.78429  1.0000 -0.1604609973
C   C222      1.0  0.48438  0.03034  0.77488  1.0000 0.0218806373
C   C223      1.0  0.51930  0.12981  0.85337  1.0000 0.074288592
C   C224      1.0  0.49103  0.09175  0.82229  1.0000 0.0815361964
C   C225      1.0  0.57115  0.20176  0.91225  1.0000 -0.0342337314
C   C226      1.0  0.51176  0.06645  0.80320  1.0000 -0.2072921635
C   C227      1.0  0.59865  0.23841  0.94442  1.0000 0.6006025724
C   C228      1.0  0.43741  0.01948  0.76482  1.0000 0.0107792548
C   C229      1.0  0.58546  0.16900  0.90100  1.0000 -0.0888115627
C   C230      1.0  0.44279  0.07931  0.81294  1.0000 -0.1511490707
C   C231      1.0  0.50445  0.16279  0.86530  1.0000 -0.1511490707
C   C232      1.0  0.53037  0.19801  0.89410  1.0000 -0.0888115627
C   C233      1.0  0.55967  0.13314  0.87232  1.0000 -0.1511490707
C   C234      1.0  0.41558  0.04327  0.78429  1.0000 -0.1604609973
C   C235      1.0  0.96966  0.51562  0.72512  1.0000 0.0218806373
C   C236      1.0  0.87019  0.48070  0.64663  1.0000 0.074288592
C   C237      1.0  0.90825  0.50897  0.67771  1.0000 0.0815361964
C   C238      1.0  0.79824  0.42885  0.58775  1.0000 -0.0342337314
C   C239      1.0  0.93355  0.48824  0.69680  1.0000 -0.2072921635
C   C240      1.0  0.76159  0.40135  0.55558  1.0000 0.6006025724
C   C241      1.0  0.98052  0.56259  0.73518  1.0000 0.0107792548
C   C242      1.0  0.83100  0.41454  0.59900  1.0000 -0.0888115627
C   C243      1.0  0.92069  0.55721  0.68706  1.0000 -0.1511490707
C   C244      1.0  0.83721  0.49555  0.63470  1.0000 -0.1448939688
C   C245      1.0  0.80199  0.46963  0.60590  1.0000 -0.0888115627
C   C246      1.0  0.86686  0.44033  0.62768  1.0000 -0.1604609973
C   C247      1.0  0.95673  0.58442  0.71571  1.0000 -0.1604609973
C   C248      1.0  0.48438  0.45404  0.72512  1.0000 0.0218806373
C   C249      1.0  0.51930  0.38949  0.64663  1.0000 0.074288592
C   C250      1.0  0.49103  0.39928  0.67771  1.0000 0.0815361964
C   C251      1.0  0.57115  0.36939  0.58775  1.0000 -0.0342337314
C   C252      1.0  0.51176  0.44531  0.69680  1.0000 -0.2072921635
C   C253      1.0  0.59865  0.36024  0.55558  1.0000 0.6006025724
C   C254      1.0  0.43741  0.41793  0.73518  1.0000 0.0107792548
C   C255      1.0  0.58546  0.41646  0.59900  1.0000 -0.0888115627
C   C256      1.0  0.44279  0.36348  0.68706  1.0000 -0.1511490707
C   C257      1.0  0.50445  0.34166  0.63470  1.0000 -0.1448939688
C   C258      1.0  0.53037  0.33236  0.60590  1.0000 -0.0888115627
C   C259      1.0  0.55967  0.42653  0.62768  1.0000 -0.1604609973
C   C260      1.0  0.41558  0.37231  0.71571  1.0000 -0.1604609973
C   C261      1.0  0.54596  0.03034  0.72512  1.0000 0.0218806373
C   C262      1.0  0.61051  0.12981  0.64663  1.0000 0.074288592
C   C263      1.0  0.60072  0.09175  0.67771  1.0000 0.0815361964
C   C264      1.0  0.63061  0.20176  0.58775  1.0000 -0.0342337314
C   C265      1.0  0.55469  0.06645  0.69680  1.0000 -0.2072921635
C   C266      1.0  0.63976  0.23841  0.55558  1.0000 0.6006025724
C   C267      1.0  0.58207  0.01948  0.73518  1.0000 0.0107792548
C   C268      1.0  0.58354  0.16900  0.59900  1.0000 -0.0888115627
C   C269      1.0  0.63652  0.07931  0.68706  1.0000 -0.1511490707
C   C270      1.0  0.65834  0.16279  0.63470  1.0000 -0.1448939688
C   C271      1.0  0.66764  0.19801  0.60590  1.0000 -0.0888115627
C   C272      1.0  0.57347  0.13314  0.62768  1.0000 -0.1604609973
C   C273      1.0  0.62769  0.04327  0.71571  1.0000 -0.1604609973
C   C274      1.0  0.03034  0.48438  0.72512  1.0000 0.0218806373
C   C275      1.0  0.12981  0.51930  0.64663  1.0000 0.074288592
C   C276      1.0  0.09175  0.49103  0.67771  1.0000 0.0815361964
C   C277      1.0  0.20176  0.57115  0.58775  1.0000 -0.0342337314
C   C278      1.0  0.06645  0.51176  0.69680  1.0000 -0.2072921635
C   C279      1.0  0.23841  0.59865  0.55558  1.0000 0.6006025724
C   C280      1.0  0.01948  0.43741  0.73518  1.0000 0.0107792548
C   C281      1.0  0.16900  0.58546  0.59900  1.0000 -0.0888115627
C   C282      1.0  0.07931  0.44279  0.68706  1.0000 -0.1511490707
C   C283      1.0  0.16279  0.50445  0.63470  1.0000 -0.1511490707
C   C284      1.0  0.19801  0.53037  0.60590  1.0000 -0.0888115627
C   C285      1.0  0.13314  0.55967  0.62768  1.0000 -0.1511490707
C   C286      1.0  0.04327  0.41558  0.71571  1.0000 -0.1604609973
C   C287      1.0  0.51562  0.54596  0.72512  1.0000 0.0218806373
C   C288      1.0  0.48070  0.61051  0.64663  1.0000 0.074288592
C   C289      1.0  0.50897  0.60072  0.67771  1.0000 0.0815361964
C   C290      1.0  0.42885  0.63061  0.58775  1.0000 -0.0342337314
C   C291      1.0  0.48824  0.55469  0.69680  1.0000 -0.2072921635
C   C292      1.0  0.40135  0.63976  0.55558  1.0000 0.6006025724
C   C293      1.0  0.56259  0.58207  0.73518  1.0000 0.0107792548
C   C294      1.0  0.41454  0.58354  0.59900  1.0000 -0.0888115627
C   C295      1.0  0.55721  0.63652  0.68706  1.0000 -0.1511490707
C   C296      1.0  0.49555  0.65834  0.63470  1.0000 -0.1448939688
C   C297      1.0  0.46963  0.66764  0.60590  1.0000 -0.0888115627
C   C298      1.0  0.44033  0.57347  0.62768  1.0000 -0.1604609973
C   C299      1.0  0.58442  0.62769  0.71571  1.0000 -0.1604609973
C   C300      1.0  0.45404  0.96966  0.72512  1.0000 0.0218806373
C   C301      1.0  0.38949  0.87019  0.64663  1.0000 0.074288592
C   C302      1.0  0.39928  0.90825  0.67771  1.0000 0.0815361964
C   C303      1.0  0.36939  0.79824  0.58775  1.0000 -0.0342337314
C   C304      1.0  0.44531  0.93355  0.69680  1.0000 -0.2072921635
C   C305      1.0  0.36024  0.76159  0.55558  1.0000 0.6006025724
C   C306      1.0  0.41793  0.98052  0.73518  1.0000 0.0107792548
C   C307      1.0  0.41646  0.83100  0.59900  1.0000 -0.0888115627
C   C308      1.0  0.36348  0.92069  0.68706  1.0000 -0.1511490707
C   C309      1.0  0.34166  0.83721  0.63470  1.0000 -0.1511490707
C   C310      1.0  0.33236  0.80199  0.60590  1.0000 -0.0888115627
C   C311      1.0  0.42653  0.86686  0.62768  1.0000 -0.1604609973
C   C312      1.0  0.37231  0.95673  0.71571  1.0000 -0.1604609973
C   C313      1.0  0.50000  0.50000  0.25000  1.0000 0.0280078227
C   C314      1.0  0.00000  0.50000  0.25000  1.0000 0.0280078227
C   C315      1.0  0.50000  0.00000  0.25000  1.0000 0.0280078227
C   C316      1.0  0.50000  0.50000  0.75000  1.0000 0.0280078227
C   C317      1.0  0.00000  0.50000  0.75000  1.0000 0.0280078227
C   C318      1.0  0.50000  0.00000  0.75000  1.0000 0.0280078227
O   O1        1.0  0.60453  0.36229  0.04238  1.0000 -0.5259831719
O   O2        1.0  0.68364  0.42056  0.04317  1.0000 -0.5387837785
O   O3        1.0  0.75776  0.39547  0.04238  1.0000 -0.5259831719
O   O4        1.0  0.73692  0.31636  0.04317  1.0000 -0.5387837785
O   O5        1.0  0.63771  0.24224  0.04238  1.0000 -0.5259831719
O   O6        1.0  0.57944  0.26308  0.04317  1.0000 -0.5387837785
O   O7        1.0  0.39547  0.63771  0.04238  1.0000 -0.5259831719
O   O8        1.0  0.31636  0.57944  0.04317  1.0000 -0.5387837785
O   O9        1.0  0.24224  0.60453  0.04238  1.0000 -0.5259831719
O   O10       1.0  0.26308  0.68364  0.04317  1.0000 -0.5387837785
O   O11       1.0  0.36229  0.75776  0.04238  1.0000 -0.5259831719
O   O12       1.0  0.42056  0.73692  0.04317  1.0000 -0.5387837785
O   O13       1.0  0.24224  0.63771  0.45762  1.0000 -0.5259831719
O   O14       1.0  0.26308  0.57944  0.45683  1.0000 -0.5387837785
O   O15       1.0  0.36229  0.60453  0.45762  1.0000 -0.5259831719
O   O16       1.0  0.42056  0.68364  0.45683  1.0000 -0.5387837785
O   O17       1.0  0.39547  0.75776  0.45762  1.0000 -0.5259831719
O   O18       1.0  0.31636  0.73692  0.45683  1.0000 -0.5387837785
O   O19       1.0  0.75776  0.36229  0.45762  1.0000 -0.5259831719
O   O20       1.0  0.73692  0.42056  0.45683  1.0000 -0.5387837785
O   O21       1.0  0.63771  0.39547  0.45762  1.0000 -0.5259831719
O   O22       1.0  0.57944  0.31636  0.45683  1.0000 -0.5387837785
O   O23       1.0  0.60453  0.24224  0.45762  1.0000 -0.5259831719
O   O24       1.0  0.68364  0.26308  0.45683  1.0000 -0.5387837785
O   O25       1.0  0.39547  0.63771  0.95762  1.0000 -0.5259831719
O   O26       1.0  0.31636  0.57944  0.95683  1.0000 -0.5387837785
O   O27       1.0  0.24224  0.60453  0.95762  1.0000 -0.5259831719
O   O28       1.0  0.26308  0.68364  0.95683  1.0000 -0.5387837785
O   O29       1.0  0.36229  0.75776  0.95762  1.0000 -0.5259831719
O   O30       1.0  0.42056  0.73692  0.95683  1.0000 -0.5387837785
O   O31       1.0  0.60453  0.36229  0.95762  1.0000 -0.5259831719
O   O32       1.0  0.68364  0.42056  0.95683  1.0000 -0.5387837785
O   O33       1.0  0.75776  0.39547  0.95762  1.0000 -0.5259831719
O   O34       1.0  0.73692  0.31636  0.95683  1.0000 -0.5387837785
O   O35       1.0  0.63771  0.24224  0.95762  1.0000 -0.5259831719
O   O36       1.0  0.57944  0.26308  0.95683  1.0000 -0.5387837785
O   O37       1.0  0.75776  0.36229  0.54238  1.0000 -0.5259831719
O   O38       1.0  0.73692  0.42056  0.54317  1.0000 -0.5387837785
O   O39       1.0  0.63771  0.39547  0.54238  1.0000 -0.5259831719
O   O40       1.0  0.57944  0.31636  0.54317  1.0000 -0.5387837785
O   O41       1.0  0.60453  0.24224  0.54238  1.0000 -0.5259831719
O   O42       1.0  0.68364  0.26308  0.54317  1.0000 -0.5387837785
O   O43       1.0  0.24224  0.63771  0.54238  1.0000 -0.5259831719
O   O44       1.0  0.26308  0.57944  0.54317  1.0000 -0.5387837785
O   O45       1.0  0.36229  0.60453  0.54238  1.0000 -0.5259831719
O   O46       1.0  0.42056  0.68364  0.54317  1.0000 -0.5387837785
O   O47       1.0  0.39547  0.75776  0.54238  1.0000 -0.5259831719
O   O48       1.0  0.31636  0.73692  0.54317  1.0000 -0.5387837785
O   O49       1.0  0.66667  0.33333  0.00000  1.0000 -0.9201957382
O   O50       1.0  0.33333  0.66667  0.00000  1.0000 -0.9201957382
O   O51       1.0  0.33333  0.66667  0.50000  1.0000 -0.9201957382
O   O52       1.0  0.66667  0.33333  0.50000  1.0000 -0.9201957382
