# DDEC6 charges by PACMAN v1.1 (https://github.com/mtap-research/PACMAN-charge/)
data_2019[Gd][esg]3[ASR]1
_chemical_formula_sum              "Gd4 H60 C108 O24"
_cell_length_a       17.5322
_cell_length_b       17.5322
_cell_length_c       28.2415
_cell_angle_alpha    72.8593
_cell_angle_beta     107.141
_cell_angle_gamma    148.178

_symmetry_space_group_name_H-M    "P 1"
_symmetry_Int_Tables_number       1

loop_
  _symmetry_equiv_pos_as_xyz
  'x, y, z'

loop_
  _atom_site_type_symbol
  _atom_site_label
  _atom_site_symmetry_multiplicity
  _atom_site_fract_x
  _atom_site_fract_y
  _atom_site_fract_z
  _atom_site_occupancy
  _atom_site_charge
Gd  Gd1       1.0  0.43275  0.32973  0.50364  1.0000 2.0359736651
Gd  Gd2       1.0  0.32973  0.43275  0.99636  1.0000 2.0359736651
Gd  Gd3       1.0  0.56725  0.67027  0.49636  1.0000 2.0359736651
Gd  Gd4       1.0  0.67027  0.56725  0.00364  1.0000 2.0359736651
H   H1        1.0  0.74105  0.56029  0.44860  1.0000 0.1297976262
H   H2        1.0  0.89294  0.62972  0.40707  1.0000 0.1085979683
H   H3        1.0  0.08385  0.00381  0.35147  1.0000 0.1085979683
H   H4        1.0  0.93286  0.93516  0.39275  1.0000 0.1217609398
H   H5        1.0  0.57700  0.95432  0.37893  1.0000 0.1217609398
H   H6        1.0  0.49227  0.01239  0.34015  1.0000 0.1085979683
H   H7        1.0  0.11721  0.64293  0.40600  1.0000 0.1085979683
H   H8        1.0  0.20288  0.58564  0.44446  1.0000 0.1217609398
H   H9        1.0  0.18083  0.14077  0.13122  1.0000 0.1085979683
H   H10       1.0  0.10546  0.00098  0.20691  1.0000 0.1034993813
H   H11       1.0  0.48188  0.19072  0.23494  1.0000 0.1085979683
H   H12       1.0  0.55474  0.32756  0.15835  1.0000 0.1297976262
H   H13       1.0  0.11450  0.97642  0.28859  1.0000 0.1034993813
H   H14       1.0  0.12109  0.77653  0.40184  1.0000 0.1085979683
H   H15       1.0  0.34820  0.98280  0.28292  1.0000 0.1085979683
H   H16       1.0  0.56029  0.74105  0.05140  1.0000 0.1297976262
H   H17       1.0  0.62972  0.89294  0.09293  1.0000 0.1085979683
H   H18       1.0  0.00381  0.08385  0.14853  1.0000 0.1085979683
H   H19       1.0  0.93516  0.93286  0.10725  1.0000 0.1217609398
H   H20       1.0  0.95432  0.57700  0.12107  1.0000 0.1217609398
H   H21       1.0  0.01239  0.49227  0.15985  1.0000 0.1085979683
H   H22       1.0  0.64293  0.11721  0.09400  1.0000 0.1085979683
H   H23       1.0  0.58564  0.20288  0.05554  1.0000 0.1217609398
H   H24       1.0  0.14077  0.18083  0.36878  1.0000 0.1085979683
H   H25       1.0  0.00098  0.10546  0.29309  1.0000 0.1034993813
H   H26       1.0  0.19072  0.48188  0.26506  1.0000 0.1085979683
H   H27       1.0  0.32756  0.55474  0.34165  1.0000 0.1297976262
H   H28       1.0  0.97642  0.11450  0.21141  1.0000 0.1085979683
H   H29       1.0  0.77653  0.12109  0.09816  1.0000 0.1085979683
H   H30       1.0  0.98280  0.34820  0.21708  1.0000 0.1085979683
H   H31       1.0  0.25895  0.43971  0.55140  1.0000 0.1297976262
H   H32       1.0  0.10706  0.37028  0.59293  1.0000 0.1085979683
H   H33       1.0  0.91615  0.99619  0.64853  1.0000 0.1085979683
H   H34       1.0  0.06714  0.06484  0.60725  1.0000 0.1217609398
H   H35       1.0  0.42300  0.04568  0.62107  1.0000 0.1217609398
H   H36       1.0  0.50773  0.98761  0.65985  1.0000 0.1085979683
H   H37       1.0  0.88279  0.35707  0.59400  1.0000 0.1085979683
H   H38       1.0  0.79712  0.41436  0.55554  1.0000 0.1217609398
H   H39       1.0  0.81917  0.85923  0.86878  1.0000 0.1085979683
H   H40       1.0  0.89454  0.99902  0.79309  1.0000 0.1034993813
H   H41       1.0  0.51812  0.80928  0.76506  1.0000 0.1085979683
H   H42       1.0  0.44526  0.67244  0.84165  1.0000 0.1297976262
H   H43       1.0  0.88550  0.02358  0.71141  1.0000 0.1085979683
H   H44       1.0  0.87891  0.22347  0.59816  1.0000 0.1085979683
H   H45       1.0  0.65180  0.01720  0.71708  1.0000 0.1085979683
H   H46       1.0  0.43971  0.25895  0.94860  1.0000 0.1297976262
H   H47       1.0  0.37028  0.10706  0.90707  1.0000 0.1085979683
H   H48       1.0  0.99619  0.91615  0.85147  1.0000 0.1085979683
H   H49       1.0  0.06484  0.06714  0.89275  1.0000 0.1217609398
H   H50       1.0  0.04568  0.42300  0.87893  1.0000 0.1217609398
H   H51       1.0  0.98761  0.50773  0.84015  1.0000 0.1085979683
H   H52       1.0  0.35707  0.88279  0.90600  1.0000 0.1085979683
H   H53       1.0  0.41436  0.79712  0.94446  1.0000 0.1297976262
H   H54       1.0  0.85923  0.81917  0.63122  1.0000 0.1085979683
H   H55       1.0  0.99902  0.89454  0.70691  1.0000 0.1034993813
H   H56       1.0  0.80928  0.51812  0.73494  1.0000 0.1085979683
H   H57       1.0  0.67244  0.44526  0.65835  1.0000 0.1297976262
H   H58       1.0  0.02358  0.88550  0.78859  1.0000 0.1085979683
H   H59       1.0  0.22347  0.87891  0.90184  1.0000 0.1085979683
H   H60       1.0  0.01720  0.65180  0.78292  1.0000 0.1085979683
C   C1        1.0  0.72371  0.69769  0.45000  1.0000 0.6247468561
C   C2        1.0  0.82018  0.73962  0.42412  1.0000 -0.020436228
C   C3        1.0  0.81024  0.65016  0.42867  1.0000 -0.089402639
C   C4        1.0  0.90135  0.69205  0.40412  1.0000 -0.1506636023
C   C5        1.0  0.00530  0.82490  0.37510  1.0000 0.0785035263
C   C6        1.0  0.01438  0.91362  0.37120  1.0000 -0.1579340372
C   C7        1.0  0.92414  0.87266  0.39551  1.0000 -0.089402639
C   C8        1.0  0.45730  0.73170  0.44343  1.0000 0.5635134548
C   C9        1.0  0.39934  0.76506  0.41605  1.0000 -0.020436228
C   C10       1.0  0.48358  0.89102  0.38469  1.0000 -0.089402639
C   C11       1.0  0.43311  0.92569  0.36163  1.0000 -0.1579340372
C   C12       1.0  0.29625  0.83475  0.36954  1.0000 0.0732454426
C   C13       1.0  0.21131  0.70729  0.40051  1.0000 -0.1579340372
C   C14       1.0  0.26233  0.67307  0.42343  1.0000 -0.089402639
C   C15       1.0  0.42119  0.33761  0.08817  1.0000 0.6456341714
C   C16       1.0  0.37550  0.24890  0.13746  1.0000 -0.020436228
C   C17       1.0  0.24215  0.15085  0.15227  1.0000 -0.0970408872
C   C18       1.0  0.19715  0.06745  0.19730  1.0000 -0.1579340372
C   C19       1.0  0.28509  0.07991  0.22877  1.0000 0.0732454426
C   C20       1.0  0.41967  0.17933  0.21378  1.0000 -0.1506636023
C   C21       1.0  0.46375  0.26185  0.16837  1.0000 -0.089402639
C   C22       1.0  0.23783  0.99237  0.27760  1.0000 0.0854962644
C   C23       1.0  0.14675  0.94985  0.30305  1.0000 -0.2070140421
C   C24       1.0  0.10256  0.86944  0.34918  1.0000 0.0785035263
C   C25       1.0  0.15102  0.83158  0.37042  1.0000 -0.2027813188
C   C26       1.0  0.24337  0.87363  0.34594  1.0000 0.0854962644
C   C27       1.0  0.28562  0.95378  0.29970  1.0000 -0.2027813188
C   C28       1.0  0.69769  0.72371  0.05000  1.0000 0.6247468561
C   C29       1.0  0.73962  0.82018  0.07588  1.0000 -0.020436228
C   C30       1.0  0.65016  0.81024  0.07133  1.0000 -0.089402639
C   C31       1.0  0.69205  0.90135  0.09588  1.0000 -0.1506636023
C   C32       1.0  0.82490  0.00530  0.12490  1.0000 0.0785035263
C   C33       1.0  0.91362  0.01438  0.12880  1.0000 -0.1579340372
C   C34       1.0  0.87266  0.92414  0.10449  1.0000 -0.089402639
C   C35       1.0  0.73170  0.45730  0.05657  1.0000 0.5635134548
C   C36       1.0  0.76506  0.39934  0.08395  1.0000 -0.020436228
C   C37       1.0  0.89102  0.48358  0.11531  1.0000 -0.089402639
C   C38       1.0  0.92569  0.43311  0.13837  1.0000 -0.1579340372
C   C39       1.0  0.83475  0.29625  0.13046  1.0000 0.0732454426
C   C40       1.0  0.70729  0.21131  0.09949  1.0000 -0.1579340372
C   C41       1.0  0.67307  0.26233  0.07657  1.0000 -0.089402639
C   C42       1.0  0.33761  0.42119  0.41183  1.0000 0.6456341714
C   C43       1.0  0.24890  0.37550  0.36254  1.0000 -0.020436228
C   C44       1.0  0.15085  0.24215  0.34773  1.0000 -0.0970408872
C   C45       1.0  0.06745  0.19715  0.30270  1.0000 -0.1579340372
C   C46       1.0  0.07991  0.28509  0.27123  1.0000 0.0732454426
C   C47       1.0  0.17933  0.41967  0.28622  1.0000 -0.1506636023
C   C48       1.0  0.26185  0.46375  0.33163  1.0000 -0.089402639
C   C49       1.0  0.99237  0.23783  0.22240  1.0000 0.0854962644
C   C50       1.0  0.94985  0.14675  0.19695  1.0000 -0.2070140421
C   C51       1.0  0.86944  0.10256  0.15082  1.0000 0.0785035263
C   C52       1.0  0.83158  0.15102  0.12958  1.0000 -0.2027813188
C   C53       1.0  0.87363  0.24337  0.15406  1.0000 0.0854962644
C   C54       1.0  0.95378  0.28562  0.20030  1.0000 -0.2027813188
C   C55       1.0  0.27629  0.30231  0.55000  1.0000 0.6252623171
C   C56       1.0  0.17982  0.26038  0.57588  1.0000 -0.020436228
C   C57       1.0  0.18976  0.34984  0.57133  1.0000 -0.089402639
C   C58       1.0  0.09865  0.30795  0.59588  1.0000 -0.1506636023
C   C59       1.0  0.99470  0.17510  0.62490  1.0000 0.0785035263
C   C60       1.0  0.98562  0.08638  0.62880  1.0000 -0.1579340372
C   C61       1.0  0.07586  0.12734  0.60449  1.0000 -0.089402639
C   C62       1.0  0.54270  0.26830  0.55657  1.0000 0.5635134548
C   C63       1.0  0.60066  0.23494  0.58395  1.0000 -0.020436228
C   C64       1.0  0.51642  0.10898  0.61531  1.0000 -0.089402639
C   C65       1.0  0.56689  0.07431  0.63837  1.0000 -0.1579340372
C   C66       1.0  0.70375  0.16525  0.63046  1.0000 0.0732454426
C   C67       1.0  0.78869  0.29271  0.59949  1.0000 -0.1579340372
C   C68       1.0  0.73767  0.32693  0.57657  1.0000 -0.089402639
C   C69       1.0  0.57881  0.66239  0.91183  1.0000 0.6456341714
C   C70       1.0  0.62450  0.75110  0.86254  1.0000 -0.020436228
C   C71       1.0  0.75785  0.84915  0.84773  1.0000 -0.0970408872
C   C72       1.0  0.80285  0.93255  0.80270  1.0000 -0.1579340372
C   C73       1.0  0.71491  0.92009  0.77123  1.0000 0.0785035263
C   C74       1.0  0.58033  0.82067  0.78622  1.0000 -0.1506636023
C   C75       1.0  0.53625  0.73815  0.83163  1.0000 -0.089402639
C   C76       1.0  0.76217  0.00763  0.72240  1.0000 0.0854962644
C   C77       1.0  0.85325  0.05015  0.69695  1.0000 -0.2070140421
C   C78       1.0  0.89744  0.13056  0.65082  1.0000 0.0785035263
C   C79       1.0  0.84898  0.16842  0.62958  1.0000 -0.2027813188
C   C80       1.0  0.75663  0.12637  0.65406  1.0000 0.0854962644
C   C81       1.0  0.71438  0.04622  0.70030  1.0000 -0.2027813188
C   C82       1.0  0.30231  0.27629  0.95000  1.0000 0.6247468561
C   C83       1.0  0.26038  0.17982  0.92412  1.0000 -0.020436228
C   C84       1.0  0.34984  0.18976  0.92867  1.0000 -0.089402639
C   C85       1.0  0.30795  0.09865  0.90412  1.0000 -0.1506636023
C   C86       1.0  0.17510  0.99470  0.87510  1.0000 0.0732454426
C   C87       1.0  0.08638  0.98562  0.87120  1.0000 -0.1579340372
C   C88       1.0  0.12734  0.07586  0.89551  1.0000 -0.089402639
C   C89       1.0  0.26830  0.54270  0.94343  1.0000 0.5651967496
C   C90       1.0  0.23494  0.60066  0.91605  1.0000 -0.020436228
C   C91       1.0  0.10898  0.51642  0.88469  1.0000 -0.0847183123
C   C92       1.0  0.07431  0.56689  0.86163  1.0000 -0.1579340372
C   C93       1.0  0.16525  0.70375  0.86954  1.0000 0.0732454426
C   C94       1.0  0.29271  0.78869  0.90051  1.0000 -0.1579340372
C   C95       1.0  0.32693  0.73767  0.92343  1.0000 -0.089402639
C   C96       1.0  0.66239  0.57881  0.58817  1.0000 0.6456341714
C   C97       1.0  0.75110  0.62450  0.63746  1.0000 -0.020436228
C   C98       1.0  0.84915  0.75785  0.65227  1.0000 -0.0970408872
C   C99       1.0  0.93255  0.80285  0.69730  1.0000 -0.1579340372
C   C100      1.0  0.92009  0.71491  0.72877  1.0000 0.0785035263
C   C101      1.0  0.82067  0.58033  0.71378  1.0000 -0.1506636023
C   C102      1.0  0.73815  0.53625  0.66837  1.0000 -0.089402639
C   C103      1.0  0.00763  0.76217  0.77760  1.0000 0.0854962644
C   C104      1.0  0.05015  0.85325  0.80305  1.0000 -0.2070140421
C   C105      1.0  0.13056  0.89744  0.84918  1.0000 0.0785035263
C   C106      1.0  0.16842  0.84898  0.87042  1.0000 -0.2027813188
C   C107      1.0  0.12637  0.75663  0.84594  1.0000 0.0854962644
C   C108      1.0  0.04622  0.71438  0.79970  1.0000 -0.2027813188
O   O1        1.0  0.62136  0.57204  0.47230  1.0000 -0.728491205
O   O2        1.0  0.74718  0.78842  0.44920  1.0000 -0.603549543
O   O3        1.0  0.38588  0.62652  0.47632  1.0000 -0.6475595117
O   O4        1.0  0.57751  0.81149  0.43354  1.0000 -0.6308449239
O   O5        1.0  0.54356  0.42664  0.07663  1.0000 -0.6160242388
O   O6        1.0  0.33110  0.31450  0.06241  1.0000 -0.676775831
O   O7        1.0  0.57204  0.62136  0.02770  1.0000 -0.728491205
O   O8        1.0  0.78842  0.74718  0.05080  1.0000 -0.603549543
O   O9        1.0  0.62652  0.38588  0.02368  1.0000 -0.6475595117
O   O10       1.0  0.81149  0.57751  0.06646  1.0000 -0.6308449239
O   O11       1.0  0.42664  0.54356  0.42337  1.0000 -0.6160242388
O   O12       1.0  0.31450  0.33110  0.43759  1.0000 -0.676775831
O   O13       1.0  0.37864  0.42796  0.52770  1.0000 -0.728491205
O   O14       1.0  0.25282  0.21158  0.55080  1.0000 -0.603549543
O   O15       1.0  0.61412  0.37348  0.52368  1.0000 -0.6475595117
O   O16       1.0  0.42249  0.18851  0.56646  1.0000 -0.6308449239
O   O17       1.0  0.45644  0.57336  0.92337  1.0000 -0.6145824224
O   O18       1.0  0.66890  0.68550  0.93759  1.0000 -0.676775831
O   O19       1.0  0.42796  0.37864  0.97230  1.0000 -0.728491205
O   O20       1.0  0.21158  0.25282  0.94920  1.0000 -0.603549543
O   O21       1.0  0.37348  0.61412  0.97632  1.0000 -0.6475595117
O   O22       1.0  0.18851  0.42249  0.93354  1.0000 -0.6308449239
O   O23       1.0  0.57336  0.45644  0.57663  1.0000 -0.6160242388
O   O24       1.0  0.68550  0.66890  0.56241  1.0000 -0.676775831
