# DDEC6 charges by PACMAN v1.1 (https://github.com/mtap-research/PACMAN-charge/)
data_2019[Co][hex]3[ASR]3
_chemical_formula_sum              "Co6 H36 C56 N8 O24"
_cell_length_a       16.3934
_cell_length_b       16.3934
_cell_length_c       18.028
_cell_angle_alpha    62.6837
_cell_angle_beta     117.316
_cell_angle_gamma    145.963

_symmetry_space_group_name_H-M    "P 1"
_symmetry_Int_Tables_number       1

loop_
  _symmetry_equiv_pos_as_xyz
  'x, y, z'

loop_
  _atom_site_type_symbol
  _atom_site_label
  _atom_site_symmetry_multiplicity
  _atom_site_fract_x
  _atom_site_fract_y
  _atom_site_fract_z
  _atom_site_occupancy
  _atom_site_charge
Co  Co1       1.0  0.44540  0.19534  0.39745  1.0000 0.8822918568
Co  Co2       1.0  0.19534  0.44540  0.10255  1.0000 0.8822918568
Co  Co3       1.0  0.55460  0.80466  0.60255  1.0000 0.8822918568
Co  Co4       1.0  0.80466  0.55460  0.89745  1.0000 0.8822918568
Co  Co5       1.0  0.50000  0.00000  0.50000  1.0000 1.0881199423
Co  Co6       1.0  0.00000  0.50000  0.00000  1.0000 1.0881199423
H   H1        1.0  0.21860  0.10380  0.43510  1.0000 0.3086485449
H   H2        1.0  0.20220  0.18520  0.43010  1.0000 0.3194562603
H   H3        1.0  0.35610  0.24330  0.20830  1.0000 0.129778766
H   H4        1.0  0.17330  0.96670  0.18200  1.0000 0.1086116299
H   H5        1.0  0.04980  0.85080  0.06660  1.0000 0.1086116299
H   H6        1.0  0.26880  0.78680  0.15010  1.0000 0.129778766
H   H7        1.0  0.38420  0.89300  0.26800  1.0000 0.129778766
H   H8        1.0  0.18170  0.70530  0.41320  1.0000 0.1202209327
H   H9        1.0  0.93870  0.56670  0.36120  1.0000 0.1202209327
H   H10       1.0  0.10380  0.21860  0.06490  1.0000 0.3086485449
H   H11       1.0  0.18520  0.20220  0.06990  1.0000 0.3194562603
H   H12       1.0  0.24330  0.35610  0.29170  1.0000 0.129778766
H   H13       1.0  0.96670  0.17330  0.31800  1.0000 0.1086116299
H   H14       1.0  0.85080  0.04980  0.43340  1.0000 0.1086116299
H   H15       1.0  0.78680  0.26880  0.34990  1.0000 0.129778766
H   H16       1.0  0.89300  0.38420  0.23200  1.0000 0.129778766
H   H17       1.0  0.70530  0.18170  0.08680  1.0000 0.1202209327
H   H18       1.0  0.56670  0.93870  0.13880  1.0000 0.1202209327
H   H19       1.0  0.78140  0.89620  0.56490  1.0000 0.3086485449
H   H20       1.0  0.79780  0.81480  0.56990  1.0000 0.3194562603
H   H21       1.0  0.64390  0.75670  0.79170  1.0000 0.129778766
H   H22       1.0  0.82670  0.03330  0.81800  1.0000 0.1086116299
H   H23       1.0  0.95020  0.14920  0.93340  1.0000 0.1086116299
H   H24       1.0  0.73120  0.21320  0.84990  1.0000 0.129778766
H   H25       1.0  0.61580  0.10700  0.73200  1.0000 0.129778766
H   H26       1.0  0.81830  0.29470  0.58680  1.0000 0.1202209327
H   H27       1.0  0.06130  0.43330  0.63880  1.0000 0.1202209327
H   H28       1.0  0.89620  0.78140  0.93510  1.0000 0.3086485449
H   H29       1.0  0.81480  0.79780  0.93010  1.0000 0.3194562603
H   H30       1.0  0.75670  0.64390  0.70830  1.0000 0.129778766
H   H31       1.0  0.03330  0.82670  0.68200  1.0000 0.1086116299
H   H32       1.0  0.14920  0.95020  0.56660  1.0000 0.1086116299
H   H33       1.0  0.21320  0.73120  0.65010  1.0000 0.129778766
H   H34       1.0  0.10700  0.61580  0.76800  1.0000 0.129778766
H   H35       1.0  0.29470  0.81830  0.91320  1.0000 0.1202209327
H   H36       1.0  0.43330  0.06130  0.86120  1.0000 0.1202209327
C   C1        1.0  0.33660  0.26980  0.22840  1.0000 -0.0195868741
C   C2        1.0  0.31780  0.28680  0.33050  1.0000 0.3086485449
C   C3        1.0  0.36684  0.00956  0.31430  1.0000 0.5944784466
C   C4        1.0  0.29251  0.94289  0.23610  1.0000 -0.011243279
C   C5        1.0  0.19280  0.92940  0.17600  1.0000 -0.1220676233
C   C6        1.0  0.12060  0.86200  0.10670  1.0000 -0.1220676233
C   C7        1.0  0.15030  0.81130  0.09550  1.0000 -0.0195868741
C   C8        1.0  0.24850  0.82310  0.15620  1.0000 -0.0937032741
C   C9        1.0  0.31780  0.88720  0.22610  1.0000 -0.0974880387
C   C10       1.0  0.06958  0.73302  0.02260  1.0000 0.6059586439
C   C11       1.0  0.29985  0.66995  0.56390  1.0000 0.5699717585
C   C12       1.0  0.14384  0.58196  0.53100  1.0000 2.03809e-05
C   C13       1.0  0.10767  0.62193  0.44830  1.0000 -0.0937032741
C   C14       1.0  0.96390  0.53990  0.41760  1.0000 -0.1086262878
C   C15       1.0  0.26980  0.33660  0.27160  1.0000 -0.0195868741
C   C16       1.0  0.28680  0.31780  0.16950  1.0000 0.3086485449
C   C17       1.0  0.00956  0.36684  0.18570  1.0000 0.5944784466
C   C18       1.0  0.94289  0.29251  0.26390  1.0000 -0.011243279
C   C19       1.0  0.92940  0.19280  0.32400  1.0000 -0.1220676233
C   C20       1.0  0.86200  0.12060  0.39330  1.0000 -0.1220676233
C   C21       1.0  0.81130  0.15030  0.40450  1.0000 -0.0195868741
C   C22       1.0  0.82310  0.24850  0.34380  1.0000 -0.0937032741
C   C23       1.0  0.88720  0.31780  0.27390  1.0000 -0.0974880387
C   C24       1.0  0.73302  0.06958  0.47740  1.0000 0.6059586439
C   C25       1.0  0.66995  0.29985  0.93610  1.0000 0.5699717585
C   C26       1.0  0.58196  0.14384  0.96900  1.0000 -0.0002991102
C   C27       1.0  0.62193  0.10767  0.05170  1.0000 -0.0937032741
C   C28       1.0  0.53990  0.96390  0.08240  1.0000 -0.1086262878
C   C29       1.0  0.66340  0.73020  0.77160  1.0000 -0.0195868741
C   C30       1.0  0.68220  0.71320  0.66950  1.0000 0.3086485449
C   C31       1.0  0.63316  0.99044  0.68570  1.0000 0.5944784466
C   C32       1.0  0.70749  0.05711  0.76390  1.0000 -0.011243279
C   C33       1.0  0.80720  0.07060  0.82400  1.0000 -0.1220676233
C   C34       1.0  0.87940  0.13800  0.89330  1.0000 -0.1220676233
C   C35       1.0  0.84970  0.18870  0.90450  1.0000 -0.0195868741
C   C36       1.0  0.75150  0.17690  0.84380  1.0000 -0.0937032741
C   C37       1.0  0.68220  0.11280  0.77390  1.0000 -0.0974880387
C   C38       1.0  0.93042  0.26698  0.97740  1.0000 0.6059586439
C   C39       1.0  0.70015  0.33005  0.43610  1.0000 0.5699717585
C   C40       1.0  0.85616  0.41804  0.46900  1.0000 2.03809e-05
C   C41       1.0  0.89233  0.37807  0.55170  1.0000 -0.0937032741
C   C42       1.0  0.03610  0.46010  0.58240  1.0000 -0.1086262878
C   C43       1.0  0.73020  0.66340  0.72840  1.0000 -0.0195868741
C   C44       1.0  0.71320  0.68220  0.83050  1.0000 0.3086485449
C   C45       1.0  0.99044  0.63316  0.81430  1.0000 0.5944784466
C   C46       1.0  0.05711  0.70749  0.73610  1.0000 -0.011243279
C   C47       1.0  0.07060  0.80720  0.67600  1.0000 -0.1220676233
C   C48       1.0  0.13800  0.87940  0.60670  1.0000 -0.1220676233
C   C49       1.0  0.18870  0.84970  0.59550  1.0000 -0.0195868741
C   C50       1.0  0.17690  0.75150  0.65620  1.0000 -0.0937032741
C   C51       1.0  0.11280  0.68220  0.72610  1.0000 -0.0974880387
C   C52       1.0  0.26698  0.93042  0.52260  1.0000 0.6059586439
C   C53       1.0  0.33005  0.70015  0.06390  1.0000 0.5699717585
C   C54       1.0  0.41804  0.85616  0.03100  1.0000 2.03809e-05
C   C55       1.0  0.37807  0.89233  0.94830  1.0000 -0.0937032741
C   C56       1.0  0.46010  0.03610  0.91760  1.0000 -0.1086262878
N   N1        1.0  0.35792  0.25888  0.30850  1.0000 -0.2724839118
N   N2        1.0  0.23360  0.17520  0.41050  1.0000 -0.6492324736
N   N3        1.0  0.25888  0.35792  0.19150  1.0000 -0.2724839118
N   N4        1.0  0.17520  0.23360  0.08950  1.0000 -0.6492324736
N   N5        1.0  0.64208  0.74112  0.69150  1.0000 -0.2724839118
N   N6        1.0  0.76640  0.82480  0.58950  1.0000 -0.6492324736
N   N7        1.0  0.74112  0.64208  0.80850  1.0000 -0.2724839118
N   N8        1.0  0.82480  0.76640  0.91050  1.0000 -0.6492324736
O   O1        1.0  0.35783  0.07977  0.31290  1.0000 -0.5632603881
O   O2        1.0  0.43079  0.99001  0.37300  1.0000 -0.5486764726
O   O3        1.0  0.97175  0.71565  0.97170  1.0000 -0.5680296239
O   O4        1.0  0.10164  0.68816  0.01780  1.0000 -0.5632603881
O   O5        1.0  0.40185  0.79495  0.52110  1.0000 -0.6016919133
O   O6        1.0  0.33032  0.62088  0.63040  1.0000 -0.5257476386
O   O7        1.0  0.07977  0.35783  0.18710  1.0000 -0.5632603881
O   O8        1.0  0.99001  0.43079  0.12700  1.0000 -0.5486764726
O   O9        1.0  0.71565  0.97175  0.52830  1.0000 -0.5680296239
O   O10       1.0  0.68816  0.10164  0.48220  1.0000 -0.5632603881
O   O11       1.0  0.79495  0.40185  0.97890  1.0000 -0.6016919133
O   O12       1.0  0.62088  0.33032  0.86960  1.0000 -0.5257476386
O   O13       1.0  0.64217  0.92023  0.68710  1.0000 -0.5632603881
O   O14       1.0  0.56921  0.00999  0.62700  1.0000 -0.5486764726
O   O15       1.0  0.02825  0.28435  0.02830  1.0000 -0.5680296239
O   O16       1.0  0.89836  0.31184  0.98220  1.0000 -0.5632603881
O   O17       1.0  0.59815  0.20505  0.47890  1.0000 -0.6016919133
O   O18       1.0  0.66968  0.37912  0.36960  1.0000 -0.5257476386
O   O19       1.0  0.92023  0.64217  0.81290  1.0000 -0.5632603881
O   O20       1.0  0.00999  0.56921  0.87300  1.0000 -0.5486764726
O   O21       1.0  0.28435  0.02825  0.47170  1.0000 -0.5680296239
O   O22       1.0  0.31184  0.89836  0.51780  1.0000 -0.5632603881
O   O23       1.0  0.20505  0.59815  0.02110  1.0000 -0.6016919133
O   O24       1.0  0.37912  0.66968  0.13040  1.0000 -0.5257476386
