# DDEC6 charges by PACMAN v1.1 (https://github.com/mtap-research/PACMAN-charge/)
data_2019[Cu][bto]3[ASR]12
_chemical_formula_sum              "Cu6 H36 C42 N18 O18"
_cell_length_a       10.564
_cell_length_b       10.564
_cell_length_c       16.921
_cell_angle_alpha    90
_cell_angle_beta     90
_cell_angle_gamma    120

_symmetry_space_group_name_H-M    "P 1"
_symmetry_Int_Tables_number       1

loop_
  _symmetry_equiv_pos_as_xyz
  'x, y, z'

loop_
  _atom_site_type_symbol
  _atom_site_label
  _atom_site_symmetry_multiplicity
  _atom_site_fract_x
  _atom_site_fract_y
  _atom_site_fract_z
  _atom_site_occupancy
  _atom_site_charge
Cu  Cu1       1.0  0.56461  0.70100  0.63577  1.0000 0.7298637763
Cu  Cu2       1.0  0.29900  0.86361  0.96910  1.0000 0.7298637763
Cu  Cu3       1.0  0.13639  0.43539  0.30244  1.0000 0.7298637763
Cu  Cu4       1.0  0.70100  0.56461  0.36423  1.0000 0.7298637763
Cu  Cu5       1.0  0.86361  0.29900  0.03090  1.0000 0.7298637763
Cu  Cu6       1.0  0.43539  0.13639  0.69756  1.0000 0.7298637763
H   H1        1.0  0.52740  0.61100  0.91910  1.0000 0.3044000303
H   H2        1.0  0.43770  0.67670  0.80850  1.0000 0.1165672129
H   H3        1.0  0.73710  0.58270  0.88470  1.0000 0.1357562428
H   H4        1.0  0.88060  0.62170  0.74660  1.0000 0.1287603488
H   H5        1.0  0.88250  0.75570  0.70360  1.0000 0.1287603488
H   H6        1.0  0.84470  0.57590  0.60890  1.0000 0.0982086097
H   H7        1.0  0.38900  0.91640  0.25243  1.0000 0.3044000303
H   H8        1.0  0.32330  0.76100  0.14183  1.0000 0.1165672129
H   H9        1.0  0.41730  0.15440  0.21803  1.0000 0.1357562428
H   H10       1.0  0.37830  0.25890  0.07993  1.0000 0.1287603488
H   H11       1.0  0.24430  0.12680  0.03693  1.0000 0.1287603488
H   H12       1.0  0.42410  0.26880  0.94223  1.0000 0.0982086097
H   H13       1.0  0.08360  0.47260  0.58577  1.0000 0.3044000303
H   H14       1.0  0.23900  0.56230  0.47517  1.0000 0.1165672129
H   H15       1.0  0.84560  0.26290  0.55137  1.0000 0.1357562428
H   H16       1.0  0.74110  0.11940  0.41327  1.0000 0.1287603488
H   H17       1.0  0.87320  0.11750  0.37027  1.0000 0.1287603488
H   H18       1.0  0.73120  0.15530  0.27557  1.0000 0.0982086097
H   H19       1.0  0.61100  0.52740  0.08090  1.0000 0.3044000303
H   H20       1.0  0.67670  0.43770  0.19150  1.0000 0.1165672129
H   H21       1.0  0.58270  0.73710  0.11530  1.0000 0.1357562428
H   H22       1.0  0.62170  0.88060  0.25340  1.0000 0.1287603488
H   H23       1.0  0.75570  0.88250  0.29640  1.0000 0.1287603488
H   H24       1.0  0.57590  0.84470  0.39110  1.0000 0.0982086097
H   H25       1.0  0.91640  0.38900  0.74757  1.0000 0.3044000303
H   H26       1.0  0.76100  0.32330  0.85817  1.0000 0.1165672129
H   H27       1.0  0.15440  0.41730  0.78197  1.0000 0.1357562428
H   H28       1.0  0.25890  0.37830  0.92007  1.0000 0.1287603488
H   H29       1.0  0.12680  0.24430  0.96307  1.0000 0.1287603488
H   H30       1.0  0.26880  0.42410  0.05777  1.0000 0.0982086097
H   H31       1.0  0.47260  0.08360  0.41423  1.0000 0.3044000303
H   H32       1.0  0.56230  0.23900  0.52483  1.0000 0.1165672129
H   H33       1.0  0.26290  0.84560  0.44863  1.0000 0.1357562428
H   H34       1.0  0.11940  0.74110  0.58673  1.0000 0.1287603488
H   H35       1.0  0.11750  0.87320  0.62973  1.0000 0.1287603488
H   H36       1.0  0.15530  0.73120  0.72443  1.0000 0.0982086097
C   C1        1.0  0.51780  0.66110  0.80910  1.0000 0.1777124986
C   C2        1.0  0.68250  0.60890  0.85160  1.0000 -0.1113582988
C   C3        1.0  0.70330  0.64050  0.77210  1.0000 0.1777124986
C   C4        1.0  0.81990  0.65290  0.71830  1.0000 -0.2885339523
C   C5        1.0  0.75980  0.55970  0.64140  1.0000 0.0233584749
C   C6        1.0  0.67010  0.59830  0.52020  1.0000 0.3376046454
C   C7        1.0  0.67490  0.39980  0.66250  1.0000 0.5508198078
C   C8        1.0  0.33890  0.85670  0.14243  1.0000 0.1777124986
C   C9        1.0  0.39110  0.07360  0.18493  1.0000 -0.1113582988
C   C10       1.0  0.35950  0.06280  0.10543  1.0000 0.1777124986
C   C11       1.0  0.34710  0.16700  0.05163  1.0000 -0.2885339523
C   C12       1.0  0.44030  0.20010  0.97473  1.0000 0.0233584749
C   C13       1.0  0.40170  0.07180  0.85353  1.0000 0.3376046454
C   C14       1.0  0.60020  0.27510  0.99583  1.0000 0.5508198078
C   C15       1.0  0.14330  0.48220  0.47577  1.0000 0.1777124986
C   C16       1.0  0.92640  0.31750  0.51827  1.0000 -0.1113582988
C   C17       1.0  0.93720  0.29670  0.43877  1.0000 0.1777124986
C   C18       1.0  0.83300  0.18010  0.38497  1.0000 -0.2885339523
C   C19       1.0  0.79990  0.24020  0.30807  1.0000 0.0233584749
C   C20       1.0  0.92820  0.32990  0.18687  1.0000 0.3376046454
C   C21       1.0  0.72490  0.32510  0.32917  1.0000 0.5508198078
C   C22       1.0  0.66110  0.51780  0.19090  1.0000 0.1777124986
C   C23       1.0  0.60890  0.68250  0.14840  1.0000 -0.1113582988
C   C24       1.0  0.64050  0.70330  0.22790  1.0000 0.1777124986
C   C25       1.0  0.65290  0.81990  0.28170  1.0000 -0.2885339523
C   C26       1.0  0.55970  0.75980  0.35860  1.0000 0.0233584749
C   C27       1.0  0.59830  0.67010  0.47980  1.0000 0.3376046454
C   C28       1.0  0.39980  0.67490  0.33750  1.0000 0.5508198078
C   C29       1.0  0.85670  0.33890  0.85757  1.0000 0.1777124986
C   C30       1.0  0.07360  0.39110  0.81507  1.0000 -0.1113582988
C   C31       1.0  0.06280  0.35950  0.89457  1.0000 0.1777124986
C   C32       1.0  0.16700  0.34710  0.94837  1.0000 -0.2885339523
C   C33       1.0  0.20010  0.44030  0.02527  1.0000 0.0233584749
C   C34       1.0  0.07180  0.40170  0.14647  1.0000 0.3376046454
C   C35       1.0  0.27510  0.60020  0.00417  1.0000 0.5508198078
C   C36       1.0  0.48220  0.14330  0.52423  1.0000 0.1777124986
C   C37       1.0  0.31750  0.92640  0.48173  1.0000 -0.1113582988
C   C38       1.0  0.29670  0.93720  0.56123  1.0000 0.1777124986
C   C39       1.0  0.18010  0.83300  0.61503  1.0000 -0.2885339523
C   C40       1.0  0.24020  0.79990  0.69193  1.0000 0.0233584749
C   C41       1.0  0.32990  0.92820  0.81313  1.0000 0.3376046454
C   C42       1.0  0.32510  0.72490  0.67083  1.0000 0.5508198078
N   N1        1.0  0.59940  0.67360  0.74640  1.0000 -0.3631775444
N   N2        1.0  0.56480  0.62400  0.87200  1.0000 -0.1779716278
N   N3        1.0  0.67880  0.61410  0.59700  1.0000 -0.4111371155
N   N4        1.0  0.32640  0.92580  0.07973  1.0000 -0.3631775444
N   N5        1.0  0.37600  0.94080  0.20533  1.0000 -0.1779716278
N   N6        1.0  0.38590  0.06470  0.93033  1.0000 -0.4111371155
N   N7        1.0  0.07420  0.40060  0.41307  1.0000 -0.3631775444
N   N8        1.0  0.05920  0.43520  0.53867  1.0000 -0.1779716278
N   N9        1.0  0.93530  0.32120  0.26367  1.0000 -0.4111371155
N   N10       1.0  0.67360  0.59940  0.25360  1.0000 -0.3631775444
N   N11       1.0  0.62400  0.56480  0.12800  1.0000 -0.1779716278
N   N12       1.0  0.61410  0.67880  0.40300  1.0000 -0.4111371155
N   N13       1.0  0.92580  0.32640  0.92027  1.0000 -0.3631775444
N   N14       1.0  0.94080  0.37600  0.79467  1.0000 -0.1779716278
N   N15       1.0  0.06470  0.38590  0.06967  1.0000 -0.4111371155
N   N16       1.0  0.40060  0.07420  0.58693  1.0000 -0.3631775444
N   N17       1.0  0.43520  0.05920  0.46133  1.0000 -0.1779716278
N   N18       1.0  0.32120  0.93530  0.73633  1.0000 -0.4111371155
O   O1        1.0  0.72330  0.53530  0.47760  1.0000 -0.4765161539
O   O2        1.0  0.74500  0.33530  0.67610  1.0000 -0.5935228829
O   O3        1.0  0.53820  0.34190  0.66690  1.0000 -0.4873069192
O   O4        1.0  0.46470  0.18800  0.81093  1.0000 -0.4765161539
O   O5        1.0  0.66470  0.40970  0.00943  1.0000 -0.5935228829
O   O6        1.0  0.65810  0.19630  0.00023  1.0000 -0.4873069192
O   O7        1.0  0.81200  0.27670  0.14427  1.0000 -0.4765161539
O   O8        1.0  0.59030  0.25500  0.34277  1.0000 -0.5935228829
O   O9        1.0  0.80370  0.46180  0.33357  1.0000 -0.4873069192
O   O10       1.0  0.53530  0.72330  0.52240  1.0000 -0.4765161539
O   O11       1.0  0.33530  0.74500  0.32390  1.0000 -0.5935228829
O   O12       1.0  0.34190  0.53820  0.33310  1.0000 -0.4873069192
O   O13       1.0  0.18800  0.46470  0.18907  1.0000 -0.4765161539
O   O14       1.0  0.40970  0.66470  0.99057  1.0000 -0.5935228829
O   O15       1.0  0.19630  0.65810  0.99977  1.0000 -0.4873069192
O   O16       1.0  0.27670  0.81200  0.85573  1.0000 -0.4765161539
O   O17       1.0  0.25500  0.59030  0.65723  1.0000 -0.5935228829
O   O18       1.0  0.46180  0.80370  0.66643  1.0000 -0.4873069192
