# DDEC6 charges by PACMAN v1.1 (https://github.com/mtap-research/PACMAN-charge/)
data_2019[U][nan]3[ASR]1
_chemical_formula_sum              "U6 P8 H32 C50 O24 F4"
_cell_length_a       11.9974
_cell_length_b       13.7795
_cell_length_c       15.0397
_cell_angle_alpha    99.357
_cell_angle_beta     92.188
_cell_angle_gamma    109.935

_symmetry_space_group_name_H-M    "P 1"
_symmetry_Int_Tables_number       1

loop_
  _symmetry_equiv_pos_as_xyz
  'x, y, z'

loop_
  _atom_site_type_symbol
  _atom_site_label
  _atom_site_symmetry_multiplicity
  _atom_site_fract_x
  _atom_site_fract_y
  _atom_site_fract_z
  _atom_site_occupancy
  _atom_site_charge
U   U1        1.0  0.01343  0.11383  0.10567  1.0000 2.62269952
U   U2        1.0  0.11206  0.56192  0.12028  1.0000 2.0451524466
U   U3        1.0  0.88196  0.04247  0.67291  1.0000 2.2256875247
U   U4        1.0  0.98657  0.88617  0.89433  1.0000 2.6367032736
U   U5        1.0  0.88794  0.43808  0.87972  1.0000 2.0556390494
U   U6        1.0  0.11804  0.95753  0.32709  1.0000 2.2186303347
P   P1        1.0  0.87468  0.29887  0.02819  1.0000 1.303605935
P   P2        1.0  0.00315  0.85397  0.53102  1.0000 1.337433955
P   P3        1.0  0.11270  0.36382  0.26578  1.0000 1.3285618931
P   P4        1.0  0.71952  0.23268  0.68757  1.0000 1.3285618931
P   P5        1.0  0.12532  0.70113  0.97181  1.0000 1.303605935
P   P6        1.0  0.99685  0.14603  0.46898  1.0000 1.337433955
P   P7        1.0  0.88730  0.63618  0.73422  1.0000 1.3285618931
P   P8        1.0  0.28048  0.76732  0.31243  1.0000 1.3285618931
H   H1        1.0  0.71895  0.41445  0.06693  1.0000 0.1024393461
H   H2        1.0  0.62892  0.45786  0.19069  1.0000 0.1209756661
H   H3        1.0  0.72709  0.26164  0.31646  1.0000 0.126815325
H   H4        1.0  0.81052  0.21264  0.18973  1.0000 0.1209756661
H   H5        1.0  0.98355  0.70425  0.36772  1.0000 0.1098728955
H   H6        1.0  0.84755  0.54285  0.30198  1.0000 0.1098728955
H   H7        1.0  0.62911  0.57207  0.49106  1.0000 0.1024393461
H   H8        1.0  0.76149  0.73772  0.55218  1.0000 0.1098728955
H   H9        1.0  0.33057  0.54116  0.30611  1.0000 0.1098728955
H   H10       1.0  0.52837  0.56690  0.34803  1.0000 0.1024393461
H   H11       1.0  0.44720  0.25325  0.29744  1.0000 0.1098728955
H   H12       1.0  0.25079  0.22923  0.26334  1.0000 0.1024393461
H   H13       1.0  0.86361  0.34838  0.56773  1.0000 0.126815325
H   H14       1.0  0.83189  0.42421  0.44879  1.0000 0.1209756661
H   H15       1.0  0.48065  0.29712  0.45724  1.0000 0.1024393461
H   H16       1.0  0.51217  0.22176  0.57730  1.0000 0.1209756661
H   H17       1.0  0.28105  0.58555  0.93307  1.0000 0.1024393461
H   H18       1.0  0.37108  0.54214  0.80931  1.0000 0.1209756661
H   H19       1.0  0.27291  0.73836  0.68354  1.0000 0.126815325
H   H20       1.0  0.18948  0.78736  0.81027  1.0000 0.1209756661
H   H21       1.0  0.01645  0.29575  0.63228  1.0000 0.1098728955
H   H22       1.0  0.15245  0.45715  0.69802  1.0000 0.1098728955
H   H23       1.0  0.37089  0.42793  0.50894  1.0000 0.1024393461
H   H24       1.0  0.23851  0.26228  0.44782  1.0000 0.1098728955
H   H25       1.0  0.66943  0.45884  0.69389  1.0000 0.1098728955
H   H26       1.0  0.47163  0.43310  0.65197  1.0000 0.1024393461
H   H27       1.0  0.55280  0.74675  0.70256  1.0000 0.1098728955
H   H28       1.0  0.74921  0.77077  0.73666  1.0000 0.1024393461
H   H29       1.0  0.13639  0.65162  0.43227  1.0000 0.126815325
H   H30       1.0  0.16811  0.57579  0.55121  1.0000 0.1209756661
H   H31       1.0  0.51935  0.70288  0.54276  1.0000 0.1024393461
H   H32       1.0  0.48783  0.77824  0.42270  1.0000 0.1209756661
C   C1        1.0  0.78200  0.31420  0.11680  1.0000 -0.2031968624
C   C2        1.0  0.72300  0.38500  0.11780  1.0000 -0.0955607869
C   C3        1.0  0.67060  0.41230  0.19250  1.0000 -0.1478504107
C   C4        1.0  0.67880  0.37290  0.27130  1.0000 0.0529353902
C   C5        1.0  0.72810  0.29480  0.26720  1.0000 -0.1422461063
C   C6        1.0  0.77850  0.26550  0.19120  1.0000 -0.0330315611
C   C7        1.0  0.88980  0.73640  0.46880  1.0000 -0.1891710699
C   C8        1.0  0.91230  0.67780  0.39290  1.0000 -0.0913240869
C   C9        1.0  0.83070  0.58050  0.35360  1.0000 -0.1478504107
C   C10       1.0  0.72390  0.53810  0.39010  1.0000 0.0591297022
C   C11       1.0  0.70020  0.59860  0.46560  1.0000 -0.1478504107
C   C12       1.0  0.78050  0.69730  0.50350  1.0000 -0.0708517683
C   C13       1.0  0.26790  0.38210  0.28440  1.0000 -0.2206327111
C   C14       1.0  0.35350  0.48330  0.30730  1.0000 -0.0708517683
C   C15       1.0  0.47300  0.49900  0.33200  1.0000 -0.1670985125
C   C16       1.0  0.50920  0.41220  0.33240  1.0000 0.0591297022
C   C17       1.0  0.42370  0.31150  0.30260  1.0000 -0.1670985125
C   C18       1.0  0.30590  0.29710  0.28080  1.0000 -0.0913240869
C   C19       1.0  0.69090  0.27710  0.58620  1.0000 -0.2098809124
C   C20       1.0  0.78600  0.33790  0.54590  1.0000 -0.0492649503
C   C21       1.0  0.76690  0.38290  0.47390  1.0000 -0.1298746407
C   C22       1.0  0.65190  0.36770  0.43820  1.0000 0.0529353902
C   C23       1.0  0.55830  0.30760  0.47900  1.0000 -0.1619187534
C   C24       1.0  0.57710  0.26240  0.55170  1.0000 -0.0708517683
C   C25       1.0  0.63890  0.42250  0.35800  1.0000 -0.0146999528
C   C26       1.0  0.21800  0.68580  0.88320  1.0000 -0.2031968624
C   C27       1.0  0.27700  0.61500  0.88220  1.0000 -0.0955607869
C   C28       1.0  0.32940  0.58770  0.80750  1.0000 -0.1478504107
C   C29       1.0  0.32120  0.62710  0.72870  1.0000 0.0529353902
C   C30       1.0  0.27190  0.70520  0.73280  1.0000 -0.1422461063
C   C31       1.0  0.22150  0.73450  0.80880  1.0000 -0.0330315611
C   C32       1.0  0.11020  0.26360  0.53120  1.0000 -0.1891710699
C   C33       1.0  0.08770  0.32220  0.60710  1.0000 -0.0913240869
C   C34       1.0  0.16930  0.41950  0.64640  1.0000 -0.1478504107
C   C35       1.0  0.27610  0.46190  0.60990  1.0000 0.0591297022
C   C36       1.0  0.29980  0.40140  0.53440  1.0000 -0.1478504107
C   C37       1.0  0.21950  0.30270  0.49650  1.0000 -0.0708517683
C   C38       1.0  0.73210  0.61790  0.71560  1.0000 -0.2206327111
C   C39       1.0  0.64650  0.51670  0.69270  1.0000 -0.0708517683
C   C40       1.0  0.52700  0.50100  0.66800  1.0000 -0.1670985125
C   C41       1.0  0.49080  0.58780  0.66760  1.0000 0.0591297022
C   C42       1.0  0.57630  0.68850  0.69740  1.0000 -0.1670985125
C   C43       1.0  0.69410  0.70290  0.71920  1.0000 -0.0913240869
C   C44       1.0  0.30910  0.72290  0.41380  1.0000 -0.2098809124
C   C45       1.0  0.21400  0.66210  0.45410  1.0000 -0.0492649503
C   C46       1.0  0.23310  0.61710  0.52610  1.0000 -0.1298746407
C   C47       1.0  0.34810  0.63230  0.56180  1.0000 0.0529353902
C   C48       1.0  0.44170  0.69240  0.52100  1.0000 -0.1619187534
C   C49       1.0  0.42290  0.73760  0.44830  1.0000 -0.0708517683
C   C50       1.0  0.36110  0.57750  0.64200  1.0000 -0.0146999528
O   O1        1.0  0.93180  0.22150  0.04600  1.0000 -0.8376784215
O   O2        1.0  0.96570  0.41040  0.02880  1.0000 -0.9613441616
O   O3        1.0  0.80530  0.27090  0.93390  1.0000 -0.7901538104
O   O4        1.0  0.07500  0.81230  0.59710  1.0000 -0.6265530974
O   O5        1.0  0.94530  0.91840  0.58790  1.0000 -0.8599413425
O   O6        1.0  0.08940  0.90810  0.47000  1.0000 -0.8511974603
O   O7        1.0  0.04340  0.24860  0.23010  1.0000 -0.8689695389
O   O8        1.0  0.07010  0.39240  0.36130  1.0000 -0.6763981372
O   O9        1.0  0.09560  0.43960  0.21090  1.0000 -0.8376784215
O   O10       1.0  0.59720  0.15230  0.70480  1.0000 -0.6685402582
O   O11       1.0  0.81350  0.18370  0.67620  1.0000 -0.9033312589
O   O12       1.0  0.75030  0.32540  0.76420  1.0000 -0.8376784215
O   O13       1.0  0.06820  0.77850  0.95400  1.0000 -0.8341740757
O   O14       1.0  0.03430  0.58960  0.97120  1.0000 -0.9673185736
O   O15       1.0  0.19470  0.72910  0.06610  1.0000 -0.7901538104
O   O16       1.0  0.92500  0.18770  0.40290  1.0000 -0.6239601165
O   O17       1.0  0.05470  0.08160  0.41210  1.0000 -0.8599413425
O   O18       1.0  0.91060  0.09190  0.53000  1.0000 -0.8599413425
O   O19       1.0  0.95660  0.75140  0.76990  1.0000 -0.8689695389
O   O20       1.0  0.92990  0.60760  0.63870  1.0000 -0.6685402582
O   O21       1.0  0.90440  0.56040  0.78910  1.0000 -0.8376784215
O   O22       1.0  0.40280  0.84770  0.29520  1.0000 -0.6685402582
O   O23       1.0  0.18650  0.81630  0.32380  1.0000 -0.9033312589
O   O24       1.0  0.24970  0.67460  0.23580  1.0000 -0.8376784215
F   F1        1.0  0.95320  0.04210  0.95020  1.0000 -1.0369305998
F   F2        1.0  0.90530  0.93850  0.77540  1.0000 -0.8511974603
F   F3        1.0  0.04680  0.95790  0.04980  1.0000 -1.0369305998
F   F4        1.0  0.09470  0.06150  0.22460  1.0000 -0.8376784215
