# DDEC6 charges by PACMAN v1.1 (https://github.com/mtap-research/PACMAN-charge/)
data_2019[Cd][afw]3[ASR]1
_chemical_formula_sum              "Cd8 H176 C264 N32 O40"
_cell_length_a       10.106
_cell_length_b       23.323
_cell_length_c       26.521
_cell_angle_alpha    90.103
_cell_angle_beta     98.342
_cell_angle_gamma    90.546

_symmetry_space_group_name_H-M    "P 1"
_symmetry_Int_Tables_number       1

loop_
  _symmetry_equiv_pos_as_xyz
  'x, y, z'

loop_
  _atom_site_type_symbol
  _atom_site_label
  _atom_site_symmetry_multiplicity
  _atom_site_fract_x
  _atom_site_fract_y
  _atom_site_fract_z
  _atom_site_occupancy
  _atom_site_charge
Cd  Cd1       1.0  0.44077  0.62265  0.24190  1.0000 0.8231418073
Cd  Cd2       1.0  0.05803  0.59870  0.74832  1.0000 0.8231418073
Cd  Cd3       1.0  0.44541  0.07659  0.71278  1.0000 0.8388548036
Cd  Cd4       1.0  0.07893  0.13380  0.21968  1.0000 0.8231418073
Cd  Cd5       1.0  0.55923  0.37735  0.75810  1.0000 0.8231418073
Cd  Cd6       1.0  0.94197  0.40130  0.25168  1.0000 0.8231418073
Cd  Cd7       1.0  0.55459  0.92341  0.28722  1.0000 0.8388548036
Cd  Cd8       1.0  0.92107  0.86620  0.78032  1.0000 0.8231418073
H   H1        1.0  0.51560  0.60980  0.06250  1.0000 0.1195062912
H   H2        1.0  0.59830  0.56330  0.99520  1.0000 0.1304500258
H   H3        1.0  0.79440  0.45170  0.09390  1.0000 0.1304500258
H   H4        1.0  0.70800  0.49540  0.15910  1.0000 0.1116031324
H   H5        1.0  0.88660  0.57020  0.99700  1.0000 0.1304500258
H   H6        1.0  0.97260  0.60670  0.93050  1.0000 0.1116031324
H   H7        1.0  0.78990  0.48230  0.84000  1.0000 0.1195062912
H   H8        1.0  0.70690  0.44280  0.90880  1.0000 0.1304500258
H   H9        1.0  0.21640  0.64930  0.14300  1.0000 0.1116031324
H   H10       1.0  0.11450  0.60900  0.27580  1.0000 0.1195062912
H   H11       1.0  0.91250  0.63010  0.21970  1.0000 0.1304500258
H   H12       1.0  0.85270  0.72400  0.16680  1.0000 0.1389003737
H   H13       1.0  0.74010  0.77450  0.09960  1.0000 0.1116031324
H   H14       1.0  0.89750  0.67310  0.00060  1.0000 0.1116031324
H   H15       1.0  0.02780  0.62810  0.06830  1.0000 0.1304500258
H   H16       1.0  0.00080  0.83150  0.03470  1.0000 0.1195062912
H   H17       1.0  0.11100  0.88800  0.09780  1.0000 0.1304500258
H   H18       1.0  0.75710  0.94910  0.12690  1.0000 0.1304500258
H   H19       1.0  0.64570  0.89350  0.06000  1.0000 0.1304500258
H   H20       1.0  0.92950  0.04050  0.13930  1.0000 0.1195062912
H   H21       1.0  0.14050  0.90870  0.20650  1.0000 0.1389003737
H   H22       1.0  0.21830  0.99690  0.25010  1.0000 0.1389003737
H   H23       1.0  0.53820  0.69110  0.99490  1.0000 0.1195062912
H   H24       1.0  0.41360  0.64280  0.92810  1.0000 0.1304500258
H   H25       1.0  0.67600  0.69800  0.83540  1.0000 0.1304500258
H   H26       1.0  0.79510  0.74770  0.90440  1.0000 0.1195062912
H   H27       1.0  0.26520  0.65170  0.84560  1.0000 0.1195062912
H   H28       1.0  0.58860  0.60280  0.78620  1.0000 0.1389003737
H   H29       1.0  0.38910  0.57790  0.72850  1.0000 0.1195062912
H   H30       1.0  0.48200  0.81960  0.95780  1.0000 0.1195062912
H   H31       1.0  0.36730  0.87210  0.89360  1.0000 0.1304500258
H   H32       1.0  0.71420  0.94850  0.86890  1.0000 0.1195062912
H   H33       1.0  0.82670  0.89820  0.93700  1.0000 0.1195062912
H   H34       1.0  0.28220  0.89820  0.81320  1.0000 0.1389003737
H   H35       1.0  0.23470  0.96870  0.74460  1.0000 0.1195062912
H   H36       1.0  0.58170  0.01320  0.82190  1.0000 0.1116031324
H   H37       1.0  0.93190  0.78000  0.65990  1.0000 0.1195062912
H   H38       1.0  0.83090  0.83470  0.59110  1.0000 0.1304500258
H   H39       1.0  0.71570  0.68670  0.51330  1.0000 0.1304500258
H   H40       1.0  0.82060  0.63530  0.58130  1.0000 0.1116031324
H   H41       1.0  0.84940  0.75190  0.44750  1.0000 0.1116031324
H   H42       1.0  0.77680  0.71220  0.36790  1.0000 0.1195062912
H   H43       1.0  0.40370  0.75730  0.37670  1.0000 0.1195062912
H   H44       1.0  0.47200  0.79480  0.45850  1.0000 0.1304500258
H   H45       1.0  0.93560  0.51780  0.64970  1.0000 0.1195062912
H   H46       1.0  0.25250  0.47460  0.74600  1.0000 0.1195062912
H   H47       1.0  0.20020  0.39270  0.68540  1.0000 0.1389003737
H   H48       1.0  0.78910  0.42710  0.62320  1.0000 0.1304500258
H   H49       1.0  0.68020  0.38080  0.55140  1.0000 0.1304500258
H   H50       1.0  0.03950  0.33520  0.51480  1.0000 0.1195062912
H   H51       1.0  0.14530  0.38550  0.58650  1.0000 0.1304500258
H   H52       1.0  0.78000  0.25800  0.57280  1.0000 0.1116031324
H   H53       1.0  0.89050  0.20020  0.63390  1.0000 0.1389003737
H   H54       1.0  0.05580  0.11670  0.52600  1.0000 0.1304500258
H   H55       1.0  0.94390  0.17450  0.46340  1.0000 0.1195062912
H   H56       1.0  0.92380  0.10230  0.67390  1.0000 0.1389003737
H   H57       1.0  0.11260  0.06160  0.72850  1.0000 0.1195062912
H   H58       1.0  0.25250  0.12120  0.60850  1.0000 0.1195062912
H   H59       1.0  0.81780  0.28170  0.37730  1.0000 0.1195062912
H   H60       1.0  0.68460  0.25600  0.30170  1.0000 0.1304500258
H   H61       1.0  0.46370  0.15560  0.38110  1.0000 0.1304500258
H   H62       1.0  0.59790  0.18260  0.45600  1.0000 0.1195062912
H   H63       1.0  0.31930  0.14940  0.31450  1.0000 0.1116031324
H   H64       1.0  0.57180  0.21780  0.22840  1.0000 0.1304500258
H   H65       1.0  0.37240  0.18430  0.17380  1.0000 0.1195062912
H   H66       1.0  0.85230  0.41060  0.43120  1.0000 0.1195062912
H   H67       1.0  0.72840  0.47290  0.37360  1.0000 0.1195062912
H   H68       1.0  0.39510  0.38220  0.38710  1.0000 0.1304500258
H   H69       1.0  0.51920  0.32100  0.44410  1.0000 0.1195062912
H   H70       1.0  0.57620  0.54700  0.34770  1.0000 0.1116031324
H   H71       1.0  0.30900  0.42200  0.30930  1.0000 0.1389003737
H   H72       1.0  0.24520  0.50750  0.25800  1.0000 0.1195062912
H   H73       1.0  0.40750  0.22570  0.83480  1.0000 0.1195062912
H   H74       1.0  0.48050  0.27940  0.90960  1.0000 0.1195062912
H   H75       1.0  0.85720  0.23920  0.89860  1.0000 0.1195062912
H   H76       1.0  0.78370  0.18460  0.82620  1.0000 0.1116031324
H   H77       1.0  0.71070  0.18420  0.97850  1.0000 0.1304500258
H   H78       1.0  0.82160  0.14230  0.05150  1.0000 0.1116031324
H   H79       1.0  0.94190  0.29700  0.10800  1.0000 0.1195062912
H   H80       1.0  0.83640  0.33990  0.03460  1.0000 0.1304500258
H   H81       1.0  0.74160  0.10480  0.32950  1.0000 0.1195062912
H   H82       1.0  0.64830  0.05190  0.39020  1.0000 0.1304500258
H   H83       1.0  0.01280  0.99910  0.44830  1.0000 0.1304500258
H   H84       1.0  0.10250  0.04680  0.38520  1.0000 0.1195062912
H   H85       1.0  0.74690  0.08680  0.49150  1.0000 0.1195062912
H   H86       1.0  0.66240  0.11180  0.56320  1.0000 0.1116031324
H   H87       1.0  0.59000  0.94690  0.59080  1.0000 0.1116031324
H   H88       1.0  0.67360  0.91970  0.51910  1.0000 0.1389003737
H   H89       1.0  0.48440  0.39020  0.93750  1.0000 0.1195062912
H   H90       1.0  0.40170  0.43670  0.00480  1.0000 0.1304500258
H   H91       1.0  0.20560  0.54830  0.90610  1.0000 0.1304500258
H   H92       1.0  0.29200  0.50460  0.84090  1.0000 0.1116031324
H   H93       1.0  0.11340  0.42980  0.00300  1.0000 0.1304500258
H   H94       1.0  0.02740  0.39330  0.06950  1.0000 0.1116031324
H   H95       1.0  0.21010  0.51770  0.16000  1.0000 0.1195062912
H   H96       1.0  0.29310  0.55720  0.09120  1.0000 0.1304500258
H   H97       1.0  0.78360  0.35070  0.85700  1.0000 0.1116031324
H   H98       1.0  0.88550  0.39100  0.72420  1.0000 0.1195062912
H   H99       1.0  0.08750  0.36990  0.78030  1.0000 0.1304500258
H   H100      1.0  0.14730  0.27600  0.83320  1.0000 0.1389003737
H   H101      1.0  0.25990  0.22550  0.90040  1.0000 0.1116031324
H   H102      1.0  0.10250  0.32690  0.99940  1.0000 0.1116031324
H   H103      1.0  0.97220  0.37190  0.93170  1.0000 0.1304500258
H   H104      1.0  0.99920  0.16850  0.96530  1.0000 0.1195062912
H   H105      1.0  0.88900  0.11200  0.90220  1.0000 0.1304500258
H   H106      1.0  0.24290  0.05090  0.87310  1.0000 0.1304500258
H   H107      1.0  0.35430  0.10650  0.94000  1.0000 0.1304500258
H   H108      1.0  0.07050  0.95950  0.86070  1.0000 0.1195062912
H   H109      1.0  0.85950  0.09130  0.79350  1.0000 0.1389003737
H   H110      1.0  0.78170  0.00310  0.74990  1.0000 0.1389003737
H   H111      1.0  0.46180  0.30890  0.00510  1.0000 0.1195062912
H   H112      1.0  0.58640  0.35720  0.07190  1.0000 0.1304500258
H   H113      1.0  0.32400  0.30200  0.16460  1.0000 0.1304500258
H   H114      1.0  0.20490  0.25230  0.09560  1.0000 0.1195062912
H   H115      1.0  0.73480  0.34830  0.15440  1.0000 0.1195062912
H   H116      1.0  0.41140  0.39720  0.21380  1.0000 0.1389003737
H   H117      1.0  0.61090  0.42210  0.27150  1.0000 0.1195062912
H   H118      1.0  0.51800  0.18040  0.04220  1.0000 0.1195062912
H   H119      1.0  0.63270  0.12790  0.10640  1.0000 0.1304500258
H   H120      1.0  0.28580  0.05150  0.13110  1.0000 0.1195062912
H   H121      1.0  0.17330  0.10180  0.06300  1.0000 0.1195062912
H   H122      1.0  0.71780  0.10180  0.18680  1.0000 0.1389003737
H   H123      1.0  0.76530  0.03130  0.25540  1.0000 0.1195062912
H   H124      1.0  0.41830  0.98680  0.17810  1.0000 0.1116031324
H   H125      1.0  0.06810  0.22000  0.34010  1.0000 0.1195062912
H   H126      1.0  0.16910  0.16530  0.40890  1.0000 0.1304500258
H   H127      1.0  0.28430  0.31330  0.48670  1.0000 0.1304500258
H   H128      1.0  0.17940  0.36470  0.41870  1.0000 0.1116031324
H   H129      1.0  0.15060  0.24810  0.55250  1.0000 0.1116031324
H   H130      1.0  0.22320  0.28780  0.63210  1.0000 0.1195062912
H   H131      1.0  0.59630  0.24270  0.62330  1.0000 0.1195062912
H   H132      1.0  0.52800  0.20520  0.54150  1.0000 0.1304500258
H   H133      1.0  0.06440  0.48220  0.35030  1.0000 0.1195062912
H   H134      1.0  0.74750  0.52540  0.25400  1.0000 0.1195062912
H   H135      1.0  0.79980  0.60730  0.31460  1.0000 0.1389003737
H   H136      1.0  0.21090  0.57290  0.37680  1.0000 0.1304500258
H   H137      1.0  0.31980  0.61920  0.44860  1.0000 0.1304500258
H   H138      1.0  0.96050  0.66480  0.48520  1.0000 0.1195062912
H   H139      1.0  0.85470  0.61450  0.41350  1.0000 0.1304500258
H   H140      1.0  0.22000  0.74200  0.42720  1.0000 0.1116031324
H   H141      1.0  0.10950  0.79980  0.36610  1.0000 0.1389003737
H   H142      1.0  0.94420  0.88330  0.47400  1.0000 0.1304500258
H   H143      1.0  0.05610  0.82550  0.53660  1.0000 0.1195062912
H   H144      1.0  0.07620  0.89770  0.32610  1.0000 0.1389003737
H   H145      1.0  0.88740  0.93840  0.27150  1.0000 0.1195062912
H   H146      1.0  0.74750  0.87880  0.39150  1.0000 0.1195062912
H   H147      1.0  0.18220  0.71830  0.62270  1.0000 0.1195062912
H   H148      1.0  0.31540  0.74400  0.69830  1.0000 0.1304500258
H   H149      1.0  0.53630  0.84440  0.61890  1.0000 0.1195062912
H   H150      1.0  0.40210  0.81740  0.54400  1.0000 0.1195062912
H   H151      1.0  0.68070  0.85060  0.68550  1.0000 0.1116031324
H   H152      1.0  0.42820  0.78220  0.77160  1.0000 0.1304500258
H   H153      1.0  0.62760  0.81570  0.82620  1.0000 0.1195062912
H   H154      1.0  0.14770  0.58940  0.56880  1.0000 0.1195062912
H   H155      1.0  0.27160  0.52710  0.62640  1.0000 0.1195062912
H   H156      1.0  0.60490  0.61780  0.61290  1.0000 0.1304500258
H   H157      1.0  0.48080  0.67900  0.55590  1.0000 0.1195062912
H   H158      1.0  0.42380  0.45300  0.65230  1.0000 0.1116031324
H   H159      1.0  0.69100  0.57800  0.69070  1.0000 0.1389003737
H   H160      1.0  0.75480  0.49250  0.74200  1.0000 0.1195062912
H   H161      1.0  0.59250  0.77430  0.16520  1.0000 0.1195062912
H   H162      1.0  0.51950  0.72060  0.09040  1.0000 0.1195062912
H   H163      1.0  0.14280  0.76080  0.10140  1.0000 0.1195062912
H   H164      1.0  0.21630  0.81540  0.17380  1.0000 0.1116031324
H   H165      1.0  0.28930  0.81580  0.02150  1.0000 0.1304500258
H   H166      1.0  0.17840  0.85770  0.94850  1.0000 0.1116031324
H   H167      1.0  0.05810  0.70300  0.89200  1.0000 0.1195062912
H   H168      1.0  0.16360  0.66010  0.96540  1.0000 0.1304500258
H   H169      1.0  0.25840  0.89520  0.67050  1.0000 0.1195062912
H   H170      1.0  0.35170  0.94810  0.60980  1.0000 0.1304500258
H   H171      1.0  0.98720  0.00090  0.55170  1.0000 0.1304500258
H   H172      1.0  0.89750  0.95320  0.61480  1.0000 0.1195062912
H   H173      1.0  0.25310  0.91320  0.50850  1.0000 0.1195062912
H   H174      1.0  0.33760  0.88820  0.43680  1.0000 0.1116031324
H   H175      1.0  0.41000  0.05310  0.40920  1.0000 0.1116031324
H   H176      1.0  0.32640  0.08030  0.48090  1.0000 0.1389003737
C   C1        1.0  0.54690  0.58550  0.16120  1.0000 0.5097014149
C   C2        1.0  0.60770  0.55920  0.11730  1.0000 -0.0297957551
C   C3        1.0  0.57320  0.57790  0.06920  1.0000 -0.1002662873
C   C4        1.0  0.62270  0.55020  0.02910  1.0000 -0.2390220399
C   C5        1.0  0.70670  0.50410  0.03860  1.0000 0.2517277588
C   C6        1.0  0.73800  0.48400  0.08720  1.0000 -0.2118113759
C   C7        1.0  0.68820  0.51030  0.12560  1.0000 -0.0926495074
C   C8        1.0  0.79060  0.50200  0.96020  1.0000 0.2299229418
C   C9        1.0  0.86800  0.55170  0.96480  1.0000 -0.201368983
C   C10       1.0  0.91610  0.57370  0.92570  1.0000 -0.1002662873
C   C11       1.0  0.88540  0.54940  0.87730  1.0000 -0.0197322472
C   C12       1.0  0.80930  0.50030  0.87240  1.0000 -0.1002662873
C   C13       1.0  0.76080  0.47660  0.91300  1.0000 -0.201368983
C   C14       1.0  0.94570  0.57360  0.83250  1.0000 0.5097014149
C   C15       1.0  0.16590  0.64190  0.16990  1.0000 0.1195062912
C   C16       1.0  0.10980  0.61990  0.24110  1.0000 -0.0404098044
C   C17       1.0  0.00060  0.63190  0.21120  1.0000 -0.1002662873
C   C18       1.0  0.94920  0.67230  0.12510  1.0000 0.150365441
C   C19       1.0  0.86510  0.71450  0.13290  1.0000 -0.1638836908
C   C20       1.0  0.79690  0.74400  0.09310  1.0000 -0.1289894197
C   C21       1.0  0.80960  0.73000  0.04360  1.0000 0.0715485237
C   C22       1.0  0.89240  0.68480  0.03460  1.0000 -0.1289894197
C   C23       1.0  0.96630  0.65700  0.07430  1.0000 -0.1796217403
C   C24       1.0  0.74370  0.76310  0.99890  1.0000 -0.0297957551
C   C25       1.0  0.74110  0.82050  0.99770  1.0000 -0.0297957551
C   C26       1.0  0.81410  0.85720  0.04020  1.0000 0.0715485237
C   C27       1.0  0.95070  0.85630  0.05300  1.0000 -0.1289894197
C   C28       1.0  0.01620  0.88910  0.09060  1.0000 -0.1700968425
C   C29       1.0  0.94530  0.92440  0.11860  1.0000 0.150365441
C   C30       1.0  0.80680  0.92550  0.10740  1.0000 -0.1796217403
C   C31       1.0  0.74040  0.89220  0.06790  1.0000 -0.1289894197
C   C32       1.0  0.99510  0.01900  0.16040  1.0000 0.0938472514
C   C33       1.0  0.11050  0.94640  0.19760  1.0000 -0.109653961
C   C34       1.0  0.15110  0.99400  0.22120  1.0000 -0.0507481934
C   C35       1.0  0.67130  0.72800  0.95580  1.0000 0.0641152886
C   C36       1.0  0.56350  0.69420  0.96190  1.0000 -0.1289894197
C   C37       1.0  0.49050  0.66450  0.92270  1.0000 -0.1890763899
C   C38       1.0  0.53150  0.66680  0.87490  1.0000 0.1577771892
C   C39       1.0  0.64600  0.69750  0.86770  1.0000 -0.1796217403
C   C40       1.0  0.71560  0.72730  0.90870  1.0000 -0.1289894197
C   C41       1.0  0.32160  0.63760  0.82280  1.0000 0.1195062912
C   C42       1.0  0.49900  0.61070  0.79060  1.0000 -0.1198651093
C   C43       1.0  0.39000  0.59710  0.76020  1.0000 -0.0404098044
C   C44       1.0  0.66700  0.85360  0.95460  1.0000 0.0715485237
C   C45       1.0  0.52910  0.84670  0.94020  1.0000 -0.1289894197
C   C46       1.0  0.46130  0.87710  0.90220  1.0000 -0.1700968425
C   C47       1.0  0.52920  0.91580  0.87560  1.0000 0.1577771892
C   C48       1.0  0.66690  0.92290  0.88780  1.0000 -0.1890763899
C   C49       1.0  0.73320  0.89250  0.92770  1.0000 -0.1289894197
C   C50       1.0  0.33660  0.93000  0.80660  1.0000 -0.109653961
C   C51       1.0  0.31230  0.96900  0.76960  1.0000 -0.0404098044
C   C52       1.0  0.49980  0.99350  0.81100  1.0000 0.0995606919
C   C53       1.0  0.94770  0.66520  0.67100  1.0000 0.5323299805
C   C54       1.0  0.88640  0.70270  0.62730  1.0000 -0.0297957551
C   C55       1.0  0.88870  0.76140  0.63000  1.0000 -0.1002662873
C   C56       1.0  0.82820  0.79410  0.58930  1.0000 -0.2390220399
C   C57       1.0  0.76360  0.76650  0.54590  1.0000 0.2697846432
C   C58       1.0  0.76000  0.70590  0.54280  1.0000 -0.2390220399
C   C59       1.0  0.82150  0.67600  0.58310  1.0000 -0.1002662873
C   C60       1.0  0.66550  0.77720  0.45880  1.0000 0.2098819901
C   C61       1.0  0.75760  0.75270  0.43330  1.0000 -0.201368983
C   C62       1.0  0.71390  0.72900  0.38660  1.0000 -0.109653961
C   C63       1.0  0.58360  0.72920  0.36670  1.0000 -0.0016030169
C   C64       1.0  0.49470  0.75500  0.39180  1.0000 -0.0926495074
C   C65       1.0  0.53520  0.77830  0.43970  1.0000 -0.201368983
C   C66       1.0  0.53400  0.69480  0.31830  1.0000 0.5323299805
C   C67       1.0  0.00950  0.49660  0.66600  1.0000 0.1116031324
C   C68       1.0  0.18130  0.47310  0.71830  1.0000 -0.0297957551
C   C69       1.0  0.15370  0.42790  0.68540  1.0000 -0.1450163881
C   C70       1.0  0.97590  0.41190  0.60900  1.0000 0.1389003737
C   C71       1.0  0.83970  0.40910  0.60010  1.0000 -0.1700968425
C   C72       1.0  0.77510  0.38060  0.55840  1.0000 -0.1289894197
C   C73       1.0  0.84810  0.35140  0.52610  1.0000 0.0715485237
C   C74       1.0  0.98720  0.35410  0.53670  1.0000 -0.1385179843
C   C75       1.0  0.05050  0.38440  0.57910  1.0000 -0.1638836908
C   C76       1.0  0.77780  0.32060  0.48020  1.0000 -0.0297957551
C   C77       1.0  0.78370  0.26490  0.47340  1.0000 -0.0297957551
C   C78       1.0  0.85200  0.22450  0.51180  1.0000 0.0715485237
C   C79       1.0  0.83800  0.22950  0.56300  1.0000 -0.1289894197
C   C80       1.0  0.90290  0.19570  0.59930  1.0000 -0.1638836908
C   C81       1.0  0.98760  0.15470  0.58550  1.0000 0.1389003737
C   C82       1.0  0.00030  0.14650  0.53510  1.0000 -0.1700968425
C   C83       1.0  0.93430  0.18050  0.49810  1.0000 -0.1289894197
C   C84       1.0  0.01360  0.10100  0.66730  1.0000 -0.109653961
C   C85       1.0  0.11630  0.07960  0.69670  1.0000 -0.0507481934
C   C86       1.0  0.19420  0.11130  0.63230  1.0000 0.1304500258
C   C87       1.0  0.71640  0.23820  0.42390  1.0000 0.0715485237
C   C88       1.0  0.74340  0.25680  0.37830  1.0000 -0.109653961
C   C89       1.0  0.66680  0.24070  0.33320  1.0000 -0.1700968425
C   C90       1.0  0.56300  0.20190  0.33490  1.0000 0.1389003737
C   C91       1.0  0.53640  0.18160  0.38000  1.0000 -0.1796217403
C   C92       1.0  0.61440  0.19840  0.42450  1.0000 -0.1385179843
C   C93       1.0  0.35610  0.16320  0.28580  1.0000 0.1116031324
C   C94       1.0  0.49550  0.20020  0.23920  1.0000 -0.109653961
C   C95       1.0  0.38590  0.18210  0.21000  1.0000 -0.0404098044
C   C96       1.0  0.69830  0.35990  0.44320  1.0000 0.0715485237
C   C97       1.0  0.75860  0.40480  0.42240  1.0000 -0.1289894197
C   C98       1.0  0.68550  0.44220  0.38850  1.0000 -0.1890763899
C   C99       1.0  0.55040  0.43370  0.37710  1.0000 0.1389003737
C   C100      1.0  0.48840  0.38850  0.39650  1.0000 -0.1638836908
C   C101      1.0  0.56250  0.35210  0.42990  1.0000 -0.1289894197
C   C102      1.0  0.50050  0.52630  0.33140  1.0000 0.1116031324
C   C103      1.0  0.35540  0.45770  0.31080  1.0000 -0.109653961
C   C104      1.0  0.32190  0.50450  0.28320  1.0000 -0.0404098044
C   C105      1.0  0.53620  0.15640  0.78300  1.0000 0.5407697697
C   C106      1.0  0.58920  0.19780  0.82680  1.0000 -0.0016030169
C   C107      1.0  0.49950  0.22690  0.84880  1.0000 -0.1002662873
C   C108      1.0  0.54310  0.25930  0.89290  1.0000 -0.201368983
C   C109      1.0  0.67400  0.26160  0.91110  1.0000 0.2098819901
C   C110      1.0  0.76440  0.23540  0.88660  1.0000 -0.2204409729
C   C111      1.0  0.72070  0.20310  0.84380  1.0000 -0.1002662873
C   C112      1.0  0.77270  0.26420  0.99820  1.0000 0.2391594191
C   C113      1.0  0.76140  0.20710  0.00420  1.0000 -0.2204409729
C   C114      1.0  0.82490  0.18280  0.04810  1.0000 -0.109653961
C   C115      1.0  0.89330  0.21460  0.08750  1.0000 -0.0507481934
C   C116      1.0  0.89650  0.27380  0.08130  1.0000 -0.1002662873
C   C117      1.0  0.83590  0.29940  0.03790  1.0000 -0.2204409729
C   C118      1.0  0.95700  0.18640  0.13440  1.0000 0.5218616863
C   C119      1.0  0.99240  0.10710  0.30860  1.0000 0.5097014149
C   C120      1.0  0.92880  0.07940  0.35220  1.0000 -0.0297957551
C   C121      1.0  0.79670  0.08170  0.35330  1.0000 -0.0926495074
C   C122      1.0  0.74170  0.05030  0.38900  1.0000 -0.201368983
C   C123      1.0  0.82020  0.01720  0.42210  1.0000 0.2299229418
C   C124      1.0  0.95590  0.01880  0.42250  1.0000 -0.2118113759
C   C125      1.0  0.00910  0.04810  0.38650  1.0000 -0.1002662873
C   C126      1.0  0.71730  0.00070  0.49730  1.0000 0.2517277588
C   C127      1.0  0.71420  0.05790  0.51180  1.0000 -0.2204409729
C   C128      1.0  0.66510  0.07230  0.55430  1.0000 -0.0926495074
C   C129      1.0  0.61830  0.03220  0.58570  1.0000 -0.0574198226
C   C130      1.0  0.62280  0.97570  0.57040  1.0000 -0.1002662873
C   C131      1.0  0.67120  0.95910  0.52790  1.0000 -0.201368983
C   C132      1.0  0.56500  0.04840  0.63180  1.0000 0.5323299805
C   C133      1.0  0.45310  0.41450  0.83880  1.0000 0.5097014149
C   C134      1.0  0.39230  0.44080  0.88270  1.0000 -0.0297957551
C   C135      1.0  0.42680  0.42210  0.93080  1.0000 -0.1002662873
C   C136      1.0  0.37730  0.44980  0.97090  1.0000 -0.2390220399
C   C137      1.0  0.29330  0.49590  0.96140  1.0000 0.2517277588
C   C138      1.0  0.26200  0.51600  0.91280  1.0000 -0.2118113759
C   C139      1.0  0.31180  0.48970  0.87440  1.0000 -0.0926495074
C   C140      1.0  0.20940  0.49800  0.03980  1.0000 0.2299229418
C   C141      1.0  0.13200  0.44830  0.03520  1.0000 -0.201368983
C   C142      1.0  0.08390  0.42630  0.07430  1.0000 -0.1002662873
C   C143      1.0  0.11460  0.45060  0.12270  1.0000 -0.0197322472
C   C144      1.0  0.19070  0.49970  0.12760  1.0000 -0.1002662873
C   C145      1.0  0.23920  0.52340  0.08700  1.0000 -0.201368983
C   C146      1.0  0.05430  0.42640  0.16750  1.0000 0.5097014149
C   C147      1.0  0.83410  0.35810  0.83010  1.0000 0.1195062912
C   C148      1.0  0.89020  0.38010  0.75890  1.0000 -0.0404098044
C   C149      1.0  0.99940  0.36810  0.78880  1.0000 -0.1002662873
C   C150      1.0  0.05080  0.32770  0.87490  1.0000 0.150365441
C   C151      1.0  0.13490  0.28550  0.86710  1.0000 -0.1638836908
C   C152      1.0  0.20310  0.25600  0.90690  1.0000 -0.1289894197
C   C153      1.0  0.19040  0.27000  0.95640  1.0000 0.0715485237
C   C154      1.0  0.10760  0.31520  0.96540  1.0000 -0.1289894197
C   C155      1.0  0.03370  0.34300  0.92570  1.0000 -0.1796217403
C   C156      1.0  0.25630  0.23690  0.00110  1.0000 -0.0297957551
C   C157      1.0  0.25890  0.17950  0.00230  1.0000 -0.0297957551
C   C158      1.0  0.18590  0.14280  0.95980  1.0000 0.0715485237
C   C159      1.0  0.04930  0.14370  0.94700  1.0000 -0.1289894197
C   C160      1.0  0.98380  0.11090  0.90940  1.0000 -0.1700968425
C   C161      1.0  0.05470  0.07560  0.88140  1.0000 0.150365441
C   C162      1.0  0.19320  0.07450  0.89260  1.0000 -0.1796217403
C   C163      1.0  0.25960  0.10780  0.93210  1.0000 -0.1289894197
C   C164      1.0  0.00490  0.98100  0.83960  1.0000 0.0938472514
C   C165      1.0  0.88950  0.05360  0.80240  1.0000 -0.109653961
C   C166      1.0  0.84890  0.00600  0.77880  1.0000 -0.0507481934
C   C167      1.0  0.32870  0.27200  0.04420  1.0000 0.0641152886
C   C168      1.0  0.43650  0.30580  0.03810  1.0000 -0.1198651093
C   C169      1.0  0.50950  0.33550  0.07730  1.0000 -0.1890763899
C   C170      1.0  0.46850  0.33320  0.12510  1.0000 0.1577771892
C   C171      1.0  0.35400  0.30250  0.13230  1.0000 -0.1796217403
C   C172      1.0  0.28440  0.27270  0.09130  1.0000 -0.1289894197
C   C173      1.0  0.67840  0.36240  0.17720  1.0000 0.1195062912
C   C174      1.0  0.50100  0.38930  0.20940  1.0000 -0.1198651093
C   C175      1.0  0.61000  0.40290  0.23980  1.0000 -0.0404098044
C   C176      1.0  0.33300  0.14640  0.04540  1.0000 0.0715485237
C   C177      1.0  0.47090  0.15330  0.05980  1.0000 -0.1198651093
C   C178      1.0  0.53870  0.12290  0.09780  1.0000 -0.1700968425
C   C179      1.0  0.47080  0.08420  0.12440  1.0000 0.1577771892
C   C180      1.0  0.33310  0.07710  0.11220  1.0000 -0.1890763899
C   C181      1.0  0.26680  0.10750  0.07230  1.0000 -0.1289894197
C   C182      1.0  0.66340  0.07000  0.19340  1.0000 -0.109653961
C   C183      1.0  0.68770  0.03100  0.23040  1.0000 -0.0404098044
C   C184      1.0  0.50020  0.00650  0.18900  1.0000 0.0995606919
C   C185      1.0  0.05230  0.33480  0.32900  1.0000 0.5323299805
C   C186      1.0  0.11360  0.29730  0.37270  1.0000 -0.0297957551
C   C187      1.0  0.11130  0.23860  0.37000  1.0000 -0.1002662873
C   C188      1.0  0.17180  0.20590  0.41070  1.0000 -0.2390220399
C   C189      1.0  0.23640  0.23350  0.45410  1.0000 0.2697846432
C   C190      1.0  0.24000  0.29410  0.45720  1.0000 -0.2390220399
C   C191      1.0  0.17850  0.32400  0.41690  1.0000 -0.1002662873
C   C192      1.0  0.33450  0.22280  0.54120  1.0000 0.2098819901
C   C193      1.0  0.24240  0.24730  0.56670  1.0000 -0.201368983
C   C194      1.0  0.28610  0.27100  0.61340  1.0000 -0.109653961
C   C195      1.0  0.41640  0.27080  0.63330  1.0000 -0.0016030169
C   C196      1.0  0.50530  0.24500  0.60820  1.0000 -0.0926495074
C   C197      1.0  0.46480  0.22170  0.56030  1.0000 -0.201368983
C   C198      1.0  0.46600  0.30520  0.68170  1.0000 0.5323299805
C   C199      1.0  0.99050  0.50340  0.33400  1.0000 0.1116031324
C   C200      1.0  0.81870  0.52690  0.28170  1.0000 -0.0297957551
C   C201      1.0  0.84630  0.57210  0.31460  1.0000 -0.1450163881
C   C202      1.0  0.02410  0.58810  0.39100  1.0000 0.1389003737
C   C203      1.0  0.16030  0.59090  0.39990  1.0000 -0.1700968425
C   C204      1.0  0.22490  0.61940  0.44160  1.0000 -0.1289894197
C   C205      1.0  0.15190  0.64860  0.47390  1.0000 0.0715485237
C   C206      1.0  0.01280  0.64590  0.46330  1.0000 -0.1385179843
C   C207      1.0  0.94950  0.61560  0.42090  1.0000 -0.1638836908
C   C208      1.0  0.22220  0.67940  0.51980  1.0000 -0.0297957551
C   C209      1.0  0.21630  0.73510  0.52660  1.0000 -0.0297957551
C   C210      1.0  0.14800  0.77550  0.48820  1.0000 0.0715485237
C   C211      1.0  0.16200  0.77050  0.43700  1.0000 -0.1289894197
C   C212      1.0  0.09710  0.80430  0.40070  1.0000 -0.1638836908
C   C213      1.0  0.01240  0.84530  0.41450  1.0000 0.1389003737
C   C214      1.0  0.99970  0.85350  0.46490  1.0000 -0.1700968425
C   C215      1.0  0.06570  0.81950  0.50190  1.0000 -0.1289894197
C   C216      1.0  0.98640  0.89900  0.33270  1.0000 -0.109653961
C   C217      1.0  0.88370  0.92040  0.30330  1.0000 -0.0507481934
C   C218      1.0  0.80580  0.88870  0.36770  1.0000 0.1304500258
C   C219      1.0  0.28360  0.76180  0.57610  1.0000 0.0715485237
C   C220      1.0  0.25660  0.74320  0.62170  1.0000 -0.109653961
C   C221      1.0  0.33320  0.75930  0.66680  1.0000 -0.1700968425
C   C222      1.0  0.43700  0.79810  0.66510  1.0000 0.1389003737
C   C223      1.0  0.46360  0.81840  0.62000  1.0000 -0.1796217403
C   C224      1.0  0.38560  0.80160  0.57550  1.0000 -0.1385179843
C   C225      1.0  0.64390  0.83680  0.71420  1.0000 0.1116031324
C   C226      1.0  0.50450  0.79980  0.76080  1.0000 -0.109653961
C   C227      1.0  0.61410  0.81790  0.79000  1.0000 -0.0404098044
C   C228      1.0  0.30170  0.64010  0.55680  1.0000 0.0715485237
C   C229      1.0  0.24140  0.59520  0.57760  1.0000 -0.1289894197
C   C230      1.0  0.31450  0.55780  0.61150  1.0000 -0.1890763899
C   C231      1.0  0.44960  0.56630  0.62290  1.0000 0.1389003737
C   C232      1.0  0.51160  0.61150  0.60350  1.0000 -0.1638836908
C   C233      1.0  0.43750  0.64790  0.57010  1.0000 -0.1289894197
C   C234      1.0  0.49950  0.47370  0.66860  1.0000 0.1116031324
C   C235      1.0  0.64460  0.54230  0.68920  1.0000 -0.109653961
C   C236      1.0  0.67810  0.49550  0.71680  1.0000 -0.0404098044
C   C237      1.0  0.46380  0.84360  0.21700  1.0000 0.5407697697
C   C238      1.0  0.41080  0.80220  0.17320  1.0000 -0.0016030169
C   C239      1.0  0.50050  0.77310  0.15120  1.0000 -0.1002662873
C   C240      1.0  0.45690  0.74070  0.10710  1.0000 -0.201368983
C   C241      1.0  0.32600  0.73840  0.08890  1.0000 0.2098819901
C   C242      1.0  0.23560  0.76460  0.11340  1.0000 -0.2204409729
C   C243      1.0  0.27930  0.79690  0.15620  1.0000 -0.1002662873
C   C244      1.0  0.22730  0.73580  0.00180  1.0000 0.2391594191
C   C245      1.0  0.23860  0.79290  0.99580  1.0000 -0.2204409729
C   C246      1.0  0.17510  0.81720  0.95190  1.0000 -0.109653961
C   C247      1.0  0.10670  0.78540  0.91250  1.0000 -0.0507481934
C   C248      1.0  0.10350  0.72620  0.91870  1.0000 -0.1002662873
C   C249      1.0  0.16410  0.70060  0.96210  1.0000 -0.2204409729
C   C250      1.0  0.04300  0.81360  0.86560  1.0000 0.5218616863
C   C251      1.0  0.00760  0.89290  0.69140  1.0000 0.5097014149
C   C252      1.0  0.07120  0.92060  0.64780  1.0000 -0.0297957551
C   C253      1.0  0.20330  0.91830  0.64670  1.0000 -0.0926495074
C   C254      1.0  0.25830  0.94970  0.61100  1.0000 -0.201368983
C   C255      1.0  0.17980  0.98280  0.57790  1.0000 0.2299229418
C   C256      1.0  0.04410  0.98120  0.57750  1.0000 -0.2118113759
C   C257      1.0  0.99090  0.95190  0.61350  1.0000 -0.1002662873
C   C258      1.0  0.28270  0.99930  0.50270  1.0000 0.2517277588
C   C259      1.0  0.28580  0.94210  0.48820  1.0000 -0.2204409729
C   C260      1.0  0.33490  0.92770  0.44570  1.0000 -0.0926495074
C   C261      1.0  0.38170  0.96780  0.41430  1.0000 -0.0574198226
C   C262      1.0  0.37720  0.02430  0.42960  1.0000 -0.1002662873
C   C263      1.0  0.32880  0.04090  0.47210  1.0000 -0.201368983
C   C264      1.0  0.43500  0.95160  0.36820  1.0000 0.5323299805
N   N1        1.0  0.21880  0.62540  0.21510  1.0000 -0.290404655
N   N2        1.0  0.03490  0.64750  0.16520  1.0000 0.0018526667
N   N3        1.0  0.01570  0.96140  0.15710  1.0000 0.0018526667
N   N4        1.0  0.08120  0.03920  0.19750  1.0000 -0.290404655
N   N5        1.0  0.46040  0.94670  0.83360  1.0000 0.0018526667
N   N6        1.0  0.41250  0.00940  0.77190  1.0000 -0.290404655
N   N7        1.0  0.45310  0.64010  0.83240  1.0000 -0.0075242618
N   N8        1.0  0.27610  0.61390  0.77900  1.0000 -0.290404655
N   N9        1.0  0.09210  0.51520  0.70560  1.0000 -0.290404655
N   N10       1.0  0.04170  0.44510  0.65170  1.0000 -0.0016030169
N   N11       1.0  0.47220  0.47240  0.34220  1.0000 -0.0016030169
N   N12       1.0  0.41310  0.54720  0.29610  1.0000 -0.290404655
N   N13       1.0  0.23260  0.08720  0.67450  1.0000 -0.290404655
N   N14       1.0  0.06290  0.12120  0.62470  1.0000 -0.0075242618
N   N15       1.0  0.47620  0.18800  0.28910  1.0000 0.0018526667
N   N16       1.0  0.29300  0.15970  0.23840  1.0000 -0.2956069569
N   N17       1.0  0.78120  0.37460  0.78490  1.0000 -0.290404655
N   N18       1.0  0.96510  0.35250  0.83480  1.0000 -0.0016030169
N   N19       1.0  0.98430  0.03860  0.84290  1.0000 0.0018526667
N   N20       1.0  0.91880  0.96080  0.80250  1.0000 -0.290404655
N   N21       1.0  0.53960  0.05330  0.16640  1.0000 0.0018526667
N   N22       1.0  0.58750  0.99060  0.22810  1.0000 -0.290404655
N   N23       1.0  0.54690  0.35990  0.16760  1.0000 -0.0075242618
N   N24       1.0  0.72390  0.38610  0.22100  1.0000 -0.290404655
N   N25       1.0  0.90790  0.48480  0.29440  1.0000 -0.290404655
N   N26       1.0  0.95830  0.55490  0.34830  1.0000 -0.0016030169
N   N27       1.0  0.52780  0.52760  0.65780  1.0000 -0.0016030169
N   N28       1.0  0.58690  0.45280  0.70390  1.0000 -0.290404655
N   N29       1.0  0.76740  0.91280  0.32550  1.0000 -0.290404655
N   N30       1.0  0.93710  0.87880  0.37530  1.0000 -0.0075242618
N   N31       1.0  0.52380  0.81200  0.71090  1.0000 0.0018526667
N   N32       1.0  0.70700  0.84030  0.76160  1.0000 -0.2956069569
O   O1        1.0  0.46460  0.62120  0.15340  1.0000 -0.4600618939
O   O2        1.0  0.58150  0.56630  0.20480  1.0000 -0.5068087439
O   O3        1.0  0.74880  0.47270  0.00120  1.0000 -0.201368983
O   O4        1.0  0.02680  0.61200  0.83880  1.0000 -0.4994337271
O   O5        1.0  0.90970  0.55270  0.79010  1.0000 -0.4994337271
O   O6        1.0  0.03130  0.68520  0.70510  1.0000 -0.5068087439
O   O7        1.0  0.90770  0.61470  0.67200  1.0000 -0.5518999259
O   O8        1.0  0.70590  0.80110  0.50770  1.0000 -0.2296141247
O   O9        1.0  0.41500  0.69730  0.29960  1.0000 -0.5203552618
O   O10       1.0  0.61330  0.66560  0.29920  1.0000 -0.5203552618
O   O11       1.0  0.41870  0.15740  0.76410  1.0000 -0.5203552618
O   O12       1.0  0.61810  0.12350  0.76830  1.0000 -0.5421470861
O   O13       1.0  0.71550  0.29460  0.95500  1.0000 -0.2390220399
O   O14       1.0  0.04480  0.21020  0.16300  1.0000 -0.4768898349
O   O15       1.0  0.91560  0.13710  0.14450  1.0000 -0.5604837398
O   O16       1.0  0.91440  0.12850  0.27280  1.0000 -0.5068087439
O   O17       1.0  0.10910  0.10730  0.30870  1.0000 -0.4703847627
O   O18       1.0  0.76660  0.98050  0.45470  1.0000 -0.2204409729
O   O19       1.0  0.54230  0.10180  0.64000  1.0000 -0.5518999259
O   O20       1.0  0.54590  0.01290  0.66490  1.0000 -0.5203552618
O   O21       1.0  0.53540  0.37880  0.84660  1.0000 -0.4600618939
O   O22       1.0  0.41850  0.43370  0.79520  1.0000 -0.5068087439
O   O23       1.0  0.25120  0.52730  0.99880  1.0000 -0.201368983
O   O24       1.0  0.97320  0.38800  0.16120  1.0000 -0.4994337271
O   O25       1.0  0.09030  0.44730  0.20990  1.0000 -0.4994337271
O   O26       1.0  0.96870  0.31480  0.29490  1.0000 -0.5068087439
O   O27       1.0  0.09230  0.38530  0.32800  1.0000 -0.5518999259
O   O28       1.0  0.29410  0.19890  0.49230  1.0000 -0.2296141247
O   O29       1.0  0.58500  0.30270  0.70040  1.0000 -0.5203552618
O   O30       1.0  0.38670  0.33440  0.70080  1.0000 -0.5203552618
O   O31       1.0  0.58130  0.84260  0.23590  1.0000 -0.5203552618
O   O32       1.0  0.38190  0.87650  0.23170  1.0000 -0.5421470861
O   O33       1.0  0.28450  0.70540  0.04500  1.0000 -0.2390220399
O   O34       1.0  0.95520  0.78980  0.83700  1.0000 -0.4768898349
O   O35       1.0  0.08440  0.86290  0.85550  1.0000 -0.5604837398
O   O36       1.0  0.08560  0.87150  0.72720  1.0000 -0.5068087439
O   O37       1.0  0.89090  0.89270  0.69130  1.0000 -0.4703847627
O   O38       1.0  0.23340  0.01950  0.54530  1.0000 -0.2204409729
O   O39       1.0  0.45770  0.89820  0.36000  1.0000 -0.5518999259
O   O40       1.0  0.45410  0.98710  0.33510  1.0000 -0.5250567059
