# DDEC6 charges by PACMAN v1.1 (https://github.com/mtap-research/PACMAN-charge/)
data_2019[Sc][soc]3[ASR]1
_chemical_formula_sum              "Sc20 H84 C216 O114"
_cell_length_a       21.9814
_cell_length_b       21.9814
_cell_length_c       21.9814
_cell_angle_alpha    95.2955
_cell_angle_beta     95.2955
_cell_angle_gamma    95.2955

_symmetry_space_group_name_H-M    "P 1"
_symmetry_Int_Tables_number       1

loop_
  _symmetry_equiv_pos_as_xyz
  'x, y, z'

loop_
  _atom_site_type_symbol
  _atom_site_label
  _atom_site_symmetry_multiplicity
  _atom_site_fract_x
  _atom_site_fract_y
  _atom_site_fract_z
  _atom_site_occupancy
  _atom_site_charge
Sc  Sc1       1.0  0.68951  0.16848  0.24234  1.0000 1.8106637427
Sc  Sc2       1.0  0.16848  0.24234  0.68951  1.0000 1.8106637427
Sc  Sc3       1.0  0.24234  0.68951  0.16848  1.0000 1.8106637427
Sc  Sc4       1.0  0.81049  0.25766  0.33152  1.0000 1.8106637427
Sc  Sc5       1.0  0.33152  0.81049  0.25766  1.0000 1.8106637427
Sc  Sc6       1.0  0.25766  0.33152  0.81049  1.0000 1.8106637427
Sc  Sc7       1.0  0.31049  0.83152  0.75766  1.0000 1.8106637427
Sc  Sc8       1.0  0.83152  0.75766  0.31049  1.0000 1.8106637427
Sc  Sc9       1.0  0.75766  0.31049  0.83152  1.0000 1.8106637427
Sc  Sc10      1.0  0.18951  0.74234  0.66848  1.0000 1.8106637427
Sc  Sc11      1.0  0.66848  0.18951  0.74234  1.0000 1.8106637427
Sc  Sc12      1.0  0.74234  0.66848  0.18951  1.0000 1.8106637427
Sc  Sc13      1.0  0.75000  0.30637  0.19363  1.0000 1.8106637427
Sc  Sc14      1.0  0.30637  0.19363  0.75000  1.0000 1.8106637427
Sc  Sc15      1.0  0.19363  0.75000  0.30637  1.0000 1.8106637427
Sc  Sc16      1.0  0.25000  0.69363  0.80637  1.0000 1.8106637427
Sc  Sc17      1.0  0.69363  0.80637  0.25000  1.0000 1.8106637427
Sc  Sc18      1.0  0.80637  0.25000  0.69363  1.0000 1.8106637427
Sc  Sc19      1.0  0.25000  0.25000  0.25000  1.0000 1.7783703038
Sc  Sc20      1.0  0.75000  0.75000  0.75000  1.0000 1.7783703038
H   H1        1.0  0.63090  0.06630  0.25780  1.0000 0.4289030659
H   H2        1.0  0.50960  0.21480  0.23630  1.0000 0.1402433689
H   H3        1.0  0.57190  0.38110  0.18770  1.0000 0.1402433689
H   H4        1.0  0.39520  0.34900  0.22520  1.0000 0.1487742293
H   H5        1.0  0.38710  0.56990  0.19210  1.0000 0.1487742293
H   H6        1.0  0.57180  0.56510  0.20450  1.0000 0.1402433689
H   H7        1.0  0.50050  0.72860  0.22090  1.0000 0.1402433689
H   H8        1.0  0.06630  0.25780  0.63090  1.0000 0.4289030659
H   H9        1.0  0.21480  0.23630  0.50960  1.0000 0.1402433689
H   H10       1.0  0.38110  0.18770  0.57190  1.0000 0.1402433689
H   H11       1.0  0.34900  0.22520  0.39520  1.0000 0.1487742293
H   H12       1.0  0.56990  0.19210  0.38710  1.0000 0.1487742293
H   H13       1.0  0.56510  0.20450  0.57180  1.0000 0.1402433689
H   H14       1.0  0.72860  0.22090  0.50050  1.0000 0.1402433689
H   H15       1.0  0.25780  0.63090  0.06630  1.0000 0.4289030659
H   H16       1.0  0.23630  0.50960  0.21480  1.0000 0.1402433689
H   H17       1.0  0.18770  0.57190  0.38110  1.0000 0.1402433689
H   H18       1.0  0.22520  0.39520  0.34900  1.0000 0.1487742293
H   H19       1.0  0.19210  0.38710  0.56990  1.0000 0.1487742293
H   H20       1.0  0.20450  0.57180  0.56510  1.0000 0.1402433689
H   H21       1.0  0.22090  0.50050  0.72860  1.0000 0.1402433689
H   H22       1.0  0.86910  0.24220  0.43370  1.0000 0.4289030659
H   H23       1.0  0.99040  0.26370  0.28520  1.0000 0.1402433689
H   H24       1.0  0.92810  0.31230  0.11890  1.0000 0.1402433689
H   H25       1.0  0.10480  0.27480  0.15100  1.0000 0.1487742293
H   H26       1.0  0.11290  0.30790  0.93010  1.0000 0.1487742293
H   H27       1.0  0.92820  0.29550  0.93490  1.0000 0.1402433689
H   H28       1.0  0.99950  0.27910  0.77140  1.0000 0.1402433689
H   H29       1.0  0.43370  0.86910  0.24220  1.0000 0.4289030659
H   H30       1.0  0.28520  0.99040  0.26370  1.0000 0.1402433689
H   H31       1.0  0.11890  0.92810  0.31230  1.0000 0.1402433689
H   H32       1.0  0.15100  0.10480  0.27480  1.0000 0.1487742293
H   H33       1.0  0.93010  0.11290  0.30790  1.0000 0.1487742293
H   H34       1.0  0.93490  0.92820  0.29550  1.0000 0.1402433689
H   H35       1.0  0.77140  0.99950  0.27910  1.0000 0.1402433689
H   H36       1.0  0.24220  0.43370  0.86910  1.0000 0.4289030659
H   H37       1.0  0.26370  0.28520  0.99040  1.0000 0.1402433689
H   H38       1.0  0.31230  0.11890  0.92810  1.0000 0.1402433689
H   H39       1.0  0.27480  0.15100  0.10480  1.0000 0.1487742293
H   H40       1.0  0.30790  0.93010  0.11290  1.0000 0.1487742293
H   H41       1.0  0.29550  0.93490  0.92820  1.0000 0.1402433689
H   H42       1.0  0.27910  0.77140  0.99950  1.0000 0.1402433689
H   H43       1.0  0.36910  0.93370  0.74220  1.0000 0.4289030659
H   H44       1.0  0.49040  0.78520  0.76370  1.0000 0.1402433689
H   H45       1.0  0.42810  0.61890  0.81230  1.0000 0.1402433689
H   H46       1.0  0.60480  0.65100  0.77480  1.0000 0.1487742293
H   H47       1.0  0.61290  0.43010  0.80790  1.0000 0.1487742293
H   H48       1.0  0.42820  0.43490  0.79550  1.0000 0.1402433689
H   H49       1.0  0.49950  0.27140  0.77910  1.0000 0.1402433689
H   H50       1.0  0.93370  0.74220  0.36910  1.0000 0.4289030659
H   H51       1.0  0.78520  0.76370  0.49040  1.0000 0.1402433689
H   H52       1.0  0.61890  0.81230  0.42810  1.0000 0.1402433689
H   H53       1.0  0.65100  0.77480  0.60480  1.0000 0.1487742293
H   H54       1.0  0.43010  0.80790  0.61290  1.0000 0.1487742293
H   H55       1.0  0.43490  0.79550  0.42820  1.0000 0.1402433689
H   H56       1.0  0.27140  0.77910  0.49950  1.0000 0.1402433689
H   H57       1.0  0.74220  0.36910  0.93370  1.0000 0.4289030659
H   H58       1.0  0.76370  0.49040  0.78520  1.0000 0.1402433689
H   H59       1.0  0.81230  0.42810  0.61890  1.0000 0.1402433689
H   H60       1.0  0.77480  0.60480  0.65100  1.0000 0.1487742293
H   H61       1.0  0.80790  0.61290  0.43010  1.0000 0.1487742293
H   H62       1.0  0.79550  0.42820  0.43490  1.0000 0.1402433689
H   H63       1.0  0.77910  0.49950  0.27140  1.0000 0.1402433689
H   H64       1.0  0.13090  0.75780  0.56630  1.0000 0.4289030659
H   H65       1.0  0.00960  0.73630  0.71480  1.0000 0.1402433689
H   H66       1.0  0.07190  0.68770  0.88110  1.0000 0.1402433689
H   H67       1.0  0.89520  0.72520  0.84900  1.0000 0.1487742293
H   H68       1.0  0.88710  0.69210  0.06990  1.0000 0.1487742293
H   H69       1.0  0.07180  0.70450  0.06510  1.0000 0.1402433689
H   H70       1.0  0.00050  0.72090  0.22860  1.0000 0.1402433689
H   H71       1.0  0.56630  0.13090  0.75780  1.0000 0.4289030659
H   H72       1.0  0.71480  0.00960  0.73630  1.0000 0.1402433689
H   H73       1.0  0.88110  0.07190  0.68770  1.0000 0.1402433689
H   H74       1.0  0.84900  0.89520  0.72520  1.0000 0.1487742293
H   H75       1.0  0.06990  0.88710  0.69210  1.0000 0.1487742293
H   H76       1.0  0.06510  0.07180  0.70450  1.0000 0.1402433689
H   H77       1.0  0.22860  0.00050  0.72090  1.0000 0.1402433689
H   H78       1.0  0.75780  0.56630  0.13090  1.0000 0.4289030659
H   H79       1.0  0.73630  0.71480  0.00960  1.0000 0.1402433689
H   H80       1.0  0.68770  0.88110  0.07190  1.0000 0.1402433689
H   H81       1.0  0.72520  0.84900  0.89520  1.0000 0.1487742293
H   H82       1.0  0.69210  0.06990  0.88710  1.0000 0.1487742293
H   H83       1.0  0.70450  0.06510  0.07180  1.0000 0.1402433689
H   H84       1.0  0.72090  0.22860  0.00050  1.0000 0.1402433689
C   C1        1.0  0.38140  0.68959  0.20522  1.0000 0.6414747748
C   C2        1.0  0.61176  0.27368  0.20531  1.0000 0.6414747748
C   C3        1.0  0.54964  0.29478  0.21066  1.0000 -0.0238486904
C   C4        1.0  0.60899  0.68253  0.21788  1.0000 0.6462385728
C   C5        1.0  0.50262  0.25558  0.22854  1.0000 -0.0896124073
C   C6        1.0  0.53961  0.35433  0.19963  1.0000 -0.1272815711
C   C7        1.0  0.48227  0.37502  0.20595  1.0000 0.1274599114
C   C8        1.0  0.43489  0.33566  0.22243  1.0000 -0.1118393016
C   C9        1.0  0.44581  0.27623  0.23491  1.0000 -0.0053634339
C   C10       1.0  0.39503  0.23471  0.25437  1.0000 0.5959331521
C   C11       1.0  0.47408  0.43756  0.19786  1.0000 -0.0896124073
C   C12       1.0  0.47217  0.49106  0.19676  1.0000 -0.0896124073
C   C13       1.0  0.47824  0.55695  0.19899  1.0000 0.1274599114
C   C14       1.0  0.42746  0.59056  0.19807  1.0000 -0.1171501965
C   C15       1.0  0.53715  0.58781  0.20501  1.0000 -0.1171501965
C   C16       1.0  0.43615  0.65425  0.20579  1.0000 -0.0281380095
C   C17       1.0  0.49480  0.68499  0.21393  1.0000 -0.0830689243
C   C18       1.0  0.54536  0.65097  0.21176  1.0000 -0.0281380095
C   C19       1.0  0.68959  0.20522  0.38140  1.0000 0.6414747748
C   C20       1.0  0.27368  0.20531  0.61176  1.0000 0.6462385728
C   C21       1.0  0.29478  0.21066  0.54964  1.0000 -0.0238486904
C   C22       1.0  0.68253  0.21788  0.60899  1.0000 0.6462385728
C   C23       1.0  0.25558  0.22854  0.50262  1.0000 -0.0896124073
C   C24       1.0  0.35433  0.19963  0.53961  1.0000 -0.1272815711
C   C25       1.0  0.37502  0.20595  0.48227  1.0000 0.1274599114
C   C26       1.0  0.33566  0.22243  0.43489  1.0000 -0.1118393016
C   C27       1.0  0.27623  0.23491  0.44581  1.0000 -0.0053634339
C   C28       1.0  0.23471  0.25437  0.39503  1.0000 0.5959331521
C   C29       1.0  0.43756  0.19786  0.47408  1.0000 -0.0896124073
C   C30       1.0  0.49106  0.19676  0.47217  1.0000 -0.0896124073
C   C31       1.0  0.55695  0.19899  0.47824  1.0000 0.1274599114
C   C32       1.0  0.59056  0.19807  0.42746  1.0000 -0.1171501965
C   C33       1.0  0.58781  0.20501  0.53715  1.0000 -0.1171501965
C   C34       1.0  0.65425  0.20579  0.43615  1.0000 -0.0281380095
C   C35       1.0  0.68499  0.21393  0.49480  1.0000 -0.0830689243
C   C36       1.0  0.65097  0.21176  0.54536  1.0000 -0.0281380095
C   C37       1.0  0.20522  0.38140  0.68959  1.0000 0.6414747748
C   C38       1.0  0.20531  0.61176  0.27368  1.0000 0.6462385728
C   C39       1.0  0.21066  0.54964  0.29478  1.0000 -0.0238486904
C   C40       1.0  0.21788  0.60899  0.68253  1.0000 0.6462385728
C   C41       1.0  0.22854  0.50262  0.25558  1.0000 -0.0896124073
C   C42       1.0  0.19963  0.53961  0.35433  1.0000 -0.1272815711
C   C43       1.0  0.20595  0.48227  0.37502  1.0000 0.1274599114
C   C44       1.0  0.22243  0.43489  0.33566  1.0000 -0.1118393016
C   C45       1.0  0.23491  0.44581  0.27623  1.0000 -0.0053634339
C   C46       1.0  0.25437  0.39503  0.23471  1.0000 0.5959331521
C   C47       1.0  0.19786  0.47408  0.43756  1.0000 -0.0896124073
C   C48       1.0  0.19676  0.47217  0.49106  1.0000 -0.0896124073
C   C49       1.0  0.19899  0.47824  0.55695  1.0000 0.1274599114
C   C50       1.0  0.19807  0.42746  0.59056  1.0000 -0.1171501965
C   C51       1.0  0.20501  0.53715  0.58781  1.0000 -0.1171501965
C   C52       1.0  0.20579  0.43615  0.65425  1.0000 -0.0281380095
C   C53       1.0  0.21393  0.49480  0.68499  1.0000 -0.0830689243
C   C54       1.0  0.21176  0.54536  0.65097  1.0000 -0.0281380095
C   C55       1.0  0.11860  0.29478  0.81041  1.0000 0.6414747748
C   C56       1.0  0.88824  0.29469  0.22632  1.0000 0.6462385728
C   C57       1.0  0.95036  0.28934  0.20522  1.0000 -0.0238486904
C   C58       1.0  0.89101  0.28212  0.81747  1.0000 0.6462385728
C   C59       1.0  0.99738  0.27146  0.24442  1.0000 -0.0896124073
C   C60       1.0  0.96039  0.30037  0.14567  1.0000 -0.1272815711
C   C61       1.0  0.01773  0.29405  0.12498  1.0000 0.1274599114
C   C62       1.0  0.06511  0.27757  0.16434  1.0000 -0.1118393016
C   C63       1.0  0.05419  0.26509  0.22377  1.0000 -0.0053634339
C   C64       1.0  0.10497  0.24563  0.26529  1.0000 0.5959331521
C   C65       1.0  0.02592  0.30214  0.06244  1.0000 -0.0896124073
C   C66       1.0  0.02783  0.30324  0.00894  1.0000 -0.0896124073
C   C67       1.0  0.02176  0.30101  0.94305  1.0000 0.1274599114
C   C68       1.0  0.07254  0.30193  0.90944  1.0000 -0.1171501965
C   C69       1.0  0.96285  0.29499  0.91219  1.0000 -0.1171501965
C   C70       1.0  0.06385  0.29421  0.84575  1.0000 -0.0281380095
C   C71       1.0  0.00520  0.28607  0.81501  1.0000 -0.0830689243
C   C72       1.0  0.95464  0.28824  0.84903  1.0000 -0.0281380095
C   C73       1.0  0.81041  0.11860  0.29478  1.0000 0.6414747748
C   C74       1.0  0.22632  0.88824  0.29469  1.0000 0.6462385728
C   C75       1.0  0.20522  0.95036  0.28934  1.0000 -0.0238486904
C   C76       1.0  0.81747  0.89101  0.28212  1.0000 0.6462385728
C   C77       1.0  0.24442  0.99738  0.27146  1.0000 -0.0896124073
C   C78       1.0  0.14567  0.96039  0.30037  1.0000 -0.1272815711
C   C79       1.0  0.12498  0.01773  0.29405  1.0000 0.1274599114
C   C80       1.0  0.16434  0.06511  0.27757  1.0000 -0.1118393016
C   C81       1.0  0.22377  0.05419  0.26509  1.0000 -0.0053634339
C   C82       1.0  0.26529  0.10497  0.24563  1.0000 0.5959331521
C   C83       1.0  0.06244  0.02592  0.30214  1.0000 -0.0896124073
C   C84       1.0  0.00894  0.02783  0.30324  1.0000 -0.0896124073
C   C85       1.0  0.94305  0.02176  0.30101  1.0000 0.1274599114
C   C86       1.0  0.90944  0.07254  0.30193  1.0000 -0.1171501965
C   C87       1.0  0.91219  0.96285  0.29499  1.0000 -0.1171501965
C   C88       1.0  0.84575  0.06385  0.29421  1.0000 -0.0281380095
C   C89       1.0  0.81501  0.00520  0.28607  1.0000 -0.0830689243
C   C90       1.0  0.84903  0.95464  0.28824  1.0000 -0.0281380095
C   C91       1.0  0.29478  0.81041  0.11860  1.0000 0.6414747748
C   C92       1.0  0.29469  0.22632  0.88824  1.0000 0.6462385728
C   C93       1.0  0.28934  0.20522  0.95036  1.0000 -0.0238486904
C   C94       1.0  0.28212  0.81747  0.89101  1.0000 0.6462385728
C   C95       1.0  0.27146  0.24442  0.99738  1.0000 -0.0896124073
C   C96       1.0  0.30037  0.14567  0.96039  1.0000 -0.1272815711
C   C97       1.0  0.29405  0.12498  0.01773  1.0000 0.1274599114
C   C98       1.0  0.27757  0.16434  0.06511  1.0000 -0.1118393016
C   C99       1.0  0.26509  0.22377  0.05419  1.0000 -0.0053634339
C   C100      1.0  0.24563  0.26529  0.10497  1.0000 0.5959331521
C   C101      1.0  0.30214  0.06244  0.02592  1.0000 -0.0896124073
C   C102      1.0  0.30324  0.00894  0.02783  1.0000 -0.0896124073
C   C103      1.0  0.30101  0.94305  0.02176  1.0000 0.1274599114
C   C104      1.0  0.30193  0.90944  0.07254  1.0000 -0.1171501965
C   C105      1.0  0.29499  0.91219  0.96285  1.0000 -0.1171501965
C   C106      1.0  0.29421  0.84575  0.06385  1.0000 -0.0281380095
C   C107      1.0  0.28607  0.81501  0.00520  1.0000 -0.0830689243
C   C108      1.0  0.28824  0.84903  0.95464  1.0000 -0.0281380095
C   C109      1.0  0.61860  0.31041  0.79478  1.0000 0.6414747748
C   C110      1.0  0.38824  0.72632  0.79469  1.0000 0.6462385728
C   C111      1.0  0.45036  0.70522  0.78934  1.0000 -0.0238486904
C   C112      1.0  0.39101  0.31747  0.78212  1.0000 0.6462385728
C   C113      1.0  0.49738  0.74442  0.77146  1.0000 -0.0896124073
C   C114      1.0  0.46039  0.64567  0.80037  1.0000 -0.1272815711
C   C115      1.0  0.51773  0.62498  0.79405  1.0000 0.1274599114
C   C116      1.0  0.56511  0.66434  0.77757  1.0000 -0.1118393016
C   C117      1.0  0.55419  0.72377  0.76509  1.0000 -0.0047818593
C   C118      1.0  0.60497  0.76529  0.74563  1.0000 0.5959331521
C   C119      1.0  0.52592  0.56244  0.80214  1.0000 -0.0896124073
C   C120      1.0  0.52783  0.50894  0.80324  1.0000 -0.0896124073
C   C121      1.0  0.52176  0.44305  0.80101  1.0000 0.1274599114
C   C122      1.0  0.57254  0.40944  0.80193  1.0000 -0.1171501965
C   C123      1.0  0.46285  0.41219  0.79499  1.0000 -0.1171501965
C   C124      1.0  0.56385  0.34575  0.79421  1.0000 -0.0281380095
C   C125      1.0  0.50520  0.31501  0.78607  1.0000 -0.0830689243
C   C126      1.0  0.45464  0.34903  0.78824  1.0000 -0.0281380095
C   C127      1.0  0.31041  0.79478  0.61860  1.0000 0.6414747748
C   C128      1.0  0.72632  0.79469  0.38824  1.0000 0.6462385728
C   C129      1.0  0.70522  0.78934  0.45036  1.0000 -0.0238486904
C   C130      1.0  0.31747  0.78212  0.39101  1.0000 0.6462385728
C   C131      1.0  0.74442  0.77146  0.49738  1.0000 -0.0896124073
C   C132      1.0  0.64567  0.80037  0.46039  1.0000 -0.1272815711
C   C133      1.0  0.62498  0.79405  0.51773  1.0000 0.1274599114
C   C134      1.0  0.66434  0.77757  0.56511  1.0000 -0.1118393016
C   C135      1.0  0.72377  0.76509  0.55419  1.0000 -0.0047818593
C   C136      1.0  0.76529  0.74563  0.60497  1.0000 0.5959331521
C   C137      1.0  0.56244  0.80214  0.52592  1.0000 -0.0896124073
C   C138      1.0  0.50894  0.80324  0.52783  1.0000 -0.0896124073
C   C139      1.0  0.44305  0.80101  0.52176  1.0000 0.1274599114
C   C140      1.0  0.40944  0.80193  0.57254  1.0000 -0.1171501965
C   C141      1.0  0.41219  0.79499  0.46285  1.0000 -0.1171501965
C   C142      1.0  0.34575  0.79421  0.56385  1.0000 -0.0281380095
C   C143      1.0  0.31501  0.78607  0.50520  1.0000 -0.0830689243
C   C144      1.0  0.34903  0.78824  0.45464  1.0000 -0.0281380095
C   C145      1.0  0.79478  0.61860  0.31041  1.0000 0.6414747748
C   C146      1.0  0.79469  0.38824  0.72632  1.0000 0.6462385728
C   C147      1.0  0.78934  0.45036  0.70522  1.0000 -0.0238486904
C   C148      1.0  0.78212  0.39101  0.31747  1.0000 0.6462385728
C   C149      1.0  0.77146  0.49738  0.74442  1.0000 -0.0896124073
C   C150      1.0  0.80037  0.46039  0.64567  1.0000 -0.1272815711
C   C151      1.0  0.79405  0.51773  0.62498  1.0000 0.1274599114
C   C152      1.0  0.77757  0.56511  0.66434  1.0000 -0.1118393016
C   C153      1.0  0.76509  0.55419  0.72377  1.0000 -0.0047818593
C   C154      1.0  0.74563  0.60497  0.76529  1.0000 0.5959331521
C   C155      1.0  0.80214  0.52592  0.56244  1.0000 -0.0896124073
C   C156      1.0  0.80324  0.52783  0.50894  1.0000 -0.0896124073
C   C157      1.0  0.80101  0.52176  0.44305  1.0000 0.1274599114
C   C158      1.0  0.80193  0.57254  0.40944  1.0000 -0.1171501965
C   C159      1.0  0.79499  0.46285  0.41219  1.0000 -0.1171501965
C   C160      1.0  0.79421  0.56385  0.34575  1.0000 -0.0281380095
C   C161      1.0  0.78607  0.50520  0.31501  1.0000 -0.0830689243
C   C162      1.0  0.78824  0.45464  0.34903  1.0000 -0.0281380095
C   C163      1.0  0.88140  0.70522  0.18959  1.0000 0.6414747748
C   C164      1.0  0.11176  0.70531  0.77368  1.0000 0.6414747748
C   C165      1.0  0.04964  0.71066  0.79478  1.0000 -0.0238486904
C   C166      1.0  0.10899  0.71788  0.18253  1.0000 0.6462385728
C   C167      1.0  0.00262  0.72854  0.75558  1.0000 -0.0896124073
C   C168      1.0  0.03961  0.69963  0.85433  1.0000 -0.1272815711
C   C169      1.0  0.98227  0.70595  0.87502  1.0000 0.1274599114
C   C170      1.0  0.93489  0.72243  0.83566  1.0000 -0.1118393016
C   C171      1.0  0.94581  0.73491  0.77623  1.0000 -0.0047818593
C   C172      1.0  0.89503  0.75437  0.73471  1.0000 0.5959331521
C   C173      1.0  0.97408  0.69786  0.93756  1.0000 -0.0896124073
C   C174      1.0  0.97217  0.69676  0.99106  1.0000 -0.0896124073
C   C175      1.0  0.97824  0.69899  0.05695  1.0000 0.1274599114
C   C176      1.0  0.92746  0.69807  0.09056  1.0000 -0.1171501965
C   C177      1.0  0.03715  0.70501  0.08781  1.0000 -0.1171501965
C   C178      1.0  0.93615  0.70579  0.15425  1.0000 -0.0281380095
C   C179      1.0  0.99480  0.71393  0.18499  1.0000 -0.0830689243
C   C180      1.0  0.04536  0.71176  0.15097  1.0000 -0.0281380095
C   C181      1.0  0.18959  0.88140  0.70522  1.0000 0.6414747748
C   C182      1.0  0.77368  0.11176  0.70531  1.0000 0.6462385728
C   C183      1.0  0.79478  0.04964  0.71066  1.0000 -0.0238486904
C   C184      1.0  0.18253  0.10899  0.71788  1.0000 0.6462385728
C   C185      1.0  0.75558  0.00262  0.72854  1.0000 -0.0896124073
C   C186      1.0  0.85433  0.03961  0.69963  1.0000 -0.1272815711
C   C187      1.0  0.87502  0.98227  0.70595  1.0000 0.1274599114
C   C188      1.0  0.83566  0.93489  0.72243  1.0000 -0.1118393016
C   C189      1.0  0.77623  0.94581  0.73491  1.0000 -0.0053634339
C   C190      1.0  0.73471  0.89503  0.75437  1.0000 0.5959331521
C   C191      1.0  0.93756  0.97408  0.69786  1.0000 -0.0896124073
C   C192      1.0  0.99106  0.97217  0.69676  1.0000 -0.0896124073
C   C193      1.0  0.05695  0.97824  0.69899  1.0000 0.1274599114
C   C194      1.0  0.09056  0.92746  0.69807  1.0000 -0.1171501965
C   C195      1.0  0.08781  0.03715  0.70501  1.0000 -0.1171501965
C   C196      1.0  0.15425  0.93615  0.70579  1.0000 -0.0281380095
C   C197      1.0  0.18499  0.99480  0.71393  1.0000 -0.0830689243
C   C198      1.0  0.15097  0.04536  0.71176  1.0000 -0.0281380095
C   C199      1.0  0.70522  0.18959  0.88140  1.0000 0.6414747748
C   C200      1.0  0.70531  0.77368  0.11176  1.0000 0.6462385728
C   C201      1.0  0.71066  0.79478  0.04964  1.0000 -0.0238486904
C   C202      1.0  0.71788  0.18253  0.10899  1.0000 0.6462385728
C   C203      1.0  0.72854  0.75558  0.00262  1.0000 -0.0896124073
C   C204      1.0  0.69963  0.85433  0.03961  1.0000 -0.1272815711
C   C205      1.0  0.70595  0.87502  0.98227  1.0000 0.1274599114
C   C206      1.0  0.72243  0.83566  0.93489  1.0000 -0.1118393016
C   C207      1.0  0.73491  0.77623  0.94581  1.0000 -0.0053634339
C   C208      1.0  0.75437  0.73471  0.89503  1.0000 0.5959331521
C   C209      1.0  0.69786  0.93756  0.97408  1.0000 -0.0896124073
C   C210      1.0  0.69676  0.99106  0.97217  1.0000 -0.0896124073
C   C211      1.0  0.69899  0.05695  0.97824  1.0000 0.1274599114
C   C212      1.0  0.69807  0.09056  0.92746  1.0000 -0.1171501965
C   C213      1.0  0.70501  0.08781  0.03715  1.0000 -0.1171501965
C   C214      1.0  0.70579  0.15425  0.93615  1.0000 -0.0281380095
C   C215      1.0  0.71393  0.18499  0.99480  1.0000 -0.0830689243
C   C216      1.0  0.71176  0.15097  0.04536  1.0000 -0.0281380095
O   O1        1.0  0.65146  0.64897  0.20906  1.0000 -0.5920149382
O   O2        1.0  0.61671  0.73973  0.23177  1.0000 -0.6189072973
O   O3        1.0  0.65452  0.31282  0.19574  1.0000 -0.6189072973
O   O4        1.0  0.62570  0.08733  0.22805  1.0000 -0.9024329405
O   O5        1.0  0.61743  0.21817  0.21156  1.0000 -0.5920149382
O   O6        1.0  0.33076  0.66121  0.18332  1.0000 -0.608748304
O   O7        1.0  0.38911  0.74461  0.22658  1.0000 -0.5989737587
O   O8        1.0  0.34413  0.25451  0.25655  1.0000 -0.5920149382
O   O9        1.0  0.40621  0.18339  0.26700  1.0000 -0.4230087768
O   O10       1.0  0.64897  0.20906  0.65146  1.0000 -0.5989737587
O   O11       1.0  0.73973  0.23177  0.61671  1.0000 -0.6189072973
O   O12       1.0  0.31282  0.19574  0.65452  1.0000 -0.6189072973
O   O13       1.0  0.08733  0.22805  0.62570  1.0000 -0.9024329405
O   O14       1.0  0.21817  0.21156  0.61743  1.0000 -0.5920149382
O   O15       1.0  0.66121  0.18332  0.33076  1.0000 -0.608748304
O   O16       1.0  0.74461  0.22658  0.38911  1.0000 -0.5989737587
O   O17       1.0  0.25451  0.25655  0.34413  1.0000 -0.5920149382
O   O18       1.0  0.18339  0.26700  0.40621  1.0000 -0.4230087768
O   O19       1.0  0.20906  0.65146  0.64897  1.0000 -0.5989737587
O   O20       1.0  0.23177  0.61671  0.73973  1.0000 -0.6189072973
O   O21       1.0  0.19574  0.65452  0.31282  1.0000 -0.6189072973
O   O22       1.0  0.22805  0.62570  0.08733  1.0000 -0.9024329405
O   O23       1.0  0.21156  0.61743  0.21817  1.0000 -0.5920149382
O   O24       1.0  0.18332  0.33076  0.66121  1.0000 -0.608748304
O   O25       1.0  0.22658  0.38911  0.74461  1.0000 -0.5989737587
O   O26       1.0  0.25655  0.34413  0.25451  1.0000 -0.5920149382
O   O27       1.0  0.26700  0.40621  0.18339  1.0000 -0.4230087768
O   O28       1.0  0.84854  0.29094  0.85103  1.0000 -0.5989737587
O   O29       1.0  0.88329  0.26823  0.76027  1.0000 -0.6189072973
O   O30       1.0  0.84548  0.30426  0.18718  1.0000 -0.6189072973
O   O31       1.0  0.87430  0.27195  0.41267  1.0000 -0.9024329405
O   O32       1.0  0.88257  0.28844  0.28183  1.0000 -0.5920149382
O   O33       1.0  0.16924  0.31668  0.83879  1.0000 -0.608748304
O   O34       1.0  0.11089  0.27342  0.75539  1.0000 -0.5989737587
O   O35       1.0  0.15587  0.24345  0.24549  1.0000 -0.5920149382
O   O36       1.0  0.09379  0.23300  0.31661  1.0000 -0.4230087768
O   O37       1.0  0.85103  0.84854  0.29094  1.0000 -0.5920149382
O   O38       1.0  0.76027  0.88329  0.26823  1.0000 -0.6189072973
O   O39       1.0  0.18718  0.84548  0.30426  1.0000 -0.6189072973
O   O40       1.0  0.41267  0.87430  0.27195  1.0000 -0.9024329405
O   O41       1.0  0.28183  0.88257  0.28844  1.0000 -0.5920149382
O   O42       1.0  0.83879  0.16924  0.31668  1.0000 -0.608748304
O   O43       1.0  0.75539  0.11089  0.27342  1.0000 -0.5989737587
O   O44       1.0  0.24549  0.15587  0.24345  1.0000 -0.5920149382
O   O45       1.0  0.31661  0.09379  0.23300  1.0000 -0.4230087768
O   O46       1.0  0.29094  0.85103  0.84854  1.0000 -0.5920149382
O   O47       1.0  0.26823  0.76027  0.88329  1.0000 -0.6189072973
O   O48       1.0  0.30426  0.18718  0.84548  1.0000 -0.6189072973
O   O49       1.0  0.27195  0.41267  0.87430  1.0000 -0.9024329405
O   O50       1.0  0.28844  0.28183  0.88257  1.0000 -0.5920149382
O   O51       1.0  0.31668  0.83879  0.16924  1.0000 -0.608748304
O   O52       1.0  0.27342  0.75539  0.11089  1.0000 -0.5989737587
O   O53       1.0  0.24345  0.24549  0.15587  1.0000 -0.5920149382
O   O54       1.0  0.23300  0.31661  0.09379  1.0000 -0.4230087768
O   O55       1.0  0.34854  0.35103  0.79094  1.0000 -0.5989737587
O   O56       1.0  0.38329  0.26027  0.76823  1.0000 -0.6189072973
O   O57       1.0  0.34548  0.68718  0.80426  1.0000 -0.6189072973
O   O58       1.0  0.37430  0.91267  0.77195  1.0000 -0.9024329405
O   O59       1.0  0.38257  0.78183  0.78844  1.0000 -0.5920149382
O   O60       1.0  0.66924  0.33879  0.81668  1.0000 -0.608748304
O   O61       1.0  0.61089  0.25539  0.77342  1.0000 -0.5989737587
O   O62       1.0  0.65587  0.74549  0.74345  1.0000 -0.5920149382
O   O63       1.0  0.59379  0.81661  0.73300  1.0000 -0.4230087768
O   O64       1.0  0.35103  0.79094  0.34854  1.0000 -0.5989737587
O   O65       1.0  0.26027  0.76823  0.38329  1.0000 -0.6189072973
O   O66       1.0  0.68718  0.80426  0.34548  1.0000 -0.6189072973
O   O67       1.0  0.91267  0.77195  0.37430  1.0000 -0.9024329405
O   O68       1.0  0.78183  0.78844  0.38257  1.0000 -0.5920149382
O   O69       1.0  0.33879  0.81668  0.66924  1.0000 -0.608748304
O   O70       1.0  0.25539  0.77342  0.61089  1.0000 -0.5989737587
O   O71       1.0  0.74549  0.74345  0.65587  1.0000 -0.5920149382
O   O72       1.0  0.81661  0.73300  0.59379  1.0000 -0.4230087768
O   O73       1.0  0.79094  0.34854  0.35103  1.0000 -0.5920149382
O   O74       1.0  0.76823  0.38329  0.26027  1.0000 -0.6189072973
O   O75       1.0  0.80426  0.34548  0.68718  1.0000 -0.6189072973
O   O76       1.0  0.77195  0.37430  0.91267  1.0000 -0.9024329405
O   O77       1.0  0.78844  0.38257  0.78183  1.0000 -0.5920149382
O   O78       1.0  0.81668  0.66924  0.33879  1.0000 -0.608748304
O   O79       1.0  0.77342  0.61089  0.25539  1.0000 -0.5989737587
O   O80       1.0  0.74345  0.65587  0.74549  1.0000 -0.5920149382
O   O81       1.0  0.73300  0.59379  0.81661  1.0000 -0.4230087768
O   O82       1.0  0.15146  0.70906  0.14897  1.0000 -0.5989737587
O   O83       1.0  0.11671  0.73177  0.23973  1.0000 -0.6189072973
O   O84       1.0  0.15452  0.69574  0.81282  1.0000 -0.6189072973
O   O85       1.0  0.12570  0.72805  0.58733  1.0000 -0.9024329405
O   O86       1.0  0.11743  0.71156  0.71817  1.0000 -0.5920149382
O   O87       1.0  0.83076  0.68332  0.16121  1.0000 -0.608748304
O   O88       1.0  0.88911  0.72658  0.24461  1.0000 -0.5989737587
O   O89       1.0  0.84413  0.75655  0.75451  1.0000 -0.5920149382
O   O90       1.0  0.90621  0.76700  0.68339  1.0000 -0.4230087768
O   O91       1.0  0.14897  0.15146  0.70906  1.0000 -0.5989737587
O   O92       1.0  0.23973  0.11671  0.73177  1.0000 -0.6189072973
O   O93       1.0  0.81282  0.15452  0.69574  1.0000 -0.6189072973
O   O94       1.0  0.58733  0.12570  0.72805  1.0000 -0.9024329405
O   O95       1.0  0.71817  0.11743  0.71156  1.0000 -0.5920149382
O   O96       1.0  0.16121  0.83076  0.68332  1.0000 -0.608748304
O   O97       1.0  0.24461  0.88911  0.72658  1.0000 -0.5989737587
O   O98       1.0  0.75451  0.84413  0.75655  1.0000 -0.5920149382
O   O99       1.0  0.68339  0.90621  0.76700  1.0000 -0.4230087768
O   O100      1.0  0.70906  0.14897  0.15146  1.0000 -0.5920149382
O   O101      1.0  0.73177  0.23973  0.11671  1.0000 -0.6189072973
O   O102      1.0  0.69574  0.81282  0.15452  1.0000 -0.6189072973
O   O103      1.0  0.72805  0.58733  0.12570  1.0000 -0.9024329405
O   O104      1.0  0.71156  0.71817  0.11743  1.0000 -0.5920149382
O   O105      1.0  0.68332  0.16121  0.83076  1.0000 -0.608748304
O   O106      1.0  0.72658  0.24461  0.88911  1.0000 -0.5989737587
O   O107      1.0  0.75655  0.75451  0.84413  1.0000 -0.5920149382
O   O108      1.0  0.76700  0.68339  0.90621  1.0000 -0.4230087768
O   O109      1.0  0.75000  0.24436  0.25564  1.0000 -1.246416109
O   O110      1.0  0.24436  0.25564  0.75000  1.0000 -1.2420734735
O   O111      1.0  0.25564  0.75000  0.24436  1.0000 -1.2420734735
O   O112      1.0  0.25000  0.75564  0.74436  1.0000 -1.246416109
O   O113      1.0  0.75564  0.74436  0.25000  1.0000 -1.246416109
O   O114      1.0  0.74436  0.25000  0.75564  1.0000 -1.2420734735
