# DDEC6 charges by PACMAN v1.1 (https://github.com/mtap-research/PACMAN-charge/)
data_2019[Co][nan]3[ASR]17
_chemical_formula_sum              "Co8 H152 C224 N48 O8"
_cell_length_a       9.24
_cell_length_b       23.354
_cell_length_c       31.86
_cell_angle_alpha    90
_cell_angle_beta     90
_cell_angle_gamma    90

_symmetry_space_group_name_H-M    "P 1"
_symmetry_Int_Tables_number       1

loop_
  _symmetry_equiv_pos_as_xyz
  'x, y, z'

loop_
  _atom_site_type_symbol
  _atom_site_label
  _atom_site_symmetry_multiplicity
  _atom_site_fract_x
  _atom_site_fract_y
  _atom_site_fract_z
  _atom_site_occupancy
  _atom_site_charge
Co  Co1       1.0  0.00000  0.50000  0.50000  1.0000 0.5367517063
Co  Co2       1.0  0.50000  0.00000  0.50000  1.0000 0.5347014058
Co  Co3       1.0  0.00000  0.50000  0.00000  1.0000 0.5367517063
Co  Co4       1.0  0.50000  0.00000  0.00000  1.0000 0.5367517063
Co  Co5       1.0  0.90923  0.43907  0.25000  1.0000 0.8432191152
Co  Co6       1.0  0.40923  0.06093  0.75000  1.0000 0.8432191152
Co  Co7       1.0  0.09077  0.56093  0.75000  1.0000 0.8432191152
Co  Co8       1.0  0.59077  0.93907  0.25000  1.0000 0.8432191152
H   H1        1.0  0.20912  0.44802  0.30102  1.0000 0.1081284534
H   H2        1.0  0.87771  0.54814  0.31466  1.0000 0.1296712375
H   H3        1.0  0.06251  0.58115  0.36323  1.0000 0.1296712375
H   H4        1.0  0.73597  0.10120  0.51356  1.0000 0.1081284534
H   H5        1.0  0.48522  0.05044  0.60385  1.0000 0.1204696571
H   H6        1.0  0.57404  0.14493  0.62145  1.0000 0.1296712375
H   H7        1.0  0.85685  0.17874  0.50896  1.0000 0.1296712375
H   H8        1.0  0.94379  0.26897  0.49723  1.0000 0.1296712375
H   H9        1.0  0.72875  0.32840  0.59287  1.0000 0.1296712375
H   H10       1.0  0.63976  0.23559  0.60680  1.0000 0.1296712375
H   H11       1.0  0.45118  0.49113  0.31611  1.0000 0.1296712375
H   H12       1.0  0.66012  0.49075  0.35477  1.0000 0.1296712375
H   H13       1.0  0.44042  0.54208  0.45464  1.0000 0.1204696571
H   H14       1.0  0.23022  0.54375  0.41602  1.0000 0.1296712375
H   H15       1.0  0.53729  0.41021  0.44394  1.0000 0.1204696571
H   H16       1.0  0.63335  0.33850  0.49070  1.0000 0.1204696571
H   H17       1.0  0.09038  0.32187  0.58813  1.0000 0.1296712375
H   H18       1.0  0.29347  0.38346  0.60433  1.0000 0.1296712375
H   H19       1.0  0.84801  0.36627  0.18188  1.0000 0.3999900471
H   H20       1.0  0.70912  0.05198  0.69898  1.0000 0.1081284534
H   H21       1.0  0.37771  0.95186  0.68534  1.0000 0.1296712375
H   H22       1.0  0.56251  0.91885  0.63677  1.0000 0.1296712375
H   H23       1.0  0.23597  0.39880  0.48644  1.0000 0.1081284534
H   H24       1.0  0.98522  0.44956  0.39615  1.0000 0.1204696571
H   H25       1.0  0.07404  0.35507  0.37855  1.0000 0.1296712375
H   H26       1.0  0.35685  0.32126  0.49104  1.0000 0.1296712375
H   H27       1.0  0.44379  0.23103  0.50277  1.0000 0.1296712375
H   H28       1.0  0.22875  0.17160  0.40713  1.0000 0.1296712375
H   H29       1.0  0.13976  0.26441  0.39320  1.0000 0.1296712375
H   H30       1.0  0.95118  0.00887  0.68389  1.0000 0.1296712375
H   H31       1.0  0.16012  0.00925  0.64523  1.0000 0.1296712375
H   H32       1.0  0.94042  0.95792  0.54536  1.0000 0.1204696571
H   H33       1.0  0.73022  0.95625  0.58398  1.0000 0.1296712375
H   H34       1.0  0.03729  0.08979  0.55606  1.0000 0.1204696571
H   H35       1.0  0.13335  0.16150  0.50930  1.0000 0.1204696571
H   H36       1.0  0.59038  0.17813  0.41187  1.0000 0.1296712375
H   H37       1.0  0.79347  0.11654  0.39567  1.0000 0.1296712375
H   H38       1.0  0.34801  0.13373  0.81812  1.0000 0.3999900471
H   H39       1.0  0.79088  0.55198  0.80102  1.0000 0.1081284534
H   H40       1.0  0.12229  0.45186  0.81466  1.0000 0.1296712375
H   H41       1.0  0.93749  0.41885  0.86323  1.0000 0.1296712375
H   H42       1.0  0.26403  0.89880  0.01356  1.0000 0.1081284534
H   H43       1.0  0.51478  0.94956  0.10385  1.0000 0.1204696571
H   H44       1.0  0.42596  0.85507  0.12145  1.0000 0.1296712375
H   H45       1.0  0.14315  0.82126  0.00896  1.0000 0.1296712375
H   H46       1.0  0.05621  0.73103  0.99723  1.0000 0.1296712375
H   H47       1.0  0.27125  0.67160  0.09287  1.0000 0.1296712375
H   H48       1.0  0.36024  0.76441  0.10680  1.0000 0.1296712375
H   H49       1.0  0.54882  0.50887  0.81611  1.0000 0.1296712375
H   H50       1.0  0.33988  0.50925  0.85477  1.0000 0.1296712375
H   H51       1.0  0.55958  0.45792  0.95464  1.0000 0.1204696571
H   H52       1.0  0.76978  0.45625  0.91602  1.0000 0.1296712375
H   H53       1.0  0.46271  0.58979  0.94394  1.0000 0.1204696571
H   H54       1.0  0.36665  0.66150  0.99070  1.0000 0.1204696571
H   H55       1.0  0.90962  0.67813  0.08813  1.0000 0.1296712375
H   H56       1.0  0.70653  0.61654  0.10433  1.0000 0.1296712375
H   H57       1.0  0.15199  0.63373  0.68188  1.0000 0.3999900471
H   H58       1.0  0.29088  0.94802  0.19898  1.0000 0.1081284534
H   H59       1.0  0.62229  0.04814  0.18534  1.0000 0.1296712375
H   H60       1.0  0.43749  0.08115  0.13677  1.0000 0.1296712375
H   H61       1.0  0.76403  0.60120  0.98644  1.0000 0.1081284534
H   H62       1.0  0.01478  0.55044  0.89615  1.0000 0.1204696571
H   H63       1.0  0.92596  0.64493  0.87855  1.0000 0.1204696571
H   H64       1.0  0.64315  0.67874  0.99104  1.0000 0.1296712375
H   H65       1.0  0.55621  0.76897  0.00277  1.0000 0.1296712375
H   H66       1.0  0.77125  0.82840  0.90713  1.0000 0.1296712375
H   H67       1.0  0.86024  0.73559  0.89320  1.0000 0.1296712375
H   H68       1.0  0.04882  0.99113  0.18389  1.0000 0.1296712375
H   H69       1.0  0.83988  0.99075  0.14523  1.0000 0.1296712375
H   H70       1.0  0.05958  0.04208  0.04536  1.0000 0.1204696571
H   H71       1.0  0.26978  0.04375  0.08398  1.0000 0.1296712375
H   H72       1.0  0.96271  0.91021  0.05606  1.0000 0.1204696571
H   H73       1.0  0.86665  0.83850  0.00930  1.0000 0.1204696571
H   H74       1.0  0.40962  0.82187  0.91187  1.0000 0.1296712375
H   H75       1.0  0.20653  0.88346  0.89567  1.0000 0.1296712375
H   H76       1.0  0.65199  0.86627  0.31812  1.0000 0.3999900471
H   H77       1.0  0.79088  0.55198  0.69898  1.0000 0.1081284534
H   H78       1.0  0.12229  0.45186  0.68534  1.0000 0.1296712375
H   H79       1.0  0.93749  0.41885  0.63677  1.0000 0.1296712375
H   H80       1.0  0.26403  0.89880  0.48644  1.0000 0.1081284534
H   H81       1.0  0.51478  0.94956  0.39615  1.0000 0.1204696571
H   H82       1.0  0.42596  0.85507  0.37855  1.0000 0.1296712375
H   H83       1.0  0.14315  0.82126  0.49104  1.0000 0.1296712375
H   H84       1.0  0.05621  0.73103  0.50277  1.0000 0.1296712375
H   H85       1.0  0.27125  0.67160  0.40713  1.0000 0.1296712375
H   H86       1.0  0.36024  0.76441  0.39320  1.0000 0.1296712375
H   H87       1.0  0.54882  0.50887  0.68389  1.0000 0.1296712375
H   H88       1.0  0.33988  0.50925  0.64523  1.0000 0.1296712375
H   H89       1.0  0.55958  0.45792  0.54536  1.0000 0.1204696571
H   H90       1.0  0.76978  0.45625  0.58398  1.0000 0.1296712375
H   H91       1.0  0.46271  0.58979  0.55606  1.0000 0.1204696571
H   H92       1.0  0.36665  0.66150  0.50930  1.0000 0.1204696571
H   H93       1.0  0.90962  0.67813  0.41187  1.0000 0.1296712375
H   H94       1.0  0.70653  0.61654  0.39567  1.0000 0.1296712375
H   H95       1.0  0.15199  0.63373  0.81812  1.0000 0.3999900471
H   H96       1.0  0.29088  0.94802  0.30102  1.0000 0.1081284534
H   H97       1.0  0.62229  0.04814  0.31466  1.0000 0.1296712375
H   H98       1.0  0.43749  0.08115  0.36323  1.0000 0.1296712375
H   H99       1.0  0.76403  0.60120  0.51356  1.0000 0.1081284534
H   H100      1.0  0.01478  0.55044  0.60385  1.0000 0.1204696571
H   H101      1.0  0.92596  0.64493  0.62145  1.0000 0.1204696571
H   H102      1.0  0.64315  0.67874  0.50896  1.0000 0.1296712375
H   H103      1.0  0.55621  0.76897  0.49723  1.0000 0.1296712375
H   H104      1.0  0.77125  0.82840  0.59287  1.0000 0.1296712375
H   H105      1.0  0.86024  0.73559  0.60680  1.0000 0.1296712375
H   H106      1.0  0.04882  0.99113  0.31611  1.0000 0.1296712375
H   H107      1.0  0.83988  0.99075  0.35477  1.0000 0.1296712375
H   H108      1.0  0.05958  0.04208  0.45464  1.0000 0.1204696571
H   H109      1.0  0.26978  0.04375  0.41602  1.0000 0.1296712375
H   H110      1.0  0.96271  0.91021  0.44394  1.0000 0.1204696571
H   H111      1.0  0.86665  0.83850  0.49070  1.0000 0.1204696571
H   H112      1.0  0.40962  0.82187  0.58813  1.0000 0.1296712375
H   H113      1.0  0.20653  0.88346  0.60433  1.0000 0.1296712375
H   H114      1.0  0.65199  0.86627  0.18188  1.0000 0.3999900471
H   H115      1.0  0.20912  0.44802  0.19898  1.0000 0.1081284534
H   H116      1.0  0.87771  0.54814  0.18534  1.0000 0.1296712375
H   H117      1.0  0.06251  0.58115  0.13677  1.0000 0.1296712375
H   H118      1.0  0.73597  0.10120  0.98644  1.0000 0.1081284534
H   H119      1.0  0.48522  0.05044  0.89615  1.0000 0.1204696571
H   H120      1.0  0.57404  0.14493  0.87855  1.0000 0.1296712375
H   H121      1.0  0.85685  0.17874  0.99104  1.0000 0.1296712375
H   H122      1.0  0.94379  0.26897  0.00277  1.0000 0.1296712375
H   H123      1.0  0.72875  0.32840  0.90713  1.0000 0.1296712375
H   H124      1.0  0.63976  0.23559  0.89320  1.0000 0.1296712375
H   H125      1.0  0.45118  0.49113  0.18389  1.0000 0.1296712375
H   H126      1.0  0.66012  0.49075  0.14523  1.0000 0.1296712375
H   H127      1.0  0.44042  0.54208  0.04536  1.0000 0.1204696571
H   H128      1.0  0.23022  0.54375  0.08398  1.0000 0.1296712375
H   H129      1.0  0.53729  0.41021  0.05606  1.0000 0.1204696571
H   H130      1.0  0.63335  0.33850  0.00930  1.0000 0.1204696571
H   H131      1.0  0.09038  0.32187  0.91187  1.0000 0.1296712375
H   H132      1.0  0.29347  0.38346  0.89567  1.0000 0.1296712375
H   H133      1.0  0.84801  0.36627  0.31812  1.0000 0.3999900471
H   H134      1.0  0.70912  0.05198  0.80102  1.0000 0.1081284534
H   H135      1.0  0.37771  0.95186  0.81466  1.0000 0.1296712375
H   H136      1.0  0.56251  0.91885  0.86323  1.0000 0.1296712375
H   H137      1.0  0.23597  0.39880  0.01356  1.0000 0.1081284534
H   H138      1.0  0.98522  0.44956  0.10385  1.0000 0.1204696571
H   H139      1.0  0.07404  0.35507  0.12145  1.0000 0.1296712375
H   H140      1.0  0.35685  0.32126  0.00896  1.0000 0.1296712375
H   H141      1.0  0.44379  0.23103  0.99723  1.0000 0.1296712375
H   H142      1.0  0.22875  0.17160  0.09287  1.0000 0.1296712375
H   H143      1.0  0.13976  0.26441  0.10680  1.0000 0.1296712375
H   H144      1.0  0.95118  0.00887  0.81611  1.0000 0.1296712375
H   H145      1.0  0.16012  0.00925  0.85477  1.0000 0.1296712375
H   H146      1.0  0.94042  0.95792  0.95464  1.0000 0.1204696571
H   H147      1.0  0.73022  0.95625  0.91602  1.0000 0.1296712375
H   H148      1.0  0.03729  0.08979  0.94394  1.0000 0.1204696571
H   H149      1.0  0.13335  0.16150  0.99070  1.0000 0.1204696571
H   H150      1.0  0.59038  0.17813  0.08813  1.0000 0.1296712375
H   H151      1.0  0.79347  0.11654  0.10433  1.0000 0.1296712375
H   H152      1.0  0.34801  0.13373  0.68188  1.0000 0.3999900471
C   C1        1.0  0.14890  0.47740  0.31018  1.0000 0.0888577958
C   C2        1.0  0.96870  0.53170  0.31810  1.0000 -0.0465588511
C   C3        1.0  0.07040  0.55070  0.34450  1.0000 -0.096656563
C   C4        1.0  0.68400  0.10010  0.53850  1.0000 0.1296712375
C   C5        1.0  0.54760  0.07240  0.58760  1.0000 -0.0248553168
C   C6        1.0  0.59640  0.12450  0.59725  1.0000 -0.1099617577
C   C7        1.0  0.74360  0.19870  0.55946  1.0000 0.1402819953
C   C8        1.0  0.83060  0.20860  0.52670  1.0000 -0.1907478263
C   C9        1.0  0.88090  0.26290  0.51960  1.0000 -0.1385193823
C   C10       1.0  0.84340  0.30770  0.54346  1.0000 0.0747958858
C   C11       1.0  0.75570  0.29810  0.57570  1.0000 -0.1385193823
C   C12       1.0  0.70210  0.24200  0.58440  1.0000 -0.1799489709
C   C13       1.0  0.32090  0.51750  0.36221  1.0000 0.1402819953
C   C14       1.0  0.44860  0.50150  0.34427  1.0000 -0.1799489709
C   C15       1.0  0.57320  0.50070  0.36755  1.0000 -0.127748992
C   C16       1.0  0.57190  0.51432  0.40904  1.0000 0.077538081
C   C17       1.0  0.44270  0.53130  0.42655  1.0000 -0.127748992
C   C18       1.0  0.31680  0.53270  0.40358  1.0000 -0.1577785287
C   C19       1.0  0.70410  0.51076  0.43606  1.0000 -0.0900429573
C   C20       1.0  0.71890  0.46207  0.46048  1.0000 0.1711444396
C   C21       1.0  0.62150  0.41330  0.45977  1.0000 -0.1907478263
C   C22       1.0  0.67320  0.37430  0.48540  1.0000 -0.1907478263
C   C23       1.0  0.80360  0.39740  0.50385  1.0000 0.1592891354
C   C24       1.0  0.88690  0.36807  0.53173  1.0000 -0.0818962559
C   C25       1.0  0.01200  0.38999  0.54993  1.0000 0.1402819953
C   C26       1.0  0.10540  0.35880  0.57804  1.0000 -0.1907478263
C   C27       1.0  0.21630  0.39240  0.58676  1.0000 -0.2012161921
C   C28       1.0  0.19710  0.44500  0.56449  1.0000 0.1474319387
C   C29       1.0  0.64890  0.02260  0.68982  1.0000 0.0888577958
C   C30       1.0  0.46870  0.96830  0.68190  1.0000 -0.0465588511
C   C31       1.0  0.57040  0.94930  0.65550  1.0000 -0.096656563
C   C32       1.0  0.18400  0.39990  0.46150  1.0000 0.1296712375
C   C33       1.0  0.04760  0.42760  0.41240  1.0000 -0.0248553168
C   C34       1.0  0.09640  0.37550  0.40275  1.0000 -0.1099617577
C   C35       1.0  0.24360  0.30130  0.44054  1.0000 0.1402819953
C   C36       1.0  0.33060  0.29140  0.47330  1.0000 -0.1907478263
C   C37       1.0  0.38090  0.23710  0.48040  1.0000 -0.1385193823
C   C38       1.0  0.34340  0.19230  0.45654  1.0000 0.0747958858
C   C39       1.0  0.25570  0.20190  0.42430  1.0000 -0.1385193823
C   C40       1.0  0.20210  0.25800  0.41560  1.0000 -0.1799489709
C   C41       1.0  0.82090  0.98250  0.63779  1.0000 0.1402819953
C   C42       1.0  0.94860  0.99850  0.65573  1.0000 -0.1799489709
C   C43       1.0  0.07320  0.99930  0.63245  1.0000 -0.127748992
C   C44       1.0  0.07190  0.98568  0.59096  1.0000 0.077538081
C   C45       1.0  0.94270  0.96870  0.57345  1.0000 -0.127748992
C   C46       1.0  0.81680  0.96730  0.59642  1.0000 -0.1577785287
C   C47       1.0  0.20410  0.98924  0.56394  1.0000 -0.0900429573
C   C48       1.0  0.21890  0.03793  0.53952  1.0000 0.1711444396
C   C49       1.0  0.12150  0.08670  0.54023  1.0000 -0.1907478263
C   C50       1.0  0.17320  0.12570  0.51460  1.0000 -0.1907478263
C   C51       1.0  0.30360  0.10260  0.49615  1.0000 0.1592891354
C   C52       1.0  0.38690  0.13193  0.46827  1.0000 -0.0818962559
C   C53       1.0  0.51200  0.11001  0.45007  1.0000 0.1402819953
C   C54       1.0  0.60540  0.14120  0.42196  1.0000 -0.2012161921
C   C55       1.0  0.71630  0.10760  0.41324  1.0000 -0.2012161921
C   C56       1.0  0.69710  0.05500  0.43551  1.0000 0.1474319387
C   C57       1.0  0.85110  0.52260  0.81018  1.0000 0.0888577958
C   C58       1.0  0.03130  0.46830  0.81810  1.0000 -0.0465588511
C   C59       1.0  0.92960  0.44930  0.84450  1.0000 -0.096656563
C   C60       1.0  0.31600  0.89990  0.03850  1.0000 0.1296712375
C   C61       1.0  0.45240  0.92760  0.08760  1.0000 -0.025084668
C   C62       1.0  0.40360  0.87550  0.09725  1.0000 -0.1099617577
C   C63       1.0  0.25640  0.80130  0.05946  1.0000 0.1402819953
C   C64       1.0  0.16940  0.79140  0.02670  1.0000 -0.1907478263
C   C65       1.0  0.11910  0.73710  0.01960  1.0000 -0.1385193823
C   C66       1.0  0.15660  0.69230  0.04346  1.0000 0.0747958858
C   C67       1.0  0.24430  0.70190  0.07570  1.0000 -0.1385193823
C   C68       1.0  0.29790  0.75800  0.08440  1.0000 -0.1799489709
C   C69       1.0  0.67910  0.48250  0.86221  1.0000 0.1402819953
C   C70       1.0  0.55140  0.49850  0.84427  1.0000 -0.1799489709
C   C71       1.0  0.42680  0.49930  0.86755  1.0000 -0.127748992
C   C72       1.0  0.42810  0.48568  0.90904  1.0000 0.077538081
C   C73       1.0  0.55730  0.46870  0.92655  1.0000 -0.127748992
C   C74       1.0  0.68320  0.46730  0.90358  1.0000 -0.1577785287
C   C75       1.0  0.29590  0.48924  0.93606  1.0000 -0.0900429573
C   C76       1.0  0.28110  0.53793  0.96048  1.0000 0.1711444396
C   C77       1.0  0.37850  0.58670  0.95977  1.0000 -0.1907478263
C   C78       1.0  0.32680  0.62570  0.98540  1.0000 -0.1907478263
C   C79       1.0  0.19640  0.60260  0.00385  1.0000 0.1592891354
C   C80       1.0  0.11310  0.63193  0.03173  1.0000 -0.0818962559
C   C81       1.0  0.98800  0.61001  0.04993  1.0000 0.1402819953
C   C82       1.0  0.89460  0.64120  0.07804  1.0000 -0.2012161921
C   C83       1.0  0.78370  0.60760  0.08676  1.0000 -0.2012161921
C   C84       1.0  0.80290  0.55500  0.06449  1.0000 0.1474319387
C   C85       1.0  0.35110  0.97740  0.18982  1.0000 0.0888577958
C   C86       1.0  0.53130  0.03170  0.18190  1.0000 -0.0465588511
C   C87       1.0  0.42960  0.05070  0.15550  1.0000 -0.096656563
C   C88       1.0  0.81600  0.60010  0.96150  1.0000 0.1296712375
C   C89       1.0  0.95240  0.57240  0.91240  1.0000 -0.0248553168
C   C90       1.0  0.90360  0.62450  0.90275  1.0000 -0.1099617577
C   C91       1.0  0.75640  0.69870  0.94054  1.0000 0.1402819953
C   C92       1.0  0.66940  0.70860  0.97330  1.0000 -0.1907478263
C   C93       1.0  0.61910  0.76290  0.98040  1.0000 -0.1385193823
C   C94       1.0  0.65660  0.80770  0.95654  1.0000 0.0747958858
C   C95       1.0  0.74430  0.79810  0.92430  1.0000 -0.1385193823
C   C96       1.0  0.79790  0.74200  0.91560  1.0000 -0.1799489709
C   C97       1.0  0.17910  0.01750  0.13779  1.0000 0.1402819953
C   C98       1.0  0.05140  0.00150  0.15573  1.0000 -0.1799489709
C   C99       1.0  0.92680  0.00070  0.13245  1.0000 -0.127748992
C   C100      1.0  0.92810  0.01432  0.09096  1.0000 0.077538081
C   C101      1.0  0.05730  0.03130  0.07345  1.0000 -0.127748992
C   C102      1.0  0.18320  0.03270  0.09642  1.0000 -0.1577785287
C   C103      1.0  0.79590  0.01076  0.06394  1.0000 -0.0900429573
C   C104      1.0  0.78110  0.96207  0.03952  1.0000 0.1711444396
C   C105      1.0  0.87850  0.91330  0.04023  1.0000 -0.1907478263
C   C106      1.0  0.82680  0.87430  0.01460  1.0000 -0.1907478263
C   C107      1.0  0.69640  0.89740  0.99615  1.0000 0.1592891354
C   C108      1.0  0.61310  0.86807  0.96827  1.0000 -0.0818962559
C   C109      1.0  0.48800  0.88999  0.95007  1.0000 0.1402819953
C   C110      1.0  0.39460  0.85880  0.92196  1.0000 -0.1907478263
C   C111      1.0  0.28370  0.89240  0.91324  1.0000 -0.2012161921
C   C112      1.0  0.30290  0.94500  0.93551  1.0000 0.1474319387
C   C113      1.0  0.85110  0.52260  0.68982  1.0000 0.0888577958
C   C114      1.0  0.03130  0.46830  0.68190  1.0000 -0.0465588511
C   C115      1.0  0.92960  0.44930  0.65550  1.0000 -0.096656563
C   C116      1.0  0.31600  0.89990  0.46150  1.0000 0.1296712375
C   C117      1.0  0.45240  0.92760  0.41240  1.0000 -0.025084668
C   C118      1.0  0.40360  0.87550  0.40275  1.0000 -0.1099617577
C   C119      1.0  0.25640  0.80130  0.44054  1.0000 0.1402819953
C   C120      1.0  0.16940  0.79140  0.47330  1.0000 -0.1907478263
C   C121      1.0  0.11910  0.73710  0.48040  1.0000 -0.1385193823
C   C122      1.0  0.15660  0.69230  0.45654  1.0000 0.0747958858
C   C123      1.0  0.24430  0.70190  0.42430  1.0000 -0.1385193823
C   C124      1.0  0.29790  0.75800  0.41560  1.0000 -0.1799489709
C   C125      1.0  0.67910  0.48250  0.63779  1.0000 0.1402819953
C   C126      1.0  0.55140  0.49850  0.65573  1.0000 -0.1799489709
C   C127      1.0  0.42680  0.49930  0.63245  1.0000 -0.127748992
C   C128      1.0  0.42810  0.48568  0.59096  1.0000 0.077538081
C   C129      1.0  0.55730  0.46870  0.57345  1.0000 -0.127748992
C   C130      1.0  0.68320  0.46730  0.59642  1.0000 -0.1577785287
C   C131      1.0  0.29590  0.48924  0.56394  1.0000 -0.0900429573
C   C132      1.0  0.28110  0.53793  0.53952  1.0000 0.1711444396
C   C133      1.0  0.37850  0.58670  0.54023  1.0000 -0.1907478263
C   C134      1.0  0.32680  0.62570  0.51460  1.0000 -0.1907478263
C   C135      1.0  0.19640  0.60260  0.49615  1.0000 0.1592891354
C   C136      1.0  0.11310  0.63193  0.46827  1.0000 -0.0818962559
C   C137      1.0  0.98800  0.61001  0.45007  1.0000 0.1402819953
C   C138      1.0  0.89460  0.64120  0.42196  1.0000 -0.2012161921
C   C139      1.0  0.78370  0.60760  0.41324  1.0000 -0.2012161921
C   C140      1.0  0.80290  0.55500  0.43551  1.0000 0.1474319387
C   C141      1.0  0.35110  0.97740  0.31018  1.0000 0.0888577958
C   C142      1.0  0.53130  0.03170  0.31810  1.0000 -0.0465588511
C   C143      1.0  0.42960  0.05070  0.34450  1.0000 -0.096656563
C   C144      1.0  0.81600  0.60010  0.53850  1.0000 0.1296712375
C   C145      1.0  0.95240  0.57240  0.58760  1.0000 -0.0248553168
C   C146      1.0  0.90360  0.62450  0.59725  1.0000 -0.1099617577
C   C147      1.0  0.75640  0.69870  0.55946  1.0000 0.1402819953
C   C148      1.0  0.66940  0.70860  0.52670  1.0000 -0.1907478263
C   C149      1.0  0.61910  0.76290  0.51960  1.0000 -0.1385193823
C   C150      1.0  0.65660  0.80770  0.54346  1.0000 0.077538081
C   C151      1.0  0.74430  0.79810  0.57570  1.0000 -0.1385193823
C   C152      1.0  0.79790  0.74200  0.58440  1.0000 -0.1799489709
C   C153      1.0  0.17910  0.01750  0.36221  1.0000 0.1402819953
C   C154      1.0  0.05140  0.00150  0.34427  1.0000 -0.1799489709
C   C155      1.0  0.92680  0.00070  0.36755  1.0000 -0.127748992
C   C156      1.0  0.92810  0.01432  0.40904  1.0000 0.077538081
C   C157      1.0  0.05730  0.03130  0.42655  1.0000 -0.127748992
C   C158      1.0  0.18320  0.03270  0.40358  1.0000 -0.1577785287
C   C159      1.0  0.79590  0.01076  0.43606  1.0000 -0.0900429573
C   C160      1.0  0.78110  0.96207  0.46048  1.0000 0.1711444396
C   C161      1.0  0.87850  0.91330  0.45977  1.0000 -0.1907478263
C   C162      1.0  0.82680  0.87430  0.48540  1.0000 -0.1907478263
C   C163      1.0  0.69640  0.89740  0.50385  1.0000 0.1592891354
C   C164      1.0  0.61310  0.86807  0.53173  1.0000 -0.0818962559
C   C165      1.0  0.48800  0.88999  0.54993  1.0000 0.1402819953
C   C166      1.0  0.39460  0.85880  0.57804  1.0000 -0.1907478263
C   C167      1.0  0.28370  0.89240  0.58676  1.0000 -0.2012161921
C   C168      1.0  0.30290  0.94500  0.56449  1.0000 0.1474319387
C   C169      1.0  0.14890  0.47740  0.18982  1.0000 0.0888577958
C   C170      1.0  0.96870  0.53170  0.18190  1.0000 -0.0465588511
C   C171      1.0  0.07040  0.55070  0.15550  1.0000 -0.096656563
C   C172      1.0  0.68400  0.10010  0.96150  1.0000 0.1296712375
C   C173      1.0  0.54760  0.07240  0.91240  1.0000 -0.0248553168
C   C174      1.0  0.59640  0.12450  0.90275  1.0000 -0.1099617577
C   C175      1.0  0.74360  0.19870  0.94054  1.0000 0.1402819953
C   C176      1.0  0.83060  0.20860  0.97330  1.0000 -0.1907478263
C   C177      1.0  0.88090  0.26290  0.98040  1.0000 -0.1385193823
C   C178      1.0  0.84340  0.30770  0.95654  1.0000 0.0747958858
C   C179      1.0  0.75570  0.29810  0.92430  1.0000 -0.1385193823
C   C180      1.0  0.70210  0.24200  0.91560  1.0000 -0.1799489709
C   C181      1.0  0.32090  0.51750  0.13779  1.0000 0.1402819953
C   C182      1.0  0.44860  0.50150  0.15573  1.0000 -0.1799489709
C   C183      1.0  0.57320  0.50070  0.13245  1.0000 -0.127748992
C   C184      1.0  0.57190  0.51432  0.09096  1.0000 0.077538081
C   C185      1.0  0.44270  0.53130  0.07345  1.0000 -0.127748992
C   C186      1.0  0.31680  0.53270  0.09642  1.0000 -0.1577785287
C   C187      1.0  0.70410  0.51076  0.06394  1.0000 -0.0900429573
C   C188      1.0  0.71890  0.46207  0.03952  1.0000 0.1711444396
C   C189      1.0  0.62150  0.41330  0.04023  1.0000 -0.1907478263
C   C190      1.0  0.67320  0.37430  0.01460  1.0000 -0.1907478263
C   C191      1.0  0.80360  0.39740  0.99615  1.0000 0.1592891354
C   C192      1.0  0.88690  0.36807  0.96827  1.0000 -0.0818962559
C   C193      1.0  0.01200  0.38999  0.95007  1.0000 0.1402819953
C   C194      1.0  0.10540  0.35880  0.92196  1.0000 -0.1907478263
C   C195      1.0  0.21630  0.39240  0.91324  1.0000 -0.2012161921
C   C196      1.0  0.19710  0.44500  0.93551  1.0000 0.1474319387
C   C197      1.0  0.64890  0.02260  0.81018  1.0000 0.0888577958
C   C198      1.0  0.46870  0.96830  0.81810  1.0000 -0.0465588511
C   C199      1.0  0.57040  0.94930  0.84450  1.0000 -0.096656563
C   C200      1.0  0.18400  0.39990  0.03850  1.0000 0.1296712375
C   C201      1.0  0.04760  0.42760  0.08760  1.0000 -0.0248553168
C   C202      1.0  0.09640  0.37550  0.09725  1.0000 -0.1099617577
C   C203      1.0  0.24360  0.30130  0.05946  1.0000 0.1402819953
C   C204      1.0  0.33060  0.29140  0.02670  1.0000 -0.1907478263
C   C205      1.0  0.38090  0.23710  0.01960  1.0000 -0.1385193823
C   C206      1.0  0.34340  0.19230  0.04346  1.0000 0.0747958858
C   C207      1.0  0.25570  0.20190  0.07570  1.0000 -0.1385193823
C   C208      1.0  0.20210  0.25800  0.08440  1.0000 -0.1799489709
C   C209      1.0  0.82090  0.98250  0.86221  1.0000 0.1402819953
C   C210      1.0  0.94860  0.99850  0.84427  1.0000 -0.1799489709
C   C211      1.0  0.07320  0.99930  0.86755  1.0000 -0.127748992
C   C212      1.0  0.07190  0.98568  0.90904  1.0000 0.077538081
C   C213      1.0  0.94270  0.96870  0.92655  1.0000 -0.127748992
C   C214      1.0  0.81680  0.96730  0.90358  1.0000 -0.1577785287
C   C215      1.0  0.20410  0.98924  0.93606  1.0000 -0.0900429573
C   C216      1.0  0.21890  0.03793  0.96048  1.0000 0.1711444396
C   C217      1.0  0.12150  0.08670  0.95977  1.0000 -0.1907478263
C   C218      1.0  0.17320  0.12570  0.98540  1.0000 -0.1907478263
C   C219      1.0  0.30360  0.10260  0.00385  1.0000 0.1592891354
C   C220      1.0  0.38690  0.13193  0.03173  1.0000 -0.0818962559
C   C221      1.0  0.51200  0.11001  0.04993  1.0000 0.1402819953
C   C222      1.0  0.60540  0.14120  0.07804  1.0000 -0.2012161921
C   C223      1.0  0.71630  0.10760  0.08676  1.0000 -0.2012161921
C   C224      1.0  0.69710  0.05500  0.06449  1.0000 0.1474319387
N   N1        1.0  0.18740  0.51650  0.33861  1.0000 0.0136928622
N   N2        1.0  0.60510  0.05692  0.54969  1.0000 -0.2486795868
N   N3        1.0  0.68370  0.14255  0.56598  1.0000 0.0022871851
N   N4        1.0  0.82800  0.45171  0.48880  1.0000 -0.3328933652
N   N5        1.0  0.07100  0.44338  0.54197  1.0000 -0.3591757987
N   N6        1.0  0.01750  0.48510  0.29681  1.0000 -0.3025930461
N   N7        1.0  0.68740  0.98350  0.66139  1.0000 0.0136928622
N   N8        1.0  0.10510  0.44308  0.45031  1.0000 -0.2486795868
N   N9        1.0  0.18370  0.35745  0.43402  1.0000 0.0022871851
N   N10       1.0  0.32800  0.04829  0.51120  1.0000 -0.3328933652
N   N11       1.0  0.57100  0.05662  0.45803  1.0000 -0.3591757987
N   N12       1.0  0.51750  0.01490  0.70319  1.0000 -0.3025930461
N   N13       1.0  0.81260  0.48350  0.83861  1.0000 0.0136928622
N   N14       1.0  0.39490  0.94308  0.04969  1.0000 -0.2486795868
N   N15       1.0  0.31630  0.85745  0.06598  1.0000 0.0022871851
N   N16       1.0  0.17200  0.54829  0.98880  1.0000 -0.3328933652
N   N17       1.0  0.92900  0.55662  0.04197  1.0000 -0.3591757987
N   N18       1.0  0.98250  0.51490  0.79681  1.0000 -0.3025930461
N   N19       1.0  0.31260  0.01650  0.16139  1.0000 0.0136928622
N   N20       1.0  0.89490  0.55692  0.95031  1.0000 -0.2486795868
N   N21       1.0  0.81630  0.64255  0.93402  1.0000 0.0022871851
N   N22       1.0  0.67200  0.95171  0.01120  1.0000 -0.3328933652
N   N23       1.0  0.42900  0.94338  0.95803  1.0000 -0.3591757987
N   N24       1.0  0.48250  0.98510  0.20319  1.0000 -0.3025930461
N   N25       1.0  0.81260  0.48350  0.66139  1.0000 0.0136928622
N   N26       1.0  0.39490  0.94308  0.45031  1.0000 -0.2486795868
N   N27       1.0  0.31630  0.85745  0.43402  1.0000 0.0022871851
N   N28       1.0  0.17200  0.54829  0.51120  1.0000 -0.3328933652
N   N29       1.0  0.92900  0.55662  0.45803  1.0000 -0.3591757987
N   N30       1.0  0.98250  0.51490  0.70319  1.0000 -0.3025930461
N   N31       1.0  0.31260  0.01650  0.33861  1.0000 0.0136928622
N   N32       1.0  0.89490  0.55692  0.54969  1.0000 -0.2486795868
N   N33       1.0  0.81630  0.64255  0.56598  1.0000 0.0022871851
N   N34       1.0  0.67200  0.95171  0.48880  1.0000 -0.3328933652
N   N35       1.0  0.42900  0.94338  0.54197  1.0000 -0.3591757987
N   N36       1.0  0.48250  0.98510  0.29681  1.0000 -0.3025930461
N   N37       1.0  0.18740  0.51650  0.16139  1.0000 0.0136928622
N   N38       1.0  0.60510  0.05692  0.95031  1.0000 -0.2486795868
N   N39       1.0  0.68370  0.14255  0.93402  1.0000 0.0022871851
N   N40       1.0  0.82800  0.45171  0.01120  1.0000 -0.3328933652
N   N41       1.0  0.07100  0.44338  0.95803  1.0000 -0.3591757987
N   N42       1.0  0.01750  0.48510  0.20319  1.0000 -0.3025930461
N   N43       1.0  0.68740  0.98350  0.83861  1.0000 0.0136928622
N   N44       1.0  0.10510  0.44308  0.04969  1.0000 -0.2486795868
N   N45       1.0  0.18370  0.35745  0.06598  1.0000 0.0022871851
N   N46       1.0  0.32800  0.04829  0.98880  1.0000 -0.3328933652
N   N47       1.0  0.57100  0.05662  0.04197  1.0000 -0.3591757987
N   N48       1.0  0.51750  0.01490  0.79681  1.0000 -0.3025930461
O   O1        1.0  0.80520  0.38490  0.20140  1.0000 -0.9137628089
O   O2        1.0  0.30520  0.11510  0.79860  1.0000 -0.9137628089
O   O3        1.0  0.19480  0.61510  0.70140  1.0000 -0.9151986849
O   O4        1.0  0.69480  0.88490  0.29860  1.0000 -0.9137628089
O   O5        1.0  0.19480  0.61510  0.79860  1.0000 -0.9151986849
O   O6        1.0  0.69480  0.88490  0.20140  1.0000 -0.9151986849
O   O7        1.0  0.80520  0.38490  0.29860  1.0000 -0.9137628089
O   O8        1.0  0.30520  0.11510  0.70140  1.0000 -0.9151986849
