# DDEC6 charges by PACMAN v1.1 (https://github.com/mtap-research/PACMAN-charge/)
data_2019[Eu][nan]3[ASR]1
_chemical_formula_sum              "Eu4 H16 C24 O26"
_cell_length_a       9.98942
_cell_length_b       9.98942
_cell_length_c       10.3301
_cell_angle_alpha    77.4266
_cell_angle_beta     102.573
_cell_angle_gamma    85.9739

_symmetry_space_group_name_H-M    "P 1"
_symmetry_Int_Tables_number       1

loop_
  _symmetry_equiv_pos_as_xyz
  'x, y, z'

loop_
  _atom_site_type_symbol
  _atom_site_label
  _atom_site_symmetry_multiplicity
  _atom_site_fract_x
  _atom_site_fract_y
  _atom_site_fract_z
  _atom_site_occupancy
  _atom_site_charge
Eu  Eu1       1.0  0.96605  0.79923  0.96051  1.0000 2.0519746623
Eu  Eu2       1.0  0.79923  0.96605  0.53949  1.0000 2.0519746623
Eu  Eu3       1.0  0.03395  0.20077  0.03949  1.0000 2.0519746623
Eu  Eu4       1.0  0.20077  0.03395  0.46051  1.0000 2.0519746623
H   H1        1.0  0.95370  0.04470  0.76460  1.0000 0.3677940524
H   H2        1.0  0.31830  0.08690  0.93340  1.0000 0.1134936146
H   H3        1.0  0.46730  0.83610  0.92780  1.0000 0.1264595768
H   H4        1.0  0.52530  0.11450  0.82900  1.0000 0.1212458542
H   H5        1.0  0.04470  0.95370  0.73540  1.0000 0.3677940524
H   H6        1.0  0.08690  0.31830  0.56660  1.0000 0.1134936146
H   H7        1.0  0.83610  0.46730  0.57220  1.0000 0.1264595768
H   H8        1.0  0.11450  0.52530  0.67100  1.0000 0.1212458542
H   H9        1.0  0.04630  0.95530  0.23540  1.0000 0.3677940524
H   H10       1.0  0.68170  0.91310  0.06660  1.0000 0.1134936146
H   H11       1.0  0.53270  0.16390  0.07220  1.0000 0.1264595768
H   H12       1.0  0.47470  0.88550  0.17100  1.0000 0.1212458542
H   H13       1.0  0.95530  0.04630  0.26460  1.0000 0.3677940524
H   H14       1.0  0.91310  0.68170  0.43340  1.0000 0.1134936146
H   H15       1.0  0.16390  0.53270  0.42780  1.0000 0.1264595768
H   H16       1.0  0.88550  0.47470  0.32900  1.0000 0.1212458542
C   C1        1.0  0.22860  0.91300  0.98620  1.0000 0.6327236227
C   C2        1.0  0.34320  0.95300  0.74100  1.0000 0.5947403989
C   C3        1.0  0.65090  0.95910  0.79310  1.0000 0.6504497013
C   C4        1.0  0.35240  0.98960  0.97730  1.0000 -0.1472078481
C   C5        1.0  0.43390  0.93430  0.88780  1.0000 -0.1328580299
C   C6        1.0  0.56010  0.01770  0.87490  1.0000 -0.1367948421
C   C7        1.0  0.91300  0.22860  0.51380  1.0000 0.6327236227
C   C8        1.0  0.95300  0.34320  0.75900  1.0000 0.5947403989
C   C9        1.0  0.95910  0.65090  0.70690  1.0000 0.6504497013
C   C10       1.0  0.98960  0.35240  0.52270  1.0000 -0.1472078481
C   C11       1.0  0.93430  0.43390  0.61220  1.0000 -0.1328580299
C   C12       1.0  0.01770  0.56010  0.62510  1.0000 -0.1367948421
C   C13       1.0  0.77140  0.08700  0.01380  1.0000 0.6327236227
C   C14       1.0  0.65680  0.04700  0.25900  1.0000 0.5947403989
C   C15       1.0  0.34910  0.04090  0.20690  1.0000 0.6504497013
C   C16       1.0  0.64760  0.01040  0.02270  1.0000 -0.1472078481
C   C17       1.0  0.56610  0.06570  0.11220  1.0000 -0.1328580299
C   C18       1.0  0.43990  0.98230  0.12510  1.0000 -0.1367948421
C   C19       1.0  0.08700  0.77140  0.48620  1.0000 0.6327236227
C   C20       1.0  0.04700  0.65680  0.24100  1.0000 0.5947403989
C   C21       1.0  0.04090  0.34910  0.29310  1.0000 0.6504497013
C   C22       1.0  0.01040  0.64760  0.47730  1.0000 -0.1472078481
C   C23       1.0  0.06570  0.56610  0.38780  1.0000 -0.1328580299
C   C24       1.0  0.98230  0.43990  0.37490  1.0000 -0.1367948421
O   O1        1.0  0.21960  0.79880  0.95320  1.0000 -0.5608740368
O   O2        1.0  0.13020  0.96440  0.02670  1.0000 -0.7281827398
O   O3        1.0  0.38020  0.88780  0.66360  1.0000 -0.5745169141
O   O4        1.0  0.23110  0.03570  0.70320  1.0000 -0.6494735994
O   O5        1.0  0.64770  0.02350  0.67780  1.0000 -0.590861521
O   O6        1.0  0.72570  0.84390  0.85440  1.0000 -0.7172981121
O   O7        1.0  0.79880  0.21960  0.54680  1.0000 -0.5608740368
O   O8        1.0  0.96440  0.13020  0.47330  1.0000 -0.7281827398
O   O9        1.0  0.88780  0.38020  0.83640  1.0000 -0.5745169141
O   O10       1.0  0.03570  0.23110  0.79680  1.0000 -0.6494735994
O   O11       1.0  0.02350  0.64770  0.82220  1.0000 -0.590861521
O   O12       1.0  0.84390  0.72570  0.64560  1.0000 -0.7172981121
O   O13       1.0  0.78040  0.20120  0.04680  1.0000 -0.5608740368
O   O14       1.0  0.86980  0.03560  0.97330  1.0000 -0.7281827398
O   O15       1.0  0.61980  0.11220  0.33640  1.0000 -0.5745169141
O   O16       1.0  0.76890  0.96430  0.29680  1.0000 -0.6494735994
O   O17       1.0  0.35230  0.97650  0.32220  1.0000 -0.590861521
O   O18       1.0  0.27430  0.15610  0.14560  1.0000 -0.7172981121
O   O19       1.0  0.20120  0.78040  0.45320  1.0000 -0.5608740368
O   O20       1.0  0.03560  0.86980  0.52670  1.0000 -0.7281827398
O   O21       1.0  0.11220  0.61980  0.16360  1.0000 -0.5745169141
O   O22       1.0  0.96430  0.76890  0.20320  1.0000 -0.6494735994
O   O23       1.0  0.97650  0.35230  0.17780  1.0000 -0.590861521
O   O24       1.0  0.15610  0.27430  0.35440  1.0000 -0.7172981121
O   O25       1.0  0.96460  0.96460  0.75000  1.0000 -0.8416276791
O   O26       1.0  0.03540  0.03540  0.25000  1.0000 -0.8416276791
