# DDEC6 charges by PACMAN v1.1 (https://github.com/mtap-research/PACMAN-charge/)
data_2019[Ho][nan]3[ASR]3
_chemical_formula_sum              "Ho6 H148 C252 N18 O36"
_cell_length_a       23.4997
_cell_length_b       23.4997
_cell_length_c       20.1369
_cell_angle_alpha    90
_cell_angle_beta     90
_cell_angle_gamma    119.016

_symmetry_space_group_name_H-M    "P 1"
_symmetry_Int_Tables_number       1

loop_
  _symmetry_equiv_pos_as_xyz
  'x, y, z'

loop_
  _atom_site_type_symbol
  _atom_site_label
  _atom_site_symmetry_multiplicity
  _atom_site_fract_x
  _atom_site_fract_y
  _atom_site_fract_z
  _atom_site_occupancy
  _atom_site_charge
Ho  Ho1       1.0  0.52420  0.41030  0.33803  1.0000 2.0662922106
Ho  Ho2       1.0  0.47580  0.58970  0.83803  1.0000 2.0662922106
Ho  Ho3       1.0  0.58970  0.47580  0.16197  1.0000 2.0662922106
Ho  Ho4       1.0  0.41030  0.52420  0.66197  1.0000 2.0662922106
Ho  Ho5       1.0  0.41531  0.41531  0.50000  1.0000 2.0271928749
Ho  Ho6       1.0  0.58469  0.58469  0.00000  1.0000 2.0271928749
H   H1        1.0  0.48125  0.59699  0.47660  1.0000 0.1291391948
H   H2        1.0  0.64820  0.63278  0.38825  1.0000 0.1291391948
H   H3        1.0  0.52933  0.70453  0.51160  1.0000 0.1190266894
H   H4        1.0  0.69544  0.73960  0.42178  1.0000 0.1126326016
H   H5        1.0  0.73767  0.81757  0.50948  1.0000 0.1190266894
H   H6        1.0  0.56749  0.81329  0.48044  1.0000 0.1190266894
H   H7        1.0  0.78276  0.92312  0.54333  1.0000 0.1190266894
H   H8        1.0  0.61662  0.92324  0.50785  1.0000 0.1190266894
H   H9        1.0  0.76958  0.22198  0.57187  1.0000 0.1190266894
H   H10       1.0  0.60298  0.05536  0.53702  1.0000 0.1190266894
H   H11       1.0  0.91304  0.06142  0.57011  1.0000 0.1190266894
H   H12       1.0  0.89817  0.21725  0.60835  1.0000 0.1291391948
H   H13       1.0  0.71337  0.27963  0.56182  1.0000 0.1190266894
H   H14       1.0  0.54767  0.11345  0.52819  1.0000 0.1126326016
H   H15       1.0  0.02565  0.12535  0.55949  1.0000 0.1126326016
H   H16       1.0  0.00523  0.27459  0.62494  1.0000 0.1126326016
H   H17       1.0  0.66683  0.32181  0.49227  1.0000 0.1126326016
H   H18       1.0  0.50497  0.17575  0.57295  1.0000 0.1190266894
H   H19       1.0  0.12708  0.18660  0.56511  1.0000 0.1190266894
H   H20       1.0  0.10094  0.32482  0.64065  1.0000 0.1126326016
H   H21       1.0  0.45058  0.23354  0.55524  1.0000 0.1291391948
H   H22       1.0  0.23684  0.25012  0.57183  1.0000 0.1291391948
H   H23       1.0  0.21387  0.39681  0.63387  1.0000 0.1291391948
H   H24       1.0  0.59405  0.49159  0.83474  1.0000 0.1367439023
H   H25       1.0  0.65143  0.43513  0.83531  1.0000 0.1126326016
H   H26       1.0  0.58359  0.26823  0.70508  1.0000 0.1190266894
H   H27       1.0  0.63993  0.21031  0.70756  1.0000 0.1190266894
H   H28       1.0  0.79741  0.05757  0.72322  1.0000 0.1190266894
H   H29       1.0  0.63581  0.07171  0.72380  1.0000 0.1190266894
H   H30       1.0  0.73806  0.94838  0.70393  1.0000 0.1190266894
H   H31       1.0  0.57329  0.95959  0.70423  1.0000 0.1126326016
H   H32       1.0  0.53102  0.86756  0.64751  1.0000 0.1190266894
H   H33       1.0  0.67075  0.84325  0.73357  1.0000 0.1126326016
H   H34       1.0  0.46876  0.75738  0.63448  1.0000 0.1190266894
H   H35       1.0  0.60348  0.73118  0.72584  1.0000 0.1291391948
H   H36       1.0  0.61354  0.38016  0.51241  1.0000 0.1291391948
H   H37       1.0  0.59290  0.34702  0.44289  1.0000 0.1291391948
H   H38       1.0  0.51875  0.40301  0.97660  1.0000 0.1291391948
H   H39       1.0  0.35180  0.36722  0.88825  1.0000 0.1291391948
H   H40       1.0  0.47067  0.29547  0.01160  1.0000 0.1190266894
H   H41       1.0  0.30456  0.26040  0.92178  1.0000 0.1126326016
H   H42       1.0  0.26233  0.18243  0.00948  1.0000 0.1190266894
H   H43       1.0  0.43251  0.18671  0.98044  1.0000 0.1190266894
H   H44       1.0  0.21724  0.07688  0.04333  1.0000 0.1190266894
H   H45       1.0  0.38338  0.07676  0.00785  1.0000 0.1190266894
H   H46       1.0  0.23042  0.77802  0.07187  1.0000 0.1190266894
H   H47       1.0  0.39702  0.94464  0.03702  1.0000 0.1190266894
H   H48       1.0  0.08696  0.93858  0.07011  1.0000 0.1190266894
H   H49       1.0  0.10183  0.78275  0.10835  1.0000 0.1291391948
H   H50       1.0  0.28663  0.72037  0.06182  1.0000 0.1190266894
H   H51       1.0  0.45233  0.88655  0.02819  1.0000 0.1126326016
H   H52       1.0  0.97435  0.87465  0.05949  1.0000 0.1126326016
H   H53       1.0  0.99477  0.72541  0.12494  1.0000 0.1126326016
H   H54       1.0  0.33317  0.67819  0.99227  1.0000 0.1126326016
H   H55       1.0  0.49503  0.82425  0.07295  1.0000 0.1190266894
H   H56       1.0  0.87292  0.81340  0.06511  1.0000 0.1190266894
H   H57       1.0  0.89906  0.67518  0.14065  1.0000 0.1126326016
H   H58       1.0  0.54942  0.76646  0.05524  1.0000 0.1291391948
H   H59       1.0  0.76316  0.74988  0.07183  1.0000 0.1291391948
H   H60       1.0  0.78613  0.60319  0.13387  1.0000 0.1291391948
H   H61       1.0  0.40595  0.50841  0.33474  1.0000 0.1367439023
H   H62       1.0  0.34857  0.56487  0.33531  1.0000 0.1126326016
H   H63       1.0  0.41641  0.73177  0.20508  1.0000 0.1190266894
H   H64       1.0  0.36007  0.78969  0.20756  1.0000 0.1190266894
H   H65       1.0  0.20259  0.94243  0.22322  1.0000 0.1190266894
H   H66       1.0  0.36419  0.92829  0.22380  1.0000 0.1190266894
H   H67       1.0  0.26194  0.05162  0.20393  1.0000 0.1190266894
H   H68       1.0  0.42671  0.04041  0.20423  1.0000 0.1126326016
H   H69       1.0  0.46898  0.13244  0.14751  1.0000 0.1190266894
H   H70       1.0  0.32925  0.15675  0.23357  1.0000 0.1126326016
H   H71       1.0  0.53124  0.24262  0.13448  1.0000 0.1190266894
H   H72       1.0  0.39652  0.26882  0.22584  1.0000 0.1291391948
H   H73       1.0  0.38646  0.61984  0.01241  1.0000 0.1291391948
H   H74       1.0  0.40710  0.65298  0.94289  1.0000 0.1291391948
H   H75       1.0  0.40301  0.51875  0.02340  1.0000 0.1291391948
H   H76       1.0  0.36722  0.35180  0.11175  1.0000 0.1291391948
H   H77       1.0  0.29547  0.47067  0.98840  1.0000 0.1190266894
H   H78       1.0  0.26040  0.30456  0.07822  1.0000 0.1126326016
H   H79       1.0  0.18243  0.26233  0.99052  1.0000 0.1190266894
H   H80       1.0  0.18671  0.43251  0.01956  1.0000 0.1190266894
H   H81       1.0  0.07688  0.21724  0.95667  1.0000 0.1190266894
H   H82       1.0  0.07676  0.38338  0.99215  1.0000 0.1190266894
H   H83       1.0  0.77802  0.23042  0.92813  1.0000 0.1190266894
H   H84       1.0  0.94464  0.39702  0.96298  1.0000 0.1190266894
H   H85       1.0  0.93858  0.08696  0.92989  1.0000 0.1190266894
H   H86       1.0  0.78275  0.10183  0.89165  1.0000 0.1291391948
H   H87       1.0  0.72037  0.28663  0.93818  1.0000 0.1190266894
H   H88       1.0  0.88655  0.45233  0.97181  1.0000 0.1126326016
H   H89       1.0  0.87465  0.97435  0.94051  1.0000 0.1126326016
H   H90       1.0  0.72541  0.99477  0.87506  1.0000 0.1126326016
H   H91       1.0  0.67819  0.33317  0.00773  1.0000 0.1126326016
H   H92       1.0  0.82425  0.49503  0.92705  1.0000 0.1190266894
H   H93       1.0  0.81340  0.87292  0.93489  1.0000 0.1190266894
H   H94       1.0  0.67518  0.89906  0.85935  1.0000 0.1126326016
H   H95       1.0  0.76646  0.54942  0.94476  1.0000 0.1291391948
H   H96       1.0  0.74988  0.76316  0.92817  1.0000 0.1291391948
H   H97       1.0  0.60319  0.78613  0.86613  1.0000 0.1291391948
H   H98       1.0  0.50841  0.40595  0.66526  1.0000 0.1367439023
H   H99       1.0  0.56487  0.34857  0.66469  1.0000 0.1126326016
H   H100      1.0  0.73177  0.41641  0.79492  1.0000 0.1190266894
H   H101      1.0  0.78969  0.36007  0.79244  1.0000 0.1190266894
H   H102      1.0  0.94243  0.20259  0.77678  1.0000 0.1190266894
H   H103      1.0  0.92829  0.36419  0.77620  1.0000 0.1190266894
H   H104      1.0  0.05162  0.26194  0.79607  1.0000 0.1190266894
H   H105      1.0  0.04041  0.42671  0.79577  1.0000 0.1126326016
H   H106      1.0  0.13244  0.46898  0.85249  1.0000 0.1190266894
H   H107      1.0  0.15675  0.32925  0.76643  1.0000 0.1126326016
H   H108      1.0  0.24262  0.53124  0.86552  1.0000 0.1190266894
H   H109      1.0  0.26882  0.39652  0.77416  1.0000 0.1291391948
H   H110      1.0  0.61984  0.38646  0.98759  1.0000 0.1291391948
H   H111      1.0  0.65298  0.40710  0.05711  1.0000 0.1291391948
H   H112      1.0  0.59699  0.48125  0.52340  1.0000 0.1291391948
H   H113      1.0  0.63278  0.64820  0.61175  1.0000 0.1291391948
H   H114      1.0  0.70453  0.52933  0.48840  1.0000 0.1190266894
H   H115      1.0  0.73960  0.69544  0.57822  1.0000 0.1126326016
H   H116      1.0  0.81757  0.73767  0.49052  1.0000 0.1190266894
H   H117      1.0  0.81329  0.56749  0.51956  1.0000 0.1190266894
H   H118      1.0  0.92312  0.78276  0.45667  1.0000 0.1190266894
H   H119      1.0  0.92324  0.61662  0.49215  1.0000 0.1190266894
H   H120      1.0  0.22198  0.76958  0.42813  1.0000 0.1190266894
H   H121      1.0  0.05536  0.60298  0.46298  1.0000 0.1190266894
H   H122      1.0  0.06142  0.91304  0.42989  1.0000 0.1190266894
H   H123      1.0  0.21725  0.89817  0.39165  1.0000 0.1291391948
H   H124      1.0  0.27963  0.71337  0.43818  1.0000 0.1190266894
H   H125      1.0  0.11345  0.54767  0.47181  1.0000 0.1126326016
H   H126      1.0  0.12535  0.02565  0.44051  1.0000 0.1126326016
H   H127      1.0  0.27459  0.00523  0.37506  1.0000 0.1126326016
H   H128      1.0  0.32181  0.66683  0.50773  1.0000 0.1126326016
H   H129      1.0  0.17575  0.50497  0.42705  1.0000 0.1190266894
H   H130      1.0  0.18660  0.12708  0.43489  1.0000 0.1190266894
H   H131      1.0  0.32482  0.10094  0.35935  1.0000 0.1126326016
H   H132      1.0  0.23354  0.45058  0.44476  1.0000 0.1291391948
H   H133      1.0  0.25012  0.23684  0.42817  1.0000 0.1291391948
H   H134      1.0  0.39681  0.21387  0.36613  1.0000 0.1291391948
H   H135      1.0  0.49159  0.59405  0.16526  1.0000 0.1367439023
H   H136      1.0  0.43513  0.65143  0.16469  1.0000 0.1126326016
H   H137      1.0  0.26823  0.58359  0.29492  1.0000 0.1190266894
H   H138      1.0  0.21031  0.63993  0.29244  1.0000 0.1190266894
H   H139      1.0  0.05757  0.79741  0.27678  1.0000 0.1190266894
H   H140      1.0  0.07171  0.63581  0.27620  1.0000 0.1190266894
H   H141      1.0  0.94838  0.73806  0.29607  1.0000 0.1190266894
H   H142      1.0  0.95959  0.57329  0.29577  1.0000 0.1126326016
H   H143      1.0  0.86756  0.53102  0.35249  1.0000 0.1190266894
H   H144      1.0  0.84325  0.67075  0.26643  1.0000 0.1126326016
H   H145      1.0  0.75738  0.46876  0.36552  1.0000 0.1190266894
H   H146      1.0  0.73118  0.60348  0.27416  1.0000 0.1291391948
H   H147      1.0  0.38016  0.61354  0.48759  1.0000 0.1291391948
H   H148      1.0  0.34702  0.59290  0.55711  1.0000 0.1291391948
C   C1        1.0  0.53141  0.53359  0.41300  1.0000 0.6301066122
C   C2        1.0  0.56119  0.60421  0.43030  1.0000 -0.0379322649
C   C3        1.0  0.52441  0.62559  0.46620  1.0000 -0.0841510603
C   C4        1.0  0.62429  0.64711  0.41320  1.0000 -0.0896363516
C   C5        1.0  0.55317  0.69043  0.48620  1.0000 -0.1408840855
C   C6        1.0  0.65227  0.71113  0.43270  1.0000 -0.1505662162
C   C7        1.0  0.61652  0.73408  0.46900  1.0000 0.0687795468
C   C8        1.0  0.64738  0.80302  0.49020  1.0000 0.0687795468
C   C9        1.0  0.71233  0.83807  0.50950  1.0000 -0.1578669587
C   C10       1.0  0.61150  0.83550  0.49120  1.0000 -0.1505662162
C   C11       1.0  0.73993  0.90167  0.52850  1.0000 -0.1098406729
C   C12       1.0  0.64113  0.90187  0.50850  1.0000 -0.1003768979
C   C13       1.0  0.70391  0.93469  0.52570  1.0000 0.0095102171
C   C14       1.0  0.73494  0.00426  0.54180  1.0000 0.3596935636
C   C15       1.0  0.73070  0.09750  0.55560  1.0000 0.3545856318
C   C16       1.0  0.82483  0.09857  0.56730  1.0000 0.3596935636
C   C17       1.0  0.69271  0.13309  0.55280  1.0000 0.0190213932
C   C18       1.0  0.89589  0.13591  0.57930  1.0000 0.0190213932
C   C19       1.0  0.72533  0.20027  0.56200  1.0000 -0.1098406729
C   C20       1.0  0.62533  0.10047  0.54120  1.0000 -0.1098406729
C   C21       1.0  0.93271  0.10649  0.57370  1.0000 -0.1003768979
C   C22       1.0  0.92394  0.19806  0.59980  1.0000 -0.1003768979
C   C23       1.0  0.69131  0.23469  0.55640  1.0000 -0.1505662162
C   C24       1.0  0.59221  0.13519  0.53620  1.0000 -0.1578669587
C   C25       1.0  0.00079  0.14421  0.57320  1.0000 -0.1677770772
C   C26       1.0  0.98835  0.23265  0.60810  1.0000 -0.1505662162
C   C27       1.0  0.62523  0.20337  0.54290  1.0000 0.0584551237
C   C28       1.0  0.03235  0.21005  0.59300  1.0000 0.0808066941
C   C29       1.0  0.59100  0.24160  0.53200  1.0000 0.0584551237
C   C30       1.0  0.10404  0.25116  0.59830  1.0000 0.0687795468
C   C31       1.0  0.62299  0.30361  0.50310  1.0000 -0.1408840855
C   C32       1.0  0.52608  0.21612  0.55210  1.0000 -0.1578669587
C   C33       1.0  0.14430  0.22890  0.58090  1.0000 -0.1505662162
C   C34       1.0  0.12860  0.31060  0.62340  1.0000 -0.1505662162
C   C35       1.0  0.59015  0.33845  0.49020  1.0000 -0.1975380489
C   C36       1.0  0.49343  0.25037  0.54110  1.0000 -0.1003768979
C   C37       1.0  0.20997  0.26663  0.58570  1.0000 -0.1003768979
C   C38       1.0  0.19720  0.35280  0.62420  1.0000 -0.1003768979
C   C39       1.0  0.52458  0.31082  0.50860  1.0000 -0.0379322649
C   C40       1.0  0.23743  0.32937  0.61100  1.0000 -0.0311480509
C   C41       1.0  0.48710  0.34530  0.49630  1.0000 0.583281084
C   C42       1.0  0.30902  0.37278  0.61680  1.0000 0.6459561429
C   C43       1.0  0.58817  0.46283  0.80040  1.0000 -0.0896363516
C   C44       1.0  0.62268  0.42892  0.80080  1.0000 -0.1505662162
C   C45       1.0  0.62492  0.28708  0.72370  1.0000 -0.1578669587
C   C46       1.0  0.65919  0.25241  0.72450  1.0000 -0.1098406729
C   C47       1.0  0.75947  0.14753  0.73840  1.0000 0.366926103
C   C48       1.0  0.72219  0.07701  0.72760  1.0000 0.0095102171
C   C49       1.0  0.75232  0.03828  0.72000  1.0000 -0.1166807273
C   C50       1.0  0.65672  0.04688  0.72050  1.0000 -0.1098406729
C   C51       1.0  0.71648  0.97252  0.70800  1.0000 -0.1505662162
C   C52       1.0  0.61827  0.97873  0.70810  1.0000 -0.1505662162
C   C53       1.0  0.64974  0.94126  0.70180  1.0000 0.0687795468
C   C54       1.0  0.60935  0.86965  0.69300  1.0000 0.0687795468
C   C55       1.0  0.54674  0.84066  0.66340  1.0000 -0.1677770772
C   C56       1.0  0.62950  0.82710  0.71520  1.0000 -0.1578669587
C   C57       1.0  0.50818  0.77422  0.65700  1.0000 -0.1003768979
C   C58       1.0  0.58842  0.75878  0.71040  1.0000 -0.0896363516
C   C59       1.0  0.52776  0.73284  0.68390  1.0000 -0.0379322649
C   C60       1.0  0.48438  0.66162  0.68040  1.0000 0.6165903053
C   C61       1.0  0.46859  0.46641  0.91300  1.0000 0.6301066122
C   C62       1.0  0.43881  0.39579  0.93030  1.0000 -0.0379322649
C   C63       1.0  0.47559  0.37441  0.96620  1.0000 -0.0841510603
C   C64       1.0  0.37571  0.35289  0.91320  1.0000 -0.0896363516
C   C65       1.0  0.44683  0.30957  0.98620  1.0000 -0.1408840855
C   C66       1.0  0.34773  0.28887  0.93270  1.0000 -0.1505662162
C   C67       1.0  0.38348  0.26592  0.96900  1.0000 0.0687795468
C   C68       1.0  0.35262  0.19698  0.99020  1.0000 0.0687795468
C   C69       1.0  0.28767  0.16193  0.00950  1.0000 -0.1578669587
C   C70       1.0  0.38850  0.16450  0.99120  1.0000 -0.1505662162
C   C71       1.0  0.26007  0.09833  0.02850  1.0000 -0.1098406729
C   C72       1.0  0.35887  0.09813  0.00850  1.0000 -0.1003768979
C   C73       1.0  0.29609  0.06531  0.02570  1.0000 0.0095102171
C   C74       1.0  0.26506  0.99574  0.04180  1.0000 0.3596935636
C   C75       1.0  0.26930  0.90250  0.05560  1.0000 0.3545856318
C   C76       1.0  0.17517  0.90143  0.06730  1.0000 0.3596935636
C   C77       1.0  0.30729  0.86691  0.05280  1.0000 0.0190213932
C   C78       1.0  0.10411  0.86409  0.07930  1.0000 0.0190213932
C   C79       1.0  0.27467  0.79973  0.06200  1.0000 -0.1098406729
C   C80       1.0  0.37467  0.89953  0.04120  1.0000 -0.1098406729
C   C81       1.0  0.06729  0.89351  0.07370  1.0000 -0.1003768979
C   C82       1.0  0.07606  0.80194  0.09980  1.0000 -0.1003768979
C   C83       1.0  0.30869  0.76531  0.05640  1.0000 -0.1505662162
C   C84       1.0  0.40779  0.86481  0.03620  1.0000 -0.1578669587
C   C85       1.0  0.99921  0.85579  0.07320  1.0000 -0.1677770772
C   C86       1.0  0.01165  0.76735  0.10810  1.0000 -0.1505662162
C   C87       1.0  0.37477  0.79663  0.04290  1.0000 0.0584551237
C   C88       1.0  0.96765  0.78995  0.09300  1.0000 0.0808066941
C   C89       1.0  0.40900  0.75840  0.03200  1.0000 0.0584551237
C   C90       1.0  0.89596  0.74884  0.09830  1.0000 0.0687795468
C   C91       1.0  0.37701  0.69639  0.00310  1.0000 -0.1408840855
C   C92       1.0  0.47392  0.78388  0.05210  1.0000 -0.1578669587
C   C93       1.0  0.85570  0.77110  0.08090  1.0000 -0.1505662162
C   C94       1.0  0.87140  0.68940  0.12340  1.0000 -0.1505662162
C   C95       1.0  0.40985  0.66155  0.99020  1.0000 -0.1975380489
C   C96       1.0  0.50657  0.74963  0.04110  1.0000 -0.1003768979
C   C97       1.0  0.79003  0.73337  0.08570  1.0000 -0.1003768979
C   C98       1.0  0.80280  0.64720  0.12420  1.0000 -0.1003768979
C   C99       1.0  0.47542  0.68918  0.00860  1.0000 -0.0379322649
C   C100      1.0  0.76257  0.67063  0.11100  1.0000 -0.0311480509
C   C101      1.0  0.51290  0.65470  0.99630  1.0000 0.583281084
C   C102      1.0  0.69098  0.62722  0.11680  1.0000 0.6459561429
C   C103      1.0  0.41183  0.53717  0.30040  1.0000 -0.0896363516
C   C104      1.0  0.37732  0.57108  0.30080  1.0000 -0.1505662162
C   C105      1.0  0.37508  0.71292  0.22370  1.0000 -0.1578669587
C   C106      1.0  0.34081  0.74759  0.22450  1.0000 -0.1003768979
C   C107      1.0  0.24053  0.85247  0.23840  1.0000 0.366926103
C   C108      1.0  0.27781  0.92299  0.22760  1.0000 0.0095102171
C   C109      1.0  0.24768  0.96172  0.22000  1.0000 -0.1166807273
C   C110      1.0  0.34328  0.95312  0.22050  1.0000 -0.1098406729
C   C111      1.0  0.28352  0.02748  0.20800  1.0000 -0.1505662162
C   C112      1.0  0.38173  0.02127  0.20810  1.0000 -0.1505662162
C   C113      1.0  0.35026  0.05874  0.20180  1.0000 0.0687795468
C   C114      1.0  0.39065  0.13035  0.19300  1.0000 0.0687795468
C   C115      1.0  0.45326  0.15934  0.16340  1.0000 -0.1677770772
C   C116      1.0  0.37050  0.17290  0.21520  1.0000 -0.1578669587
C   C117      1.0  0.49182  0.22578  0.15700  1.0000 -0.1003768979
C   C118      1.0  0.41158  0.24122  0.21040  1.0000 -0.0896363516
C   C119      1.0  0.47224  0.26716  0.18390  1.0000 -0.0379322649
C   C120      1.0  0.51562  0.33838  0.18040  1.0000 0.6165903053
C   C121      1.0  0.46641  0.46859  0.08700  1.0000 0.6301066122
C   C122      1.0  0.39579  0.43881  0.06970  1.0000 -0.0379322649
C   C123      1.0  0.37441  0.47559  0.03380  1.0000 -0.0841510603
C   C124      1.0  0.35289  0.37571  0.08680  1.0000 -0.0896363516
C   C125      1.0  0.30957  0.44683  0.01380  1.0000 -0.1408840855
C   C126      1.0  0.28887  0.34773  0.06730  1.0000 -0.1505662162
C   C127      1.0  0.26592  0.38348  0.03100  1.0000 0.0687795468
C   C128      1.0  0.19698  0.35262  0.00980  1.0000 0.0687795468
C   C129      1.0  0.16193  0.28767  0.99050  1.0000 -0.1578669587
C   C130      1.0  0.16450  0.38850  0.00880  1.0000 -0.1505662162
C   C131      1.0  0.09833  0.26007  0.97150  1.0000 -0.1098406729
C   C132      1.0  0.09813  0.35887  0.99150  1.0000 -0.1003768979
C   C133      1.0  0.06531  0.29609  0.97430  1.0000 0.0095102171
C   C134      1.0  0.99574  0.26506  0.95820  1.0000 0.3596935636
C   C135      1.0  0.90250  0.26930  0.94440  1.0000 0.3545856318
C   C136      1.0  0.90143  0.17517  0.93270  1.0000 0.3596935636
C   C137      1.0  0.86691  0.30729  0.94720  1.0000 0.0190213932
C   C138      1.0  0.86409  0.10411  0.92070  1.0000 0.0190213932
C   C139      1.0  0.79973  0.27467  0.93800  1.0000 -0.1098406729
C   C140      1.0  0.89953  0.37467  0.95880  1.0000 -0.1098406729
C   C141      1.0  0.89351  0.06729  0.92630  1.0000 -0.1003768979
C   C142      1.0  0.80194  0.07606  0.90020  1.0000 -0.1003768979
C   C143      1.0  0.76531  0.30869  0.94360  1.0000 -0.1505662162
C   C144      1.0  0.86481  0.40779  0.96380  1.0000 -0.1578669587
C   C145      1.0  0.85579  0.99921  0.92680  1.0000 -0.1677770772
C   C146      1.0  0.76735  0.01165  0.89190  1.0000 -0.1505662162
C   C147      1.0  0.79663  0.37477  0.95710  1.0000 0.0584551237
C   C148      1.0  0.78995  0.96765  0.90700  1.0000 0.0808066941
C   C149      1.0  0.75840  0.40900  0.96800  1.0000 0.0584551237
C   C150      1.0  0.74884  0.89596  0.90170  1.0000 0.0687795468
C   C151      1.0  0.69639  0.37701  0.99690  1.0000 -0.1408840855
C   C152      1.0  0.78388  0.47392  0.94790  1.0000 -0.1578669587
C   C153      1.0  0.77110  0.85570  0.91910  1.0000 -0.1505662162
C   C154      1.0  0.68940  0.87140  0.87660  1.0000 -0.1505662162
C   C155      1.0  0.66155  0.40985  0.00980  1.0000 -0.1975380489
C   C156      1.0  0.74963  0.50657  0.95890  1.0000 -0.1003768979
C   C157      1.0  0.73337  0.79003  0.91430  1.0000 -0.1003768979
C   C158      1.0  0.64720  0.80280  0.87580  1.0000 -0.1003768979
C   C159      1.0  0.68918  0.47542  0.99140  1.0000 -0.0379322649
C   C160      1.0  0.67063  0.76257  0.88900  1.0000 -0.0311480509
C   C161      1.0  0.65470  0.51290  0.00370  1.0000 0.583281084
C   C162      1.0  0.62722  0.69098  0.88320  1.0000 0.6459561429
C   C163      1.0  0.53717  0.41183  0.69960  1.0000 -0.0896363516
C   C164      1.0  0.57108  0.37732  0.69920  1.0000 -0.1505662162
C   C165      1.0  0.71292  0.37508  0.77630  1.0000 -0.1578669587
C   C166      1.0  0.74759  0.34081  0.77550  1.0000 -0.1098406729
C   C167      1.0  0.85247  0.24053  0.76160  1.0000 0.366926103
C   C168      1.0  0.92299  0.27781  0.77240  1.0000 0.0095102171
C   C169      1.0  0.96172  0.24768  0.78000  1.0000 -0.1166807273
C   C170      1.0  0.95312  0.34328  0.77950  1.0000 -0.1098406729
C   C171      1.0  0.02748  0.28352  0.79200  1.0000 -0.1505662162
C   C172      1.0  0.02127  0.38173  0.79190  1.0000 -0.1505662162
C   C173      1.0  0.05874  0.35026  0.79820  1.0000 0.0687795468
C   C174      1.0  0.13035  0.39065  0.80700  1.0000 0.0687795468
C   C175      1.0  0.15934  0.45326  0.83660  1.0000 -0.1677770772
C   C176      1.0  0.17290  0.37050  0.78480  1.0000 -0.1578669587
C   C177      1.0  0.22578  0.49182  0.84300  1.0000 -0.1003768979
C   C178      1.0  0.24122  0.41158  0.78960  1.0000 -0.0896363516
C   C179      1.0  0.26716  0.47224  0.81610  1.0000 -0.0379322649
C   C180      1.0  0.33838  0.51562  0.81960  1.0000 0.6165903053
C   C181      1.0  0.53359  0.53141  0.58700  1.0000 0.6301066122
C   C182      1.0  0.60421  0.56119  0.56970  1.0000 -0.0379322649
C   C183      1.0  0.62559  0.52441  0.53380  1.0000 -0.0841510603
C   C184      1.0  0.64711  0.62429  0.58680  1.0000 -0.0896363516
C   C185      1.0  0.69043  0.55317  0.51380  1.0000 -0.1408840855
C   C186      1.0  0.71113  0.65227  0.56730  1.0000 -0.1505662162
C   C187      1.0  0.73408  0.61652  0.53100  1.0000 0.0687795468
C   C188      1.0  0.80302  0.64738  0.50980  1.0000 0.0687795468
C   C189      1.0  0.83807  0.71233  0.49050  1.0000 -0.1578669587
C   C190      1.0  0.83550  0.61150  0.50880  1.0000 -0.1505662162
C   C191      1.0  0.90167  0.73993  0.47150  1.0000 -0.1098406729
C   C192      1.0  0.90187  0.64113  0.49150  1.0000 -0.1003768979
C   C193      1.0  0.93469  0.70391  0.47430  1.0000 0.0095102171
C   C194      1.0  0.00426  0.73494  0.45820  1.0000 0.3596935636
C   C195      1.0  0.09750  0.73070  0.44440  1.0000 0.3545856318
C   C196      1.0  0.09857  0.82483  0.43270  1.0000 0.3596935636
C   C197      1.0  0.13309  0.69271  0.44720  1.0000 0.0190213932
C   C198      1.0  0.13591  0.89589  0.42070  1.0000 0.0190213932
C   C199      1.0  0.20027  0.72533  0.43800  1.0000 -0.1098406729
C   C200      1.0  0.10047  0.62533  0.45880  1.0000 -0.1098406729
C   C201      1.0  0.10649  0.93271  0.42630  1.0000 -0.1003768979
C   C202      1.0  0.19806  0.92394  0.40020  1.0000 -0.1003768979
C   C203      1.0  0.23469  0.69131  0.44360  1.0000 -0.1505662162
C   C204      1.0  0.13519  0.59221  0.46380  1.0000 -0.1578669587
C   C205      1.0  0.14421  0.00079  0.42680  1.0000 -0.1677770772
C   C206      1.0  0.23265  0.98835  0.39190  1.0000 -0.1505662162
C   C207      1.0  0.20337  0.62523  0.45710  1.0000 0.0584551237
C   C208      1.0  0.21005  0.03235  0.40700  1.0000 0.0808066941
C   C209      1.0  0.24160  0.59100  0.46800  1.0000 0.0584551237
C   C210      1.0  0.25116  0.10404  0.40170  1.0000 0.0687795468
C   C211      1.0  0.30361  0.62299  0.49690  1.0000 -0.1408840855
C   C212      1.0  0.21612  0.52608  0.44790  1.0000 -0.1578669587
C   C213      1.0  0.22890  0.14430  0.41910  1.0000 -0.1505662162
C   C214      1.0  0.31060  0.12860  0.37660  1.0000 -0.1505662162
C   C215      1.0  0.33845  0.59015  0.50980  1.0000 -0.1975380489
C   C216      1.0  0.25037  0.49343  0.45890  1.0000 -0.1003768979
C   C217      1.0  0.26663  0.20997  0.41430  1.0000 -0.1003768979
C   C218      1.0  0.35280  0.19720  0.37580  1.0000 -0.1003768979
C   C219      1.0  0.31082  0.52458  0.49140  1.0000 -0.0379322649
C   C220      1.0  0.32937  0.23743  0.38900  1.0000 -0.0311480509
C   C221      1.0  0.34530  0.48710  0.50370  1.0000 0.583281084
C   C222      1.0  0.37278  0.30902  0.38320  1.0000 0.6459561429
C   C223      1.0  0.46283  0.58817  0.19960  1.0000 -0.0896363516
C   C224      1.0  0.42892  0.62268  0.19920  1.0000 -0.1505662162
C   C225      1.0  0.28708  0.62492  0.27630  1.0000 -0.1578669587
C   C226      1.0  0.25241  0.65919  0.27550  1.0000 -0.1003768979
C   C227      1.0  0.14753  0.75947  0.26160  1.0000 0.366926103
C   C228      1.0  0.07701  0.72219  0.27240  1.0000 0.0095102171
C   C229      1.0  0.03828  0.75232  0.28000  1.0000 -0.1166807273
C   C230      1.0  0.04688  0.65672  0.27950  1.0000 -0.1098406729
C   C231      1.0  0.97252  0.71648  0.29200  1.0000 -0.1505662162
C   C232      1.0  0.97873  0.61827  0.29190  1.0000 -0.1505662162
C   C233      1.0  0.94126  0.64974  0.29820  1.0000 0.0687795468
C   C234      1.0  0.86965  0.60935  0.30700  1.0000 0.0687795468
C   C235      1.0  0.84066  0.54674  0.33660  1.0000 -0.1677770772
C   C236      1.0  0.82710  0.62950  0.28480  1.0000 -0.1578669587
C   C237      1.0  0.77422  0.50818  0.34300  1.0000 -0.1003768979
C   C238      1.0  0.75878  0.58842  0.28960  1.0000 -0.0896363516
C   C239      1.0  0.73284  0.52776  0.31610  1.0000 -0.0379322649
C   C240      1.0  0.66162  0.48438  0.31960  1.0000 0.6165903053
C   C241      1.0  0.50777  0.49223  0.75000  1.0000 0.64027284
C   C242      1.0  0.54535  0.45465  0.75000  1.0000 -0.0182876801
C   C243      1.0  0.61445  0.38555  0.75000  1.0000 0.0687795468
C   C244      1.0  0.65127  0.34873  0.75000  1.0000 0.0687795468
C   C245      1.0  0.72037  0.27963  0.75000  1.0000 0.0190213932
C   C246      1.0  0.75771  0.24229  0.75000  1.0000 0.3796703062
C   C247      1.0  0.49223  0.50777  0.25000  1.0000 0.64027284
C   C248      1.0  0.45465  0.54535  0.25000  1.0000 -0.0182876801
C   C249      1.0  0.38555  0.61445  0.25000  1.0000 0.0687795468
C   C250      1.0  0.34873  0.65127  0.25000  1.0000 0.0687795468
C   C251      1.0  0.27963  0.72037  0.25000  1.0000 0.0190213932
C   C252      1.0  0.24229  0.75771  0.25000  1.0000 0.3796703062
N   N1        1.0  0.69784  0.03316  0.54170  1.0000 -0.416881582
N   N2        1.0  0.79960  0.03520  0.55340  1.0000 -0.416881582
N   N3        1.0  0.79327  0.13173  0.56880  1.0000 -0.3965208837
N   N4        1.0  0.72385  0.17855  0.73920  1.0000 -0.416881582
N   N5        1.0  0.30216  0.96684  0.04170  1.0000 -0.416881582
N   N6        1.0  0.20040  0.96480  0.05340  1.0000 -0.416881582
N   N7        1.0  0.20673  0.86827  0.06880  1.0000 -0.3965208837
N   N8        1.0  0.27615  0.82145  0.23920  1.0000 -0.416881582
N   N9        1.0  0.96684  0.30216  0.95830  1.0000 -0.416881582
N   N10       1.0  0.96480  0.20040  0.94660  1.0000 -0.416881582
N   N11       1.0  0.86827  0.20673  0.93120  1.0000 -0.3965208837
N   N12       1.0  0.82145  0.27615  0.76080  1.0000 -0.416881582
N   N13       1.0  0.03316  0.69784  0.45830  1.0000 -0.416881582
N   N14       1.0  0.03520  0.79960  0.44660  1.0000 -0.416881582
N   N15       1.0  0.13173  0.79327  0.43120  1.0000 -0.3965208837
N   N16       1.0  0.17855  0.72385  0.26080  1.0000 -0.416881582
N   N17       1.0  0.82356  0.17644  0.75000  1.0000 -0.4124818602
N   N18       1.0  0.17644  0.82356  0.25000  1.0000 -0.4124818602
O   O1        1.0  0.47325  0.49595  0.42988  1.0000 -0.7084108153
O   O2        1.0  0.34530  0.36050  0.58180  1.0000 -0.6368166664
O   O3        1.0  0.50527  0.38985  0.45264  1.0000 -0.7419053474
O   O4        1.0  0.43747  0.33133  0.53030  1.0000 -0.5915242293
O   O5        1.0  0.56581  0.51471  0.38290  1.0000 -0.6187105933
O   O6        1.0  0.32826  0.42014  0.65570  1.0000 -0.6634144941
O   O7        1.0  0.45758  0.47046  0.71455  1.0000 -0.6530347624
O   O8        1.0  0.48417  0.62405  0.72678  1.0000 -0.749853746
O   O9        1.0  0.44573  0.63747  0.63360  1.0000 -0.5915242293
O   O10       1.0  0.52675  0.50405  0.92988  1.0000 -0.7084108153
O   O11       1.0  0.65470  0.63950  0.08180  1.0000 -0.6368166664
O   O12       1.0  0.49473  0.61015  0.95264  1.0000 -0.7419053474
O   O13       1.0  0.56253  0.66867  0.03030  1.0000 -0.5915242293
O   O14       1.0  0.43419  0.48529  0.88290  1.0000 -0.6187105933
O   O15       1.0  0.67174  0.57986  0.15570  1.0000 -0.6634144941
O   O16       1.0  0.54242  0.52954  0.21455  1.0000 -0.6530347624
O   O17       1.0  0.51583  0.37595  0.22678  1.0000 -0.749853746
O   O18       1.0  0.55427  0.36253  0.13360  1.0000 -0.5915242293
O   O19       1.0  0.50405  0.52675  0.07012  1.0000 -0.7084108153
O   O20       1.0  0.63950  0.65470  0.91820  1.0000 -0.6368166664
O   O21       1.0  0.61015  0.49473  0.04736  1.0000 -0.7419053474
O   O22       1.0  0.66867  0.56253  0.96970  1.0000 -0.5915242293
O   O23       1.0  0.48529  0.43419  0.11710  1.0000 -0.6187105933
O   O24       1.0  0.57986  0.67174  0.84430  1.0000 -0.6634144941
O   O25       1.0  0.52954  0.54242  0.78545  1.0000 -0.6530347624
O   O26       1.0  0.37595  0.51583  0.77322  1.0000 -0.749853746
O   O27       1.0  0.36253  0.55427  0.86640  1.0000 -0.5915242293
O   O28       1.0  0.49595  0.47325  0.57012  1.0000 -0.7084108153
O   O29       1.0  0.36050  0.34530  0.41820  1.0000 -0.6368166664
O   O30       1.0  0.38985  0.50527  0.54736  1.0000 -0.7419053474
O   O31       1.0  0.33133  0.43747  0.46970  1.0000 -0.5915242293
O   O32       1.0  0.51471  0.56581  0.61710  1.0000 -0.6187105933
O   O33       1.0  0.42014  0.32826  0.34430  1.0000 -0.6634144941
O   O34       1.0  0.47046  0.45758  0.28545  1.0000 -0.6530347624
O   O35       1.0  0.62405  0.48417  0.27322  1.0000 -0.749853746
O   O36       1.0  0.63747  0.44573  0.36640  1.0000 -0.5915242293
