# DDEC6 charges by PACMAN v1.1 (https://github.com/mtap-research/PACMAN-charge/)
data_2019[Eu][ytw]3[ASR]1
_chemical_formula_sum              "Eu18 H132 C252 O92"
_cell_length_a       17.9026
_cell_length_b       23.1197
_cell_length_c       24.3223
_cell_angle_alpha    90
_cell_angle_beta     90
_cell_angle_gamma    90

_symmetry_space_group_name_H-M    "P 1"
_symmetry_Int_Tables_number       1

loop_
  _symmetry_equiv_pos_as_xyz
  'x, y, z'

loop_
  _atom_site_type_symbol
  _atom_site_label
  _atom_site_symmetry_multiplicity
  _atom_site_fract_x
  _atom_site_fract_y
  _atom_site_fract_z
  _atom_site_occupancy
  _atom_site_charge
Eu  Eu1       1.0  0.04330  0.58524  0.08039  1.0000 2.2031206186
Eu  Eu2       1.0  0.04330  0.41476  0.91961  1.0000 2.2031206186
Eu  Eu3       1.0  0.95670  0.08524  0.41961  1.0000 2.2031206186
Eu  Eu4       1.0  0.95670  0.91476  0.58039  1.0000 2.2031206186
Eu  Eu5       1.0  0.95670  0.91476  0.41961  1.0000 2.2031206186
Eu  Eu6       1.0  0.95670  0.08524  0.58039  1.0000 2.2031206186
Eu  Eu7       1.0  0.04330  0.41476  0.08039  1.0000 2.2031206186
Eu  Eu8       1.0  0.04330  0.58524  0.91961  1.0000 2.2031206186
Eu  Eu9       1.0  0.88179  0.50000  0.00000  1.0000 2.2490075226
Eu  Eu10      1.0  0.11821  0.00000  0.50000  1.0000 2.2490075226
Eu  Eu11      1.0  0.22304  0.65831  0.00000  1.0000 2.189880311
Eu  Eu12      1.0  0.22304  0.34169  0.00000  1.0000 2.189880311
Eu  Eu13      1.0  0.77696  0.15831  0.50000  1.0000 2.189880311
Eu  Eu14      1.0  0.77696  0.84169  0.50000  1.0000 2.189880311
Eu  Eu15      1.0  0.24341  0.50000  0.08047  1.0000 2.1157346363
Eu  Eu16      1.0  0.24341  0.50000  0.91953  1.0000 2.1157346363
Eu  Eu17      1.0  0.75659  0.00000  0.41953  1.0000 2.1157346363
Eu  Eu18      1.0  0.75659  0.00000  0.58047  1.0000 2.1157346363
H   H1        1.0  0.97930  0.91360  0.24000  1.0000 0.121654567
H   H2        1.0  0.86810  0.69170  0.16950  1.0000 0.121654567
H   H3        1.0  0.71440  0.60040  0.08930  1.0000 0.1285672504
H   H4        1.0  0.64940  0.72950  0.18770  1.0000 0.121654567
H   H5        1.0  0.70550  0.82760  0.19120  1.0000 0.121654567
H   H6        1.0  0.94640  0.84750  0.17160  1.0000 0.121654567
H   H7        1.0  0.87000  0.73570  0.25840  1.0000 0.121654567
H   H8        1.0  0.13010  0.91650  0.10020  1.0000 0.121654567
H   H9        1.0  0.56330  0.72860  0.09610  1.0000 0.121654567
H   H10       1.0  0.46490  0.55420  0.13140  1.0000 0.1285672504
H   H11       1.0  0.87300  0.80530  0.33070  1.0000 0.121654567
H   H12       1.0  0.72270  0.90230  0.25280  1.0000 0.1361280047
H   H13       1.0  0.98180  0.75650  0.13470  1.0000 0.1285672504
H   H14       1.0  0.14930  0.82960  0.05770  1.0000 0.1285672504
H   H15       1.0  0.43880  0.70840  0.07390  1.0000 0.1361280047
H   H16       1.0  0.59010  0.56830  0.14780  1.0000 0.121654567
H   H17       1.0  0.97930  0.08640  0.76000  1.0000 0.121654567
H   H18       1.0  0.86810  0.30830  0.83050  1.0000 0.1285672504
H   H19       1.0  0.71440  0.39960  0.91070  1.0000 0.1285672504
H   H20       1.0  0.64940  0.27050  0.81230  1.0000 0.121654567
H   H21       1.0  0.70550  0.17240  0.80880  1.0000 0.121654567
H   H22       1.0  0.94640  0.15250  0.82840  1.0000 0.121654567
H   H23       1.0  0.87000  0.26430  0.74160  1.0000 0.121654567
H   H24       1.0  0.13010  0.08350  0.89980  1.0000 0.121654567
H   H25       1.0  0.56330  0.27140  0.90390  1.0000 0.121654567
H   H26       1.0  0.46490  0.44580  0.86860  1.0000 0.1285672504
H   H27       1.0  0.87300  0.19470  0.66930  1.0000 0.121654567
H   H28       1.0  0.72270  0.09770  0.74720  1.0000 0.1361280047
H   H29       1.0  0.98180  0.24350  0.86530  1.0000 0.121654567
H   H30       1.0  0.14930  0.17040  0.94230  1.0000 0.1285672504
H   H31       1.0  0.43880  0.29160  0.92610  1.0000 0.1361280047
H   H32       1.0  0.59010  0.43170  0.85220  1.0000 0.121654567
H   H33       1.0  0.02070  0.41360  0.26000  1.0000 0.121654567
H   H34       1.0  0.13190  0.19170  0.33050  1.0000 0.1285672504
H   H35       1.0  0.28560  0.10040  0.41070  1.0000 0.1285672504
H   H36       1.0  0.35060  0.22950  0.31230  1.0000 0.121654567
H   H37       1.0  0.29450  0.32760  0.30880  1.0000 0.121654567
H   H38       1.0  0.05360  0.34750  0.32840  1.0000 0.121654567
H   H39       1.0  0.13000  0.23570  0.24160  1.0000 0.121654567
H   H40       1.0  0.86990  0.41650  0.39980  1.0000 0.121654567
H   H41       1.0  0.43670  0.22860  0.40390  1.0000 0.121654567
H   H42       1.0  0.53510  0.05420  0.36860  1.0000 0.1361280047
H   H43       1.0  0.12700  0.30530  0.16930  1.0000 0.121654567
H   H44       1.0  0.27730  0.40230  0.24720  1.0000 0.1361280047
H   H45       1.0  0.01820  0.25650  0.36530  1.0000 0.1285672504
H   H46       1.0  0.85070  0.32960  0.44230  1.0000 0.1285672504
H   H47       1.0  0.56120  0.20840  0.42610  1.0000 0.1361280047
H   H48       1.0  0.40990  0.06830  0.35220  1.0000 0.121654567
H   H49       1.0  0.02070  0.58640  0.74000  1.0000 0.121654567
H   H50       1.0  0.13190  0.80830  0.66950  1.0000 0.1285672504
H   H51       1.0  0.28560  0.89960  0.58930  1.0000 0.1285672504
H   H52       1.0  0.35060  0.77050  0.68770  1.0000 0.121654567
H   H53       1.0  0.29450  0.67240  0.69120  1.0000 0.121654567
H   H54       1.0  0.05360  0.65250  0.67160  1.0000 0.121654567
H   H55       1.0  0.13000  0.76430  0.75840  1.0000 0.121654567
H   H56       1.0  0.86990  0.58350  0.60020  1.0000 0.121654567
H   H57       1.0  0.43670  0.77140  0.59610  1.0000 0.121654567
H   H58       1.0  0.53510  0.94580  0.63140  1.0000 0.1285672504
H   H59       1.0  0.12700  0.69470  0.83070  1.0000 0.121654567
H   H60       1.0  0.27730  0.59770  0.75280  1.0000 0.1361280047
H   H61       1.0  0.01820  0.74350  0.63470  1.0000 0.1285672504
H   H62       1.0  0.85070  0.67040  0.55770  1.0000 0.1285672504
H   H63       1.0  0.56120  0.79160  0.57390  1.0000 0.1361280047
H   H64       1.0  0.40990  0.93170  0.64780  1.0000 0.121654567
H   H65       1.0  0.02070  0.58640  0.26000  1.0000 0.121654567
H   H66       1.0  0.13190  0.80830  0.33050  1.0000 0.1285672504
H   H67       1.0  0.28560  0.89960  0.41070  1.0000 0.1285672504
H   H68       1.0  0.35060  0.77050  0.31230  1.0000 0.121654567
H   H69       1.0  0.29450  0.67240  0.30880  1.0000 0.121654567
H   H70       1.0  0.05360  0.65250  0.32840  1.0000 0.121654567
H   H71       1.0  0.13000  0.76430  0.24160  1.0000 0.121654567
H   H72       1.0  0.86990  0.58350  0.39980  1.0000 0.121654567
H   H73       1.0  0.43670  0.77140  0.40390  1.0000 0.121654567
H   H74       1.0  0.53510  0.94580  0.36860  1.0000 0.1285672504
H   H75       1.0  0.12700  0.69470  0.16930  1.0000 0.121654567
H   H76       1.0  0.27730  0.59770  0.24720  1.0000 0.1361280047
H   H77       1.0  0.01820  0.74350  0.36530  1.0000 0.1285672504
H   H78       1.0  0.85070  0.67040  0.44230  1.0000 0.1285672504
H   H79       1.0  0.56120  0.79160  0.42610  1.0000 0.1361280047
H   H80       1.0  0.40990  0.93170  0.35220  1.0000 0.121654567
H   H81       1.0  0.02070  0.41360  0.74000  1.0000 0.121654567
H   H82       1.0  0.13190  0.19170  0.66950  1.0000 0.1285672504
H   H83       1.0  0.28560  0.10040  0.58930  1.0000 0.1285672504
H   H84       1.0  0.35060  0.22950  0.68770  1.0000 0.121654567
H   H85       1.0  0.29450  0.32760  0.69120  1.0000 0.121654567
H   H86       1.0  0.05360  0.34750  0.67160  1.0000 0.121654567
H   H87       1.0  0.13000  0.23570  0.75840  1.0000 0.121654567
H   H88       1.0  0.86990  0.41650  0.60020  1.0000 0.121654567
H   H89       1.0  0.43670  0.22860  0.59610  1.0000 0.121654567
H   H90       1.0  0.53510  0.05420  0.63140  1.0000 0.1361280047
H   H91       1.0  0.12700  0.30530  0.83070  1.0000 0.121654567
H   H92       1.0  0.27730  0.40230  0.75280  1.0000 0.1361280047
H   H93       1.0  0.01820  0.25650  0.63470  1.0000 0.1285672504
H   H94       1.0  0.85070  0.32960  0.55770  1.0000 0.1285672504
H   H95       1.0  0.56120  0.20840  0.57390  1.0000 0.1361280047
H   H96       1.0  0.40990  0.06830  0.64780  1.0000 0.121654567
H   H97       1.0  0.97930  0.08640  0.24000  1.0000 0.121654567
H   H98       1.0  0.86810  0.30830  0.16950  1.0000 0.121654567
H   H99       1.0  0.71440  0.39960  0.08930  1.0000 0.1285672504
H   H100      1.0  0.64940  0.27050  0.18770  1.0000 0.121654567
H   H101      1.0  0.70550  0.17240  0.19120  1.0000 0.121654567
H   H102      1.0  0.94640  0.15250  0.17160  1.0000 0.121654567
H   H103      1.0  0.87000  0.26430  0.25840  1.0000 0.121654567
H   H104      1.0  0.13010  0.08350  0.10020  1.0000 0.121654567
H   H105      1.0  0.56330  0.27140  0.09610  1.0000 0.121654567
H   H106      1.0  0.46490  0.44580  0.13140  1.0000 0.1361280047
H   H107      1.0  0.87300  0.19470  0.33070  1.0000 0.121654567
H   H108      1.0  0.72270  0.09770  0.25280  1.0000 0.1361280047
H   H109      1.0  0.98180  0.24350  0.13470  1.0000 0.121654567
H   H110      1.0  0.14930  0.17040  0.05770  1.0000 0.1285672504
H   H111      1.0  0.43880  0.29160  0.07390  1.0000 0.1361280047
H   H112      1.0  0.59010  0.43170  0.14780  1.0000 0.121654567
H   H113      1.0  0.97930  0.91360  0.76000  1.0000 0.121654567
H   H114      1.0  0.86810  0.69170  0.83050  1.0000 0.1285672504
H   H115      1.0  0.71440  0.60040  0.91070  1.0000 0.1285672504
H   H116      1.0  0.64940  0.72950  0.81230  1.0000 0.121654567
H   H117      1.0  0.70550  0.82760  0.80880  1.0000 0.121654567
H   H118      1.0  0.94640  0.84750  0.82840  1.0000 0.121654567
H   H119      1.0  0.87000  0.73570  0.74160  1.0000 0.121654567
H   H120      1.0  0.13010  0.91650  0.89980  1.0000 0.121654567
H   H121      1.0  0.56330  0.72860  0.90390  1.0000 0.121654567
H   H122      1.0  0.46490  0.55420  0.86860  1.0000 0.1285672504
H   H123      1.0  0.87300  0.80530  0.66930  1.0000 0.121654567
H   H124      1.0  0.72270  0.90230  0.74720  1.0000 0.1361280047
H   H125      1.0  0.98180  0.75650  0.86530  1.0000 0.1285672504
H   H126      1.0  0.14930  0.82960  0.94230  1.0000 0.1285672504
H   H127      1.0  0.43880  0.70840  0.92610  1.0000 0.1361280047
H   H128      1.0  0.59010  0.56830  0.85220  1.0000 0.121654567
H   H129      1.0  0.06140  0.00000  0.10870  1.0000 0.121654567
H   H130      1.0  0.06140  0.00000  0.89130  1.0000 0.121654567
H   H131      1.0  0.93860  0.50000  0.39130  1.0000 0.121654567
H   H132      1.0  0.93860  0.50000  0.60870  1.0000 0.121654567
C   C1        1.0  0.80060  0.64040  0.12610  1.0000 -0.0229928195
C   C2        1.0  0.66880  0.66230  0.13490  1.0000 0.0640326088
C   C3        1.0  0.85960  0.60490  0.09980  1.0000 0.6391128669
C   C4        1.0  0.99040  0.94830  0.22240  1.0000 -0.1247788971
C   C5        1.0  0.81830  0.68490  0.16080  1.0000 -0.1502582744
C   C6        1.0  0.44200  0.62720  0.09620  1.0000 -0.0094471569
C   C7        1.0  0.72590  0.63030  0.11340  1.0000 -0.1502582744
C   C8        1.0  0.59060  0.65080  0.12390  1.0000 0.0640326088
C   C9        1.0  0.36190  0.61320  0.08190  1.0000 0.6391128669
C   C10       1.0  0.68730  0.70780  0.17150  1.0000 -0.1858952796
C   C11       1.0  0.76280  0.72080  0.18390  1.0000 0.0702848042
C   C12       1.0  0.77880  0.76950  0.22380  1.0000 0.0803203364
C   C13       1.0  0.03460  0.89070  0.14020  1.0000 0.0803203364
C   C14       1.0  0.73880  0.82270  0.22020  1.0000 -0.1588320803
C   C15       1.0  0.98950  0.84380  0.15060  1.0000 -0.1588320803
C   C16       1.0  0.83510  0.76540  0.26030  1.0000 -0.1419897857
C   C17       1.0  0.09840  0.88530  0.10660  1.0000 -0.1502582744
C   C18       1.0  0.54470  0.69150  0.10220  1.0000 -0.1502582744
C   C19       1.0  0.48600  0.58930  0.12120  1.0000 -0.1100931741
C   C20       1.0  0.83860  0.80930  0.30230  1.0000 -0.0996831193
C   C21       1.0  0.74690  0.86700  0.25710  1.0000 -0.0896692568
C   C22       1.0  0.80260  0.89870  0.34950  1.0000 0.5968315224
C   C23       1.0  0.07460  0.78340  0.09610  1.0000 -0.0460237968
C   C24       1.0  0.01110  0.78890  0.12790  1.0000 -0.0838610367
C   C25       1.0  0.11150  0.83210  0.08390  1.0000 -0.0896692568
C   C26       1.0  0.09560  0.72540  0.07460  1.0000 0.6474034707
C   C27       1.0  0.79370  0.85570  0.30170  1.0000 0.0123043789
C   C28       1.0  0.02150  0.94710  0.16770  1.0000 0.0702848042
C   C29       1.0  0.46900  0.67940  0.08840  1.0000 -0.0996831193
C   C30       1.0  0.56100  0.59800  0.13340  1.0000 -0.1419897857
C   C31       1.0  0.80060  0.35960  0.87390  1.0000 -0.0229928195
C   C32       1.0  0.66880  0.33770  0.86510  1.0000 0.0640326088
C   C33       1.0  0.85960  0.39510  0.90020  1.0000 0.6391128669
C   C34       1.0  0.99040  0.05170  0.77760  1.0000 -0.1256513898
C   C35       1.0  0.81830  0.31510  0.83920  1.0000 -0.1502582744
C   C36       1.0  0.44200  0.37280  0.90380  1.0000 -0.0094471569
C   C37       1.0  0.72590  0.36970  0.88660  1.0000 -0.1502582744
C   C38       1.0  0.59060  0.34920  0.87610  1.0000 0.0702848042
C   C39       1.0  0.36190  0.38680  0.91810  1.0000 0.6391128669
C   C40       1.0  0.68730  0.29220  0.82850  1.0000 -0.1858952796
C   C41       1.0  0.76280  0.27920  0.81610  1.0000 0.0702848042
C   C42       1.0  0.77880  0.23050  0.77620  1.0000 0.0803203364
C   C43       1.0  0.03460  0.10930  0.85980  1.0000 0.0803203364
C   C44       1.0  0.73880  0.17730  0.77980  1.0000 -0.1588320803
C   C45       1.0  0.98950  0.15620  0.84940  1.0000 -0.1588320803
C   C46       1.0  0.83510  0.23460  0.73970  1.0000 -0.1419897857
C   C47       1.0  0.09840  0.11470  0.89340  1.0000 -0.1502582744
C   C48       1.0  0.54470  0.30850  0.89780  1.0000 -0.1502582744
C   C49       1.0  0.48600  0.41070  0.87880  1.0000 -0.1100931741
C   C50       1.0  0.83860  0.19070  0.69770  1.0000 -0.0996831193
C   C51       1.0  0.74690  0.13300  0.74290  1.0000 -0.0896692568
C   C52       1.0  0.80260  0.10130  0.65050  1.0000 0.5968315224
C   C53       1.0  0.07460  0.21660  0.90390  1.0000 -0.0460237968
C   C54       1.0  0.01110  0.21110  0.87210  1.0000 -0.0838610367
C   C55       1.0  0.11150  0.16790  0.91610  1.0000 -0.0896692568
C   C56       1.0  0.09560  0.27460  0.92540  1.0000 0.6474034707
C   C57       1.0  0.79370  0.14430  0.69830  1.0000 0.0123043789
C   C58       1.0  0.02150  0.05290  0.83230  1.0000 0.0702848042
C   C59       1.0  0.46900  0.32060  0.91160  1.0000 -0.0996831193
C   C60       1.0  0.56100  0.40200  0.86660  1.0000 -0.1419897857
C   C61       1.0  0.19940  0.14040  0.37390  1.0000 -0.0229928195
C   C62       1.0  0.33120  0.16230  0.36510  1.0000 0.0640326088
C   C63       1.0  0.14040  0.10490  0.40020  1.0000 0.6391128669
C   C64       1.0  0.00960  0.44830  0.27760  1.0000 -0.1256513898
C   C65       1.0  0.18170  0.18490  0.33920  1.0000 -0.1502582744
C   C66       1.0  0.55800  0.12720  0.40380  1.0000 -0.0094471569
C   C67       1.0  0.27410  0.13030  0.38660  1.0000 -0.1502582744
C   C68       1.0  0.40940  0.15080  0.37610  1.0000 0.0640326088
C   C69       1.0  0.63810  0.11320  0.41810  1.0000 0.6391128669
C   C70       1.0  0.31270  0.20780  0.32850  1.0000 -0.1858952796
C   C71       1.0  0.23720  0.22080  0.31610  1.0000 0.0702848042
C   C72       1.0  0.22120  0.26950  0.27620  1.0000 0.0803203364
C   C73       1.0  0.96540  0.39070  0.35980  1.0000 0.0803203364
C   C74       1.0  0.26120  0.32270  0.27980  1.0000 -0.1588320803
C   C75       1.0  0.01050  0.34380  0.34940  1.0000 -0.1588320803
C   C76       1.0  0.16490  0.26540  0.23970  1.0000 -0.1419897857
C   C77       1.0  0.90160  0.38530  0.39340  1.0000 -0.1502582744
C   C78       1.0  0.45530  0.19150  0.39780  1.0000 -0.1502582744
C   C79       1.0  0.51400  0.08930  0.37880  1.0000 -0.1100931741
C   C80       1.0  0.16140  0.30930  0.19770  1.0000 -0.0996831193
C   C81       1.0  0.25310  0.36700  0.24290  1.0000 -0.0896692568
C   C82       1.0  0.19740  0.39870  0.15050  1.0000 0.5968315224
C   C83       1.0  0.92540  0.28340  0.40390  1.0000 -0.0460237968
C   C84       1.0  0.98890  0.28890  0.37210  1.0000 -0.0838610367
C   C85       1.0  0.88850  0.33210  0.41610  1.0000 -0.0896692568
C   C86       1.0  0.90440  0.22540  0.42540  1.0000 0.6474034707
C   C87       1.0  0.20630  0.35570  0.19830  1.0000 0.0123043789
C   C88       1.0  0.97850  0.44710  0.33230  1.0000 0.0702848042
C   C89       1.0  0.53100  0.17940  0.41160  1.0000 -0.0996831193
C   C90       1.0  0.43900  0.09800  0.36660  1.0000 -0.1419897857
C   C91       1.0  0.19940  0.85960  0.62610  1.0000 -0.0229928195
C   C92       1.0  0.33120  0.83770  0.63490  1.0000 0.0640326088
C   C93       1.0  0.14040  0.89510  0.59980  1.0000 0.6391128669
C   C94       1.0  0.00960  0.55170  0.72240  1.0000 -0.1247788971
C   C95       1.0  0.18170  0.81510  0.66080  1.0000 -0.1588320803
C   C96       1.0  0.55800  0.87280  0.59620  1.0000 -0.0094471569
C   C97       1.0  0.27410  0.86970  0.61340  1.0000 -0.1502582744
C   C98       1.0  0.40940  0.84920  0.62390  1.0000 0.0702848042
C   C99       1.0  0.63810  0.88680  0.58190  1.0000 0.6391128669
C   C100      1.0  0.31270  0.79220  0.67150  1.0000 -0.1858952796
C   C101      1.0  0.23720  0.77920  0.68390  1.0000 0.0702848042
C   C102      1.0  0.22120  0.73050  0.72380  1.0000 0.0803203364
C   C103      1.0  0.96540  0.60930  0.64020  1.0000 0.0803203364
C   C104      1.0  0.26120  0.67730  0.72020  1.0000 -0.1588320803
C   C105      1.0  0.01050  0.65620  0.65060  1.0000 -0.1588320803
C   C106      1.0  0.16490  0.73460  0.76030  1.0000 -0.1419897857
C   C107      1.0  0.90160  0.61470  0.60660  1.0000 -0.1502582744
C   C108      1.0  0.45530  0.80850  0.60220  1.0000 -0.1502582744
C   C109      1.0  0.51400  0.91070  0.62120  1.0000 -0.1100931741
C   C110      1.0  0.16140  0.69070  0.80230  1.0000 -0.0996831193
C   C111      1.0  0.25310  0.63300  0.75710  1.0000 -0.0996831193
C   C112      1.0  0.19740  0.60130  0.84950  1.0000 0.5968315224
C   C113      1.0  0.92540  0.71660  0.59610  1.0000 -0.0460237968
C   C114      1.0  0.98890  0.71110  0.62790  1.0000 -0.0838610367
C   C115      1.0  0.88850  0.66790  0.58390  1.0000 -0.0896692568
C   C116      1.0  0.90440  0.77460  0.57460  1.0000 0.6474034707
C   C117      1.0  0.20630  0.64430  0.80170  1.0000 0.0123043789
C   C118      1.0  0.97850  0.55290  0.66770  1.0000 0.0702848042
C   C119      1.0  0.53100  0.82060  0.58840  1.0000 -0.0996831193
C   C120      1.0  0.43900  0.90200  0.63340  1.0000 -0.1419897857
C   C121      1.0  0.19940  0.85960  0.37390  1.0000 -0.0229928195
C   C122      1.0  0.33120  0.83770  0.36510  1.0000 0.0640326088
C   C123      1.0  0.14040  0.89510  0.40020  1.0000 0.6391128669
C   C124      1.0  0.00960  0.55170  0.27760  1.0000 -0.1247788971
C   C125      1.0  0.18170  0.81510  0.33920  1.0000 -0.1588320803
C   C126      1.0  0.55800  0.87280  0.40380  1.0000 -0.0094471569
C   C127      1.0  0.27410  0.86970  0.38660  1.0000 -0.1502582744
C   C128      1.0  0.40940  0.84920  0.37610  1.0000 0.0640326088
C   C129      1.0  0.63810  0.88680  0.41810  1.0000 0.6391128669
C   C130      1.0  0.31270  0.79220  0.32850  1.0000 -0.1858952796
C   C131      1.0  0.23720  0.77920  0.31610  1.0000 0.0702848042
C   C132      1.0  0.22120  0.73050  0.27620  1.0000 0.0803203364
C   C133      1.0  0.96540  0.60930  0.35980  1.0000 0.0803203364
C   C134      1.0  0.26120  0.67730  0.27980  1.0000 -0.1588320803
C   C135      1.0  0.01050  0.65620  0.34940  1.0000 -0.1588320803
C   C136      1.0  0.16490  0.73460  0.23970  1.0000 -0.1419897857
C   C137      1.0  0.90160  0.61470  0.39340  1.0000 -0.1502582744
C   C138      1.0  0.45530  0.80850  0.39780  1.0000 -0.1502582744
C   C139      1.0  0.51400  0.91070  0.37880  1.0000 -0.1100931741
C   C140      1.0  0.16140  0.69070  0.19770  1.0000 -0.0996831193
C   C141      1.0  0.25310  0.63300  0.24290  1.0000 -0.0996831193
C   C142      1.0  0.19740  0.60130  0.15050  1.0000 0.5968315224
C   C143      1.0  0.92540  0.71660  0.40390  1.0000 -0.0460237968
C   C144      1.0  0.98890  0.71110  0.37210  1.0000 -0.0838610367
C   C145      1.0  0.88850  0.66790  0.41610  1.0000 -0.0896692568
C   C146      1.0  0.90440  0.77460  0.42540  1.0000 0.6474034707
C   C147      1.0  0.20630  0.64430  0.19830  1.0000 0.0123043789
C   C148      1.0  0.97850  0.55290  0.33230  1.0000 0.0702848042
C   C149      1.0  0.53100  0.82060  0.41160  1.0000 -0.0996831193
C   C150      1.0  0.43900  0.90200  0.36660  1.0000 -0.1419897857
C   C151      1.0  0.19940  0.14040  0.62610  1.0000 -0.0229928195
C   C152      1.0  0.33120  0.16230  0.63490  1.0000 0.0640326088
C   C153      1.0  0.14040  0.10490  0.59980  1.0000 0.6391128669
C   C154      1.0  0.00960  0.44830  0.72240  1.0000 -0.1256513898
C   C155      1.0  0.18170  0.18490  0.66080  1.0000 -0.1502582744
C   C156      1.0  0.55800  0.12720  0.59620  1.0000 -0.0094471569
C   C157      1.0  0.27410  0.13030  0.61340  1.0000 -0.1502582744
C   C158      1.0  0.40940  0.15080  0.62390  1.0000 0.0702848042
C   C159      1.0  0.63810  0.11320  0.58190  1.0000 0.6391128669
C   C160      1.0  0.31270  0.20780  0.67150  1.0000 -0.1858952796
C   C161      1.0  0.23720  0.22080  0.68390  1.0000 0.0702848042
C   C162      1.0  0.22120  0.26950  0.72380  1.0000 0.0803203364
C   C163      1.0  0.96540  0.39070  0.64020  1.0000 0.0803203364
C   C164      1.0  0.26120  0.32270  0.72020  1.0000 -0.1588320803
C   C165      1.0  0.01050  0.34380  0.65060  1.0000 -0.1588320803
C   C166      1.0  0.16490  0.26540  0.76030  1.0000 -0.1419897857
C   C167      1.0  0.90160  0.38530  0.60660  1.0000 -0.1502582744
C   C168      1.0  0.45530  0.19150  0.60220  1.0000 -0.1502582744
C   C169      1.0  0.51400  0.08930  0.62120  1.0000 -0.1100931741
C   C170      1.0  0.16140  0.30930  0.80230  1.0000 -0.0996831193
C   C171      1.0  0.25310  0.36700  0.75710  1.0000 -0.0896692568
C   C172      1.0  0.19740  0.39870  0.84950  1.0000 0.5968315224
C   C173      1.0  0.92540  0.28340  0.59610  1.0000 -0.0460237968
C   C174      1.0  0.98890  0.28890  0.62790  1.0000 -0.0838610367
C   C175      1.0  0.88850  0.33210  0.58390  1.0000 -0.0896692568
C   C176      1.0  0.90440  0.22540  0.57460  1.0000 0.6474034707
C   C177      1.0  0.20630  0.35570  0.80170  1.0000 0.0123043789
C   C178      1.0  0.97850  0.44710  0.66770  1.0000 0.0702848042
C   C179      1.0  0.53100  0.17940  0.58840  1.0000 -0.0996831193
C   C180      1.0  0.43900  0.09800  0.63340  1.0000 -0.1419897857
C   C181      1.0  0.80060  0.35960  0.12610  1.0000 -0.0229928195
C   C182      1.0  0.66880  0.33770  0.13490  1.0000 0.0640326088
C   C183      1.0  0.85960  0.39510  0.09980  1.0000 0.6391128669
C   C184      1.0  0.99040  0.05170  0.22240  1.0000 -0.1256513898
C   C185      1.0  0.81830  0.31510  0.16080  1.0000 -0.1502582744
C   C186      1.0  0.44200  0.37280  0.09620  1.0000 -0.0094471569
C   C187      1.0  0.72590  0.36970  0.11340  1.0000 -0.1502582744
C   C188      1.0  0.59060  0.34920  0.12390  1.0000 0.0640326088
C   C189      1.0  0.36190  0.38680  0.08190  1.0000 0.6391128669
C   C190      1.0  0.68730  0.29220  0.17150  1.0000 -0.1858952796
C   C191      1.0  0.76280  0.27920  0.18390  1.0000 0.0702848042
C   C192      1.0  0.77880  0.23050  0.22380  1.0000 0.0803203364
C   C193      1.0  0.03460  0.10930  0.14020  1.0000 0.0803203364
C   C194      1.0  0.73880  0.17730  0.22020  1.0000 -0.1588320803
C   C195      1.0  0.98950  0.15620  0.15060  1.0000 -0.1588320803
C   C196      1.0  0.83510  0.23460  0.26030  1.0000 -0.1419897857
C   C197      1.0  0.09840  0.11470  0.10660  1.0000 -0.1502582744
C   C198      1.0  0.54470  0.30850  0.10220  1.0000 -0.1502582744
C   C199      1.0  0.48600  0.41070  0.12120  1.0000 -0.1100931741
C   C200      1.0  0.83860  0.19070  0.30230  1.0000 -0.0996831193
C   C201      1.0  0.74690  0.13300  0.25710  1.0000 -0.0896692568
C   C202      1.0  0.80260  0.10130  0.34950  1.0000 0.5968315224
C   C203      1.0  0.07460  0.21660  0.09610  1.0000 -0.0460237968
C   C204      1.0  0.01110  0.21110  0.12790  1.0000 -0.0838610367
C   C205      1.0  0.11150  0.16790  0.08390  1.0000 -0.0896692568
C   C206      1.0  0.09560  0.27460  0.07460  1.0000 0.6474034707
C   C207      1.0  0.79370  0.14430  0.30170  1.0000 0.0123043789
C   C208      1.0  0.02150  0.05290  0.16770  1.0000 0.0702848042
C   C209      1.0  0.46900  0.32060  0.08840  1.0000 -0.0996831193
C   C210      1.0  0.56100  0.40200  0.13340  1.0000 -0.1419897857
C   C211      1.0  0.80060  0.64040  0.87390  1.0000 -0.0229928195
C   C212      1.0  0.66880  0.66230  0.86510  1.0000 0.0640326088
C   C213      1.0  0.85960  0.60490  0.90020  1.0000 0.6391128669
C   C214      1.0  0.99040  0.94830  0.77760  1.0000 -0.1247788971
C   C215      1.0  0.81830  0.68490  0.83920  1.0000 -0.1502582744
C   C216      1.0  0.44200  0.62720  0.90380  1.0000 -0.0094471569
C   C217      1.0  0.72590  0.63030  0.88660  1.0000 -0.1502582744
C   C218      1.0  0.59060  0.65080  0.87610  1.0000 0.0702848042
C   C219      1.0  0.36190  0.61320  0.91810  1.0000 0.6391128669
C   C220      1.0  0.68730  0.70780  0.82850  1.0000 -0.1858952796
C   C221      1.0  0.76280  0.72080  0.81610  1.0000 0.0702848042
C   C222      1.0  0.77880  0.76950  0.77620  1.0000 0.0803203364
C   C223      1.0  0.03460  0.89070  0.85980  1.0000 0.0803203364
C   C224      1.0  0.73880  0.82270  0.77980  1.0000 -0.1588320803
C   C225      1.0  0.98950  0.84380  0.84940  1.0000 -0.1588320803
C   C226      1.0  0.83510  0.76540  0.73970  1.0000 -0.1419897857
C   C227      1.0  0.09840  0.88530  0.89340  1.0000 -0.1502582744
C   C228      1.0  0.54470  0.69150  0.89780  1.0000 -0.1502582744
C   C229      1.0  0.48600  0.58930  0.87880  1.0000 -0.1100931741
C   C230      1.0  0.83860  0.80930  0.69770  1.0000 -0.0996831193
C   C231      1.0  0.74690  0.86700  0.74290  1.0000 -0.0896692568
C   C232      1.0  0.80260  0.89870  0.65050  1.0000 0.5968315224
C   C233      1.0  0.07460  0.78340  0.90390  1.0000 -0.0460237968
C   C234      1.0  0.01110  0.78890  0.87210  1.0000 -0.0838610367
C   C235      1.0  0.11150  0.83210  0.91610  1.0000 -0.0896692568
C   C236      1.0  0.09560  0.72540  0.92540  1.0000 0.6474034707
C   C237      1.0  0.79370  0.85570  0.69830  1.0000 0.0123043789
C   C238      1.0  0.02150  0.94710  0.83230  1.0000 0.0702848042
C   C239      1.0  0.46900  0.67940  0.91160  1.0000 -0.0996831193
C   C240      1.0  0.56100  0.59800  0.86660  1.0000 -0.1419897857
C   C241      1.0  0.95660  0.00000  0.30530  1.0000 0.6337901349
C   C242      1.0  0.97680  0.00000  0.24910  1.0000 -0.0706442134
C   C243      1.0  0.03830  0.00000  0.14290  1.0000 -0.1987365191
C   C244      1.0  0.95660  0.00000  0.69470  1.0000 0.6337901349
C   C245      1.0  0.97680  0.00000  0.75090  1.0000 -0.0706442134
C   C246      1.0  0.03830  0.00000  0.85710  1.0000 -0.1987365191
C   C247      1.0  0.04340  0.50000  0.19470  1.0000 0.6337901349
C   C248      1.0  0.02320  0.50000  0.25090  1.0000 -0.0706442134
C   C249      1.0  0.96170  0.50000  0.35710  1.0000 -0.1987365191
C   C250      1.0  0.04340  0.50000  0.80530  1.0000 0.6337901349
C   C251      1.0  0.02320  0.50000  0.74910  1.0000 -0.0706442134
C   C252      1.0  0.96170  0.50000  0.64290  1.0000 -0.1987365191
O   O1        1.0  0.83920  0.56830  0.06480  1.0000 -0.6088946169
O   O2        1.0  0.92610  0.61510  0.11380  1.0000 -0.5972545748
O   O3        1.0  0.16120  0.71860  0.05600  1.0000 -0.6718523656
O   O4        1.0  0.94800  0.95070  0.33040  1.0000 -0.6495672022
O   O5        1.0  0.32360  0.64970  0.06050  1.0000 -0.5901861755
O   O6        1.0  0.83100  0.89780  0.39470  1.0000 -0.6088946169
O   O7        1.0  0.34370  0.56200  0.09030  1.0000 -0.5901861755
O   O8        1.0  0.76910  0.94620  0.33830  1.0000 -0.5354272132
O   O9        1.0  0.04780  0.68450  0.08360  1.0000 -0.6423176755
O   O10       1.0  0.83920  0.43170  0.93520  1.0000 -0.6088946169
O   O11       1.0  0.92610  0.38490  0.88620  1.0000 -0.5972545748
O   O12       1.0  0.16120  0.28140  0.94400  1.0000 -0.6718523656
O   O13       1.0  0.94800  0.04930  0.66960  1.0000 -0.6495672022
O   O14       1.0  0.32360  0.35030  0.93950  1.0000 -0.5901861755
O   O15       1.0  0.83100  0.10220  0.60530  1.0000 -0.6088946169
O   O16       1.0  0.34370  0.43800  0.90970  1.0000 -0.5901861755
O   O17       1.0  0.76910  0.05380  0.66170  1.0000 -0.5354272132
O   O18       1.0  0.04780  0.31550  0.91640  1.0000 -0.6423176755
O   O19       1.0  0.16080  0.06830  0.43520  1.0000 -0.6088946169
O   O20       1.0  0.07390  0.11510  0.38620  1.0000 -0.5972545748
O   O21       1.0  0.83880  0.21860  0.44400  1.0000 -0.6718523656
O   O22       1.0  0.05200  0.45070  0.16960  1.0000 -0.6495672022
O   O23       1.0  0.67640  0.14970  0.43950  1.0000 -0.5901861755
O   O24       1.0  0.16900  0.39780  0.10530  1.0000 -0.6088946169
O   O25       1.0  0.65630  0.06200  0.40970  1.0000 -0.5901861755
O   O26       1.0  0.23090  0.44620  0.16170  1.0000 -0.5346569424
O   O27       1.0  0.95220  0.18450  0.41640  1.0000 -0.6423176755
O   O28       1.0  0.16080  0.93170  0.56480  1.0000 -0.6088946169
O   O29       1.0  0.07390  0.88490  0.61380  1.0000 -0.5972545748
O   O30       1.0  0.83880  0.78140  0.55600  1.0000 -0.6718523656
O   O31       1.0  0.05200  0.54930  0.83040  1.0000 -0.6495672022
O   O32       1.0  0.67640  0.85030  0.56050  1.0000 -0.5901861755
O   O33       1.0  0.16900  0.60220  0.89470  1.0000 -0.6088946169
O   O34       1.0  0.65630  0.93800  0.59030  1.0000 -0.5901861755
O   O35       1.0  0.23090  0.55380  0.83830  1.0000 -0.5346569424
O   O36       1.0  0.95220  0.81550  0.58360  1.0000 -0.6423176755
O   O37       1.0  0.16080  0.93170  0.43520  1.0000 -0.6088946169
O   O38       1.0  0.07390  0.88490  0.38620  1.0000 -0.5972545748
O   O39       1.0  0.83880  0.78140  0.44400  1.0000 -0.6718523656
O   O40       1.0  0.05200  0.54930  0.16960  1.0000 -0.6495672022
O   O41       1.0  0.67640  0.85030  0.43950  1.0000 -0.5901861755
O   O42       1.0  0.16900  0.60220  0.10530  1.0000 -0.6088946169
O   O43       1.0  0.65630  0.93800  0.40970  1.0000 -0.5901861755
O   O44       1.0  0.23090  0.55380  0.16170  1.0000 -0.5346569424
O   O45       1.0  0.95220  0.81550  0.41640  1.0000 -0.6423176755
O   O46       1.0  0.16080  0.06830  0.56480  1.0000 -0.6088946169
O   O47       1.0  0.07390  0.11510  0.61380  1.0000 -0.5972545748
O   O48       1.0  0.83880  0.21860  0.55600  1.0000 -0.6718523656
O   O49       1.0  0.05200  0.45070  0.83040  1.0000 -0.6495672022
O   O50       1.0  0.67640  0.14970  0.56050  1.0000 -0.5901861755
O   O51       1.0  0.16900  0.39780  0.89470  1.0000 -0.6088946169
O   O52       1.0  0.65630  0.06200  0.59030  1.0000 -0.5901861755
O   O53       1.0  0.23090  0.44620  0.83830  1.0000 -0.5346569424
O   O54       1.0  0.95220  0.18450  0.58360  1.0000 -0.6423176755
O   O55       1.0  0.83920  0.43170  0.06480  1.0000 -0.6088946169
O   O56       1.0  0.92610  0.38490  0.11380  1.0000 -0.5972545748
O   O57       1.0  0.16120  0.28140  0.05600  1.0000 -0.6718523656
O   O58       1.0  0.94800  0.04930  0.33040  1.0000 -0.6495672022
O   O59       1.0  0.32360  0.35030  0.06050  1.0000 -0.5901861755
O   O60       1.0  0.83100  0.10220  0.39470  1.0000 -0.6088946169
O   O61       1.0  0.34370  0.43800  0.09030  1.0000 -0.5901861755
O   O62       1.0  0.76910  0.05380  0.33830  1.0000 -0.5354272132
O   O63       1.0  0.04780  0.31550  0.08360  1.0000 -0.6423176755
O   O64       1.0  0.83920  0.56830  0.93520  1.0000 -0.6088946169
O   O65       1.0  0.92610  0.61510  0.88620  1.0000 -0.5972545748
O   O66       1.0  0.16120  0.71860  0.94400  1.0000 -0.6718523656
O   O67       1.0  0.94800  0.95070  0.66960  1.0000 -0.6495672022
O   O68       1.0  0.32360  0.64970  0.93950  1.0000 -0.5901861755
O   O69       1.0  0.83100  0.89780  0.60530  1.0000 -0.6088946169
O   O70       1.0  0.34370  0.56200  0.90970  1.0000 -0.5901861755
O   O71       1.0  0.76910  0.94620  0.66170  1.0000 -0.5354272132
O   O72       1.0  0.04780  0.68450  0.91640  1.0000 -0.6423176755
O   O73       1.0  0.97440  0.58070  0.00000  1.0000 -0.958341599
O   O74       1.0  0.24260  0.55670  0.00000  1.0000 -1.0394645339
O   O75       1.0  0.11040  0.61070  0.00000  1.0000 -1.0394645339
O   O76       1.0  0.97440  0.41930  0.00000  1.0000 -0.958341599
O   O77       1.0  0.24260  0.44330  0.00000  1.0000 -1.0281792288
O   O78       1.0  0.11040  0.38930  0.00000  1.0000 -1.0394645339
O   O79       1.0  0.02560  0.08070  0.50000  1.0000 -0.958341599
O   O80       1.0  0.75740  0.05670  0.50000  1.0000 -1.0281792288
O   O81       1.0  0.88960  0.11070  0.50000  1.0000 -1.0394645339
O   O82       1.0  0.02560  0.91930  0.50000  1.0000 -0.9659142499
O   O83       1.0  0.75740  0.94330  0.50000  1.0000 -1.0281792288
O   O84       1.0  0.88960  0.88930  0.50000  1.0000 -1.0500707035
O   O85       1.0  0.11660  0.50000  0.06280  1.0000 -0.89852804
O   O86       1.0  0.97270  0.50000  0.07370  1.0000 -1.016097725
O   O87       1.0  0.11660  0.50000  0.93720  1.0000 -0.89852804
O   O88       1.0  0.97270  0.50000  0.92630  1.0000 -1.016097725
O   O89       1.0  0.88340  0.00000  0.43720  1.0000 -0.89852804
O   O90       1.0  0.02730  0.00000  0.42630  1.0000 -1.016097725
O   O91       1.0  0.88340  0.00000  0.56280  1.0000 -0.89852804
O   O92       1.0  0.02730  0.00000  0.57370  1.0000 -1.016097725
