# DDEC6 charges by PACMAN v1.1 (https://github.com/mtap-research/PACMAN-charge/)
data_2019[Tb][fcu]3[ASR]1
_chemical_formula_sum              "Tb24 C288 H192 O128 N48"
_cell_length_a       27.3162
_cell_length_b       27.3162
_cell_length_c       27.3162
_cell_angle_alpha    90
_cell_angle_beta     90
_cell_angle_gamma    90

_symmetry_space_group_name_H-M    "P 1"
_symmetry_Int_Tables_number       1

loop_
  _symmetry_equiv_pos_as_xyz
  'x, y, z'

loop_
  _atom_site_type_symbol
  _atom_site_label
  _atom_site_symmetry_multiplicity
  _atom_site_fract_x
  _atom_site_fract_y
  _atom_site_fract_z
  _atom_site_occupancy
  _atom_site_charge
Tb  Tb1       1.0  0.39874  0.50000  0.50000  1.0000 2.1699932694
Tb  Tb2       1.0  0.39874  0.00000  0.00000  1.0000 2.1699932694
Tb  Tb3       1.0  0.89874  0.50000  0.00000  1.0000 2.1699932694
Tb  Tb4       1.0  0.89874  0.00000  0.50000  1.0000 2.1699932694
Tb  Tb5       1.0  0.60126  0.50000  0.50000  1.0000 2.1699932694
Tb  Tb6       1.0  0.60126  0.00000  0.00000  1.0000 2.1699932694
Tb  Tb7       1.0  0.10126  0.50000  0.00000  1.0000 2.1699932694
Tb  Tb8       1.0  0.10126  0.00000  0.50000  1.0000 2.1699932694
Tb  Tb9       1.0  0.50000  0.39874  0.50000  1.0000 2.1699932694
Tb  Tb10      1.0  0.50000  0.89874  0.00000  1.0000 2.1699932694
Tb  Tb11      1.0  0.00000  0.39874  0.00000  1.0000 2.1699932694
Tb  Tb12      1.0  0.00000  0.89874  0.50000  1.0000 2.1699932694
Tb  Tb13      1.0  0.50000  0.60126  0.50000  1.0000 2.1699932694
Tb  Tb14      1.0  0.50000  0.10126  0.00000  1.0000 2.1699932694
Tb  Tb15      1.0  0.00000  0.60126  0.00000  1.0000 2.1699932694
Tb  Tb16      1.0  0.00000  0.10126  0.50000  1.0000 2.1699932694
Tb  Tb17      1.0  0.50000  0.50000  0.39874  1.0000 2.1699932694
Tb  Tb18      1.0  0.50000  0.00000  0.89874  1.0000 2.1699932694
Tb  Tb19      1.0  0.00000  0.50000  0.89874  1.0000 2.1699932694
Tb  Tb20      1.0  0.00000  0.00000  0.39874  1.0000 2.1699932694
Tb  Tb21      1.0  0.50000  0.50000  0.60126  1.0000 2.1699932694
Tb  Tb22      1.0  0.50000  0.00000  0.10126  1.0000 2.1699932694
Tb  Tb23      1.0  0.00000  0.50000  0.10126  1.0000 2.1699932694
Tb  Tb24      1.0  0.00000  0.00000  0.60126  1.0000 2.1699932694
C   C1        1.0  0.37840  0.37840  0.50000  1.0000 0.6320136219
C   C2        1.0  0.33940  0.33940  0.50000  1.0000 -0.1010072352
C   C3        1.0  0.26900  0.26900  0.50000  1.0000 0.1290558193
C   C4        1.0  0.37840  0.87840  0.00000  1.0000 0.6320136219
C   C5        1.0  0.33940  0.83940  0.00000  1.0000 -0.1010072352
C   C6        1.0  0.26900  0.76900  0.00000  1.0000 0.1290558193
C   C7        1.0  0.87840  0.37840  0.00000  1.0000 0.6320136219
C   C8        1.0  0.83940  0.33940  0.00000  1.0000 -0.1010072352
C   C9        1.0  0.76900  0.26900  0.00000  1.0000 0.1290558193
C   C10       1.0  0.87840  0.87840  0.50000  1.0000 0.6320136219
C   C11       1.0  0.83940  0.83940  0.50000  1.0000 -0.1010072352
C   C12       1.0  0.76900  0.76900  0.50000  1.0000 0.1290558193
C   C13       1.0  0.62160  0.62160  0.50000  1.0000 0.6320136219
C   C14       1.0  0.66060  0.66060  0.50000  1.0000 -0.1010072352
C   C15       1.0  0.73100  0.73100  0.50000  1.0000 0.1290558193
C   C16       1.0  0.62160  0.12160  0.00000  1.0000 0.6320136219
C   C17       1.0  0.66060  0.16060  0.00000  1.0000 -0.1010072352
C   C18       1.0  0.73100  0.23100  0.00000  1.0000 0.1290558193
C   C19       1.0  0.12160  0.62160  0.00000  1.0000 0.6320136219
C   C20       1.0  0.16060  0.66060  0.00000  1.0000 -0.1010072352
C   C21       1.0  0.23100  0.73100  0.00000  1.0000 0.1290558193
C   C22       1.0  0.12160  0.12160  0.50000  1.0000 0.6320136219
C   C23       1.0  0.16060  0.16060  0.50000  1.0000 -0.1010072352
C   C24       1.0  0.23100  0.23100  0.50000  1.0000 0.1290558193
C   C25       1.0  0.62160  0.37840  0.50000  1.0000 0.6320136219
C   C26       1.0  0.66060  0.33940  0.50000  1.0000 -0.1010072352
C   C27       1.0  0.73100  0.26900  0.50000  1.0000 0.1290558193
C   C28       1.0  0.62160  0.87840  0.00000  1.0000 0.6320136219
C   C29       1.0  0.66060  0.83940  0.00000  1.0000 -0.1010072352
C   C30       1.0  0.73100  0.76900  0.00000  1.0000 0.1290558193
C   C31       1.0  0.12160  0.37840  0.00000  1.0000 0.6320136219
C   C32       1.0  0.16060  0.33940  0.00000  1.0000 -0.1010072352
C   C33       1.0  0.23100  0.26900  0.00000  1.0000 0.1290558193
C   C34       1.0  0.12160  0.87840  0.50000  1.0000 0.6320136219
C   C35       1.0  0.16060  0.83940  0.50000  1.0000 -0.1010072352
C   C36       1.0  0.23100  0.76900  0.50000  1.0000 0.1290558193
C   C37       1.0  0.37840  0.62160  0.50000  1.0000 0.6320136219
C   C38       1.0  0.33940  0.66060  0.50000  1.0000 -0.1010072352
C   C39       1.0  0.26900  0.73100  0.50000  1.0000 0.1290558193
C   C40       1.0  0.37840  0.12160  0.00000  1.0000 0.6320136219
C   C41       1.0  0.33940  0.16060  0.00000  1.0000 -0.1010072352
C   C42       1.0  0.26900  0.23100  0.00000  1.0000 0.1290558193
C   C43       1.0  0.87840  0.62160  0.00000  1.0000 0.6320136219
C   C44       1.0  0.83940  0.66060  0.00000  1.0000 -0.1010072352
C   C45       1.0  0.76900  0.73100  0.00000  1.0000 0.1290558193
C   C46       1.0  0.87840  0.12160  0.50000  1.0000 0.6320136219
C   C47       1.0  0.83940  0.16060  0.50000  1.0000 -0.1010072352
C   C48       1.0  0.76900  0.23100  0.50000  1.0000 0.1290558193
C   C49       1.0  0.50000  0.37840  0.37840  1.0000 0.6320136219
C   C50       1.0  0.50000  0.33940  0.33940  1.0000 -0.1010072352
C   C51       1.0  0.50000  0.26900  0.26900  1.0000 0.1290558193
C   C52       1.0  0.50000  0.87840  0.87840  1.0000 0.6320136219
C   C53       1.0  0.50000  0.83940  0.83940  1.0000 -0.1010072352
C   C54       1.0  0.50000  0.76900  0.76900  1.0000 0.1290558193
C   C55       1.0  0.00000  0.37840  0.87840  1.0000 0.6320136219
C   C56       1.0  0.00000  0.33940  0.83940  1.0000 -0.1010072352
C   C57       1.0  0.00000  0.26900  0.76900  1.0000 0.1290558193
C   C58       1.0  0.00000  0.87840  0.37840  1.0000 0.6320136219
C   C59       1.0  0.00000  0.83940  0.33940  1.0000 -0.1010072352
C   C60       1.0  0.00000  0.76900  0.26900  1.0000 0.1290558193
C   C61       1.0  0.50000  0.62160  0.62160  1.0000 0.6320136219
C   C62       1.0  0.50000  0.66060  0.66060  1.0000 -0.1010072352
C   C63       1.0  0.50000  0.73100  0.73100  1.0000 0.1290558193
C   C64       1.0  0.50000  0.12160  0.12160  1.0000 0.6320136219
C   C65       1.0  0.50000  0.16060  0.16060  1.0000 -0.1010072352
C   C66       1.0  0.50000  0.23100  0.23100  1.0000 0.1290558193
C   C67       1.0  0.00000  0.62160  0.12160  1.0000 0.6320136219
C   C68       1.0  0.00000  0.66060  0.16060  1.0000 -0.1010072352
C   C69       1.0  0.00000  0.73100  0.23100  1.0000 0.1290558193
C   C70       1.0  0.00000  0.12160  0.62160  1.0000 0.6320136219
C   C71       1.0  0.00000  0.16060  0.66060  1.0000 -0.1010072352
C   C72       1.0  0.00000  0.23100  0.73100  1.0000 0.1290558193
C   C73       1.0  0.50000  0.62160  0.37840  1.0000 0.6320136219
C   C74       1.0  0.50000  0.66060  0.33940  1.0000 -0.1010072352
C   C75       1.0  0.50000  0.73100  0.26900  1.0000 0.1290558193
C   C76       1.0  0.50000  0.12160  0.87840  1.0000 0.6320136219
C   C77       1.0  0.50000  0.16060  0.83940  1.0000 -0.1010072352
C   C78       1.0  0.50000  0.23100  0.76900  1.0000 0.1290558193
C   C79       1.0  0.00000  0.62160  0.87840  1.0000 0.6320136219
C   C80       1.0  0.00000  0.66060  0.83940  1.0000 -0.1010072352
C   C81       1.0  0.00000  0.73100  0.76900  1.0000 0.1290558193
C   C82       1.0  0.00000  0.12160  0.37840  1.0000 0.6320136219
C   C83       1.0  0.00000  0.16060  0.33940  1.0000 -0.1010072352
C   C84       1.0  0.00000  0.23100  0.26900  1.0000 0.1290558193
C   C85       1.0  0.50000  0.37840  0.62160  1.0000 0.6320136219
C   C86       1.0  0.50000  0.33940  0.66060  1.0000 -0.1010072352
C   C87       1.0  0.50000  0.26900  0.73100  1.0000 0.1290558193
C   C88       1.0  0.50000  0.87840  0.12160  1.0000 0.6320136219
C   C89       1.0  0.50000  0.83940  0.16060  1.0000 -0.1010072352
C   C90       1.0  0.50000  0.76900  0.23100  1.0000 0.1290558193
C   C91       1.0  0.00000  0.37840  0.12160  1.0000 0.6320136219
C   C92       1.0  0.00000  0.33940  0.16060  1.0000 -0.1010072352
C   C93       1.0  0.00000  0.26900  0.23100  1.0000 0.1290558193
C   C94       1.0  0.00000  0.87840  0.62160  1.0000 0.6320136219
C   C95       1.0  0.00000  0.83940  0.66060  1.0000 -0.1010072352
C   C96       1.0  0.00000  0.76900  0.73100  1.0000 0.1290558193
C   C97       1.0  0.37840  0.50000  0.37840  1.0000 0.6320136219
C   C98       1.0  0.33940  0.50000  0.33940  1.0000 -0.1010072352
C   C99       1.0  0.26900  0.50000  0.26900  1.0000 0.1290558193
C   C100      1.0  0.37840  0.00000  0.87840  1.0000 0.6320136219
C   C101      1.0  0.33940  0.00000  0.83940  1.0000 -0.1010072352
C   C102      1.0  0.26900  0.00000  0.76900  1.0000 0.1290558193
C   C103      1.0  0.87840  0.50000  0.87840  1.0000 0.6320136219
C   C104      1.0  0.83940  0.50000  0.83940  1.0000 -0.1010072352
C   C105      1.0  0.76900  0.50000  0.76900  1.0000 0.1290558193
C   C106      1.0  0.87840  0.00000  0.37840  1.0000 0.6320136219
C   C107      1.0  0.83940  0.00000  0.33940  1.0000 -0.1010072352
C   C108      1.0  0.76900  0.00000  0.26900  1.0000 0.1290558193
C   C109      1.0  0.62160  0.50000  0.62160  1.0000 0.6320136219
C   C110      1.0  0.66060  0.50000  0.66060  1.0000 -0.1010072352
C   C111      1.0  0.73100  0.50000  0.73100  1.0000 0.1290558193
C   C112      1.0  0.62160  0.00000  0.12160  1.0000 0.6320136219
C   C113      1.0  0.66060  0.00000  0.16060  1.0000 -0.1010072352
C   C114      1.0  0.73100  0.00000  0.23100  1.0000 0.1290558193
C   C115      1.0  0.12160  0.50000  0.12160  1.0000 0.6320136219
C   C116      1.0  0.16060  0.50000  0.16060  1.0000 -0.1010072352
C   C117      1.0  0.23100  0.50000  0.23100  1.0000 0.1290558193
C   C118      1.0  0.12160  0.00000  0.62160  1.0000 0.6320136219
C   C119      1.0  0.16060  0.00000  0.66060  1.0000 -0.1010072352
C   C120      1.0  0.23100  0.00000  0.73100  1.0000 0.1290558193
C   C121      1.0  0.37840  0.50000  0.62160  1.0000 0.6320136219
C   C122      1.0  0.33940  0.50000  0.66060  1.0000 -0.1010072352
C   C123      1.0  0.26900  0.50000  0.73100  1.0000 0.1290558193
C   C124      1.0  0.37840  0.00000  0.12160  1.0000 0.6320136219
C   C125      1.0  0.33940  0.00000  0.16060  1.0000 -0.1010072352
C   C126      1.0  0.26900  0.00000  0.23100  1.0000 0.1290558193
C   C127      1.0  0.87840  0.50000  0.12160  1.0000 0.6320136219
C   C128      1.0  0.83940  0.50000  0.16060  1.0000 -0.1010072352
C   C129      1.0  0.76900  0.50000  0.23100  1.0000 0.1290558193
C   C130      1.0  0.87840  0.00000  0.62160  1.0000 0.6320136219
C   C131      1.0  0.83940  0.00000  0.66060  1.0000 -0.1010072352
C   C132      1.0  0.76900  0.00000  0.73100  1.0000 0.1290558193
C   C133      1.0  0.62160  0.50000  0.37840  1.0000 0.6320136219
C   C134      1.0  0.66060  0.50000  0.33940  1.0000 -0.1010072352
C   C135      1.0  0.73100  0.50000  0.26900  1.0000 0.1290558193
C   C136      1.0  0.62160  0.00000  0.87840  1.0000 0.6320136219
C   C137      1.0  0.66060  0.00000  0.83940  1.0000 -0.1010072352
C   C138      1.0  0.73100  0.00000  0.76900  1.0000 0.1290558193
C   C139      1.0  0.12160  0.50000  0.87840  1.0000 0.6320136219
C   C140      1.0  0.16060  0.50000  0.83940  1.0000 -0.1010072352
C   C141      1.0  0.23100  0.50000  0.76900  1.0000 0.1290558193
C   C142      1.0  0.12160  0.00000  0.37840  1.0000 0.6320136219
C   C143      1.0  0.16060  0.00000  0.33940  1.0000 -0.1010072352
C   C144      1.0  0.23100  0.00000  0.26900  1.0000 0.1290558193
C   C145      1.0  0.35260  0.28960  0.50000  1.0000 0.0499595426
H   H1        1.0  0.38620  0.28060  0.50000  1.0000 0.1198402863
C   C146      1.0  0.31760  0.25430  0.50000  1.0000 -0.2702854742
O   O1        1.0  0.36238  0.42242  0.50000  1.0000 -0.6152914244
N   N1        1.0  0.25430  0.31760  0.50000  1.0000 -0.2073213887
H   H2        1.0  0.32550  0.22310  0.50000  1.0000 0.2684938875
C   C147      1.0  0.35260  0.78960  0.00000  1.0000 0.0499595426
H   H3        1.0  0.38620  0.78060  0.00000  1.0000 0.1198402863
C   C148      1.0  0.31760  0.75430  0.00000  1.0000 -0.2702854742
O   O2        1.0  0.36238  0.92242  0.00000  1.0000 -0.6152914244
N   N2        1.0  0.25430  0.81760  0.00000  1.0000 -0.2073213887
H   H4        1.0  0.32550  0.72310  0.00000  1.0000 0.2684938875
C   C149      1.0  0.85260  0.28960  0.00000  1.0000 0.0499595426
H   H5        1.0  0.88620  0.28060  0.00000  1.0000 0.1198402863
C   C150      1.0  0.81760  0.25430  0.00000  1.0000 -0.2702854742
O   O3        1.0  0.86238  0.42242  0.00000  1.0000 -0.6152914244
N   N3        1.0  0.75430  0.31760  0.00000  1.0000 -0.2073213887
H   H6        1.0  0.82550  0.22310  0.00000  1.0000 0.2684938875
C   C151      1.0  0.85260  0.78960  0.50000  1.0000 0.0499595426
H   H7        1.0  0.88620  0.78060  0.50000  1.0000 0.1198402863
C   C152      1.0  0.81760  0.75430  0.50000  1.0000 -0.2702854742
O   O4        1.0  0.86238  0.92242  0.50000  1.0000 -0.6152914244
N   N4        1.0  0.75430  0.81760  0.50000  1.0000 -0.2073213887
H   H8        1.0  0.82550  0.72310  0.50000  1.0000 0.2684938875
C   C153      1.0  0.64740  0.71040  0.50000  1.0000 0.0499595426
H   H9        1.0  0.61380  0.71940  0.50000  1.0000 0.1198402863
C   C154      1.0  0.68240  0.74570  0.50000  1.0000 -0.2702854742
O   O5        1.0  0.63762  0.57758  0.50000  1.0000 -0.6152914244
N   N5        1.0  0.74570  0.68240  0.50000  1.0000 -0.2073213887
H   H10       1.0  0.67450  0.77690  0.50000  1.0000 0.2684938875
C   C155      1.0  0.64740  0.21040  0.00000  1.0000 0.0499595426
H   H11       1.0  0.61380  0.21940  0.00000  1.0000 0.1198402863
C   C156      1.0  0.68240  0.24570  0.00000  1.0000 -0.2702854742
O   O6        1.0  0.63762  0.07758  0.00000  1.0000 -0.6152914244
N   N6        1.0  0.74570  0.18240  0.00000  1.0000 -0.2073213887
H   H12       1.0  0.67450  0.27690  0.00000  1.0000 0.2684938875
C   C157      1.0  0.14740  0.71040  0.00000  1.0000 0.0499595426
H   H13       1.0  0.11380  0.71940  0.00000  1.0000 0.1198402863
C   C158      1.0  0.18240  0.74570  0.00000  1.0000 -0.2702854742
O   O7        1.0  0.13762  0.57758  0.00000  1.0000 -0.6152914244
N   N7        1.0  0.24570  0.68240  0.00000  1.0000 -0.2073213887
H   H14       1.0  0.17450  0.77690  0.00000  1.0000 0.2684938875
C   C159      1.0  0.14740  0.21040  0.50000  1.0000 0.0499595426
H   H15       1.0  0.11380  0.21940  0.50000  1.0000 0.1198402863
C   C160      1.0  0.18240  0.24570  0.50000  1.0000 -0.2702854742
O   O8        1.0  0.13762  0.07758  0.50000  1.0000 -0.6152914244
N   N8        1.0  0.24570  0.18240  0.50000  1.0000 -0.2073213887
H   H16       1.0  0.17450  0.27690  0.50000  1.0000 0.2684938875
C   C161      1.0  0.64740  0.28960  0.50000  1.0000 0.0499595426
H   H17       1.0  0.61380  0.28060  0.50000  1.0000 0.1198402863
C   C162      1.0  0.68240  0.25430  0.50000  1.0000 -0.2702854742
O   O9        1.0  0.63762  0.42242  0.50000  1.0000 -0.6152914244
N   N9        1.0  0.74570  0.31760  0.50000  1.0000 -0.2073213887
H   H18       1.0  0.67450  0.22310  0.50000  1.0000 0.2684938875
C   C163      1.0  0.64740  0.78960  0.00000  1.0000 0.0499595426
H   H19       1.0  0.61380  0.78060  0.00000  1.0000 0.1198402863
C   C164      1.0  0.68240  0.75430  0.00000  1.0000 -0.2702854742
O   O10       1.0  0.63762  0.92242  0.00000  1.0000 -0.6152914244
N   N10       1.0  0.74570  0.81760  0.00000  1.0000 -0.2073213887
H   H20       1.0  0.67450  0.72310  0.00000  1.0000 0.2684938875
C   C165      1.0  0.14740  0.28960  0.00000  1.0000 0.0499595426
H   H21       1.0  0.11380  0.28060  0.00000  1.0000 0.1198402863
C   C166      1.0  0.18240  0.25430  0.00000  1.0000 -0.2702854742
O   O11       1.0  0.13762  0.42242  0.00000  1.0000 -0.6152914244
N   N11       1.0  0.24570  0.31760  0.00000  1.0000 -0.2073213887
H   H22       1.0  0.17450  0.22310  0.00000  1.0000 0.2684938875
C   C167      1.0  0.14740  0.78960  0.50000  1.0000 0.0499595426
H   H23       1.0  0.11380  0.78060  0.50000  1.0000 0.1198402863
C   C168      1.0  0.18240  0.75430  0.50000  1.0000 -0.2702854742
O   O12       1.0  0.13762  0.92242  0.50000  1.0000 -0.6152914244
N   N12       1.0  0.24570  0.81760  0.50000  1.0000 -0.2073213887
H   H24       1.0  0.17450  0.72310  0.50000  1.0000 0.2684938875
C   C169      1.0  0.35260  0.71040  0.50000  1.0000 0.0499595426
H   H25       1.0  0.38620  0.71940  0.50000  1.0000 0.1198402863
C   C170      1.0  0.31760  0.74570  0.50000  1.0000 -0.2702854742
O   O13       1.0  0.36238  0.57758  0.50000  1.0000 -0.6152914244
N   N13       1.0  0.25430  0.68240  0.50000  1.0000 -0.2073213887
H   H26       1.0  0.32550  0.77690  0.50000  1.0000 0.2684938875
C   C171      1.0  0.35260  0.21040  0.00000  1.0000 0.0499595426
H   H27       1.0  0.38620  0.21940  0.00000  1.0000 0.1198402863
C   C172      1.0  0.31760  0.24570  0.00000  1.0000 -0.2702854742
O   O14       1.0  0.36238  0.07758  0.00000  1.0000 -0.6152914244
N   N14       1.0  0.25430  0.18240  0.00000  1.0000 -0.2073213887
H   H28       1.0  0.32550  0.27690  0.00000  1.0000 0.2684938875
C   C173      1.0  0.85260  0.71040  0.00000  1.0000 0.0499595426
H   H29       1.0  0.88620  0.71940  0.00000  1.0000 0.1198402863
C   C174      1.0  0.81760  0.74570  0.00000  1.0000 -0.2702854742
O   O15       1.0  0.86238  0.57758  0.00000  1.0000 -0.6152914244
N   N15       1.0  0.75430  0.68240  0.00000  1.0000 -0.2073213887
H   H30       1.0  0.82550  0.77690  0.00000  1.0000 0.2684938875
C   C175      1.0  0.85260  0.21040  0.50000  1.0000 0.0499595426
H   H31       1.0  0.88620  0.21940  0.50000  1.0000 0.1198402863
C   C176      1.0  0.81760  0.24570  0.50000  1.0000 -0.2702854742
O   O16       1.0  0.86238  0.07758  0.50000  1.0000 -0.6152914244
N   N16       1.0  0.75430  0.18240  0.50000  1.0000 -0.2073213887
H   H32       1.0  0.82550  0.27690  0.50000  1.0000 0.2684938875
C   C177      1.0  0.50000  0.35260  0.28960  1.0000 0.0499595426
H   H33       1.0  0.50000  0.38620  0.28060  1.0000 0.1198402863
C   C178      1.0  0.50000  0.31760  0.25430  1.0000 -0.2702854742
O   O17       1.0  0.50000  0.36238  0.42242  1.0000 -0.6152914244
N   N17       1.0  0.50000  0.25430  0.31760  1.0000 -0.2073213887
H   H34       1.0  0.50000  0.32550  0.22310  1.0000 0.2684938875
C   C179      1.0  0.50000  0.85260  0.78960  1.0000 0.0499595426
H   H35       1.0  0.50000  0.88620  0.78060  1.0000 0.1198402863
C   C180      1.0  0.50000  0.81760  0.75430  1.0000 -0.2702854742
O   O18       1.0  0.50000  0.86238  0.92242  1.0000 -0.6152914244
N   N18       1.0  0.50000  0.75430  0.81760  1.0000 -0.2073213887
H   H36       1.0  0.50000  0.82550  0.72310  1.0000 0.2684938875
C   C181      1.0  0.00000  0.35260  0.78960  1.0000 0.0499595426
H   H37       1.0  0.00000  0.38620  0.78060  1.0000 0.1198402863
C   C182      1.0  0.00000  0.31760  0.75430  1.0000 -0.2702854742
O   O19       1.0  0.00000  0.36238  0.92242  1.0000 -0.6152914244
N   N19       1.0  0.00000  0.25430  0.81760  1.0000 -0.2073213887
H   H38       1.0  0.00000  0.32550  0.72310  1.0000 0.2684938875
C   C183      1.0  0.00000  0.85260  0.28960  1.0000 0.0499595426
H   H39       1.0  0.00000  0.88620  0.28060  1.0000 0.1198402863
C   C184      1.0  0.00000  0.81760  0.25430  1.0000 -0.2702854742
O   O20       1.0  0.00000  0.86238  0.42242  1.0000 -0.6152914244
N   N20       1.0  0.00000  0.75430  0.31760  1.0000 -0.2073213887
H   H40       1.0  0.00000  0.82550  0.22310  1.0000 0.2684938875
C   C185      1.0  0.50000  0.64740  0.71040  1.0000 0.0499595426
H   H41       1.0  0.50000  0.61380  0.71940  1.0000 0.1198402863
C   C186      1.0  0.50000  0.68240  0.74570  1.0000 -0.2702854742
O   O21       1.0  0.50000  0.63762  0.57758  1.0000 -0.6152914244
N   N21       1.0  0.50000  0.74570  0.68240  1.0000 -0.2073213887
H   H42       1.0  0.50000  0.67450  0.77690  1.0000 0.2684938875
C   C187      1.0  0.50000  0.14740  0.21040  1.0000 0.0499595426
H   H43       1.0  0.50000  0.11380  0.21940  1.0000 0.1198402863
C   C188      1.0  0.50000  0.18240  0.24570  1.0000 -0.2702854742
O   O22       1.0  0.50000  0.13762  0.07758  1.0000 -0.6152914244
N   N22       1.0  0.50000  0.24570  0.18240  1.0000 -0.2073213887
H   H44       1.0  0.50000  0.17450  0.27690  1.0000 0.2684938875
C   C189      1.0  0.00000  0.64740  0.21040  1.0000 0.0499595426
H   H45       1.0  0.00000  0.61380  0.21940  1.0000 0.1198402863
C   C190      1.0  0.00000  0.68240  0.24570  1.0000 -0.2702854742
O   O23       1.0  0.00000  0.63762  0.07758  1.0000 -0.6152914244
N   N23       1.0  0.00000  0.74570  0.18240  1.0000 -0.2073213887
H   H46       1.0  0.00000  0.67450  0.27690  1.0000 0.2684938875
C   C191      1.0  0.00000  0.14740  0.71040  1.0000 0.0499595426
H   H47       1.0  0.00000  0.11380  0.71940  1.0000 0.1198402863
C   C192      1.0  0.00000  0.18240  0.74570  1.0000 -0.2702854742
O   O24       1.0  0.00000  0.13762  0.57758  1.0000 -0.6152914244
N   N24       1.0  0.00000  0.24570  0.68240  1.0000 -0.2073213887
H   H48       1.0  0.00000  0.17450  0.77690  1.0000 0.2684938875
C   C193      1.0  0.50000  0.64740  0.28960  1.0000 0.0499595426
H   H49       1.0  0.50000  0.61380  0.28060  1.0000 0.1198402863
C   C194      1.0  0.50000  0.68240  0.25430  1.0000 -0.2702854742
O   O25       1.0  0.50000  0.63762  0.42242  1.0000 -0.6152914244
N   N25       1.0  0.50000  0.74570  0.31760  1.0000 -0.2073213887
H   H50       1.0  0.50000  0.67450  0.22310  1.0000 0.2684938875
C   C195      1.0  0.50000  0.14740  0.78960  1.0000 0.0499595426
H   H51       1.0  0.50000  0.11380  0.78060  1.0000 0.1198402863
C   C196      1.0  0.50000  0.18240  0.75430  1.0000 -0.2702854742
O   O26       1.0  0.50000  0.13762  0.92242  1.0000 -0.6152914244
N   N26       1.0  0.50000  0.24570  0.81760  1.0000 -0.2073213887
H   H52       1.0  0.50000  0.17450  0.72310  1.0000 0.2684938875
C   C197      1.0  0.00000  0.64740  0.78960  1.0000 0.0499595426
H   H53       1.0  0.00000  0.61380  0.78060  1.0000 0.1198402863
C   C198      1.0  0.00000  0.68240  0.75430  1.0000 -0.2702854742
O   O27       1.0  0.00000  0.63762  0.92242  1.0000 -0.6152914244
N   N27       1.0  0.00000  0.74570  0.81760  1.0000 -0.2073213887
H   H54       1.0  0.00000  0.67450  0.72310  1.0000 0.2684938875
C   C199      1.0  0.00000  0.14740  0.28960  1.0000 0.0499595426
H   H55       1.0  0.00000  0.11380  0.28060  1.0000 0.1198402863
C   C200      1.0  0.00000  0.18240  0.25430  1.0000 -0.2702854742
O   O28       1.0  0.00000  0.13762  0.42242  1.0000 -0.6152914244
N   N28       1.0  0.00000  0.24570  0.31760  1.0000 -0.2073213887
H   H56       1.0  0.00000  0.17450  0.22310  1.0000 0.2684938875
C   C201      1.0  0.50000  0.35260  0.71040  1.0000 0.0499595426
H   H57       1.0  0.50000  0.38620  0.71940  1.0000 0.1198402863
C   C202      1.0  0.50000  0.31760  0.74570  1.0000 -0.2702854742
O   O29       1.0  0.50000  0.36238  0.57758  1.0000 -0.6152914244
N   N29       1.0  0.50000  0.25430  0.68240  1.0000 -0.2073213887
H   H58       1.0  0.50000  0.32550  0.77690  1.0000 0.2684938875
C   C203      1.0  0.50000  0.85260  0.21040  1.0000 0.0499595426
H   H59       1.0  0.50000  0.88620  0.21940  1.0000 0.1198402863
C   C204      1.0  0.50000  0.81760  0.24570  1.0000 -0.2702854742
O   O30       1.0  0.50000  0.86238  0.07758  1.0000 -0.6152914244
N   N30       1.0  0.50000  0.75430  0.18240  1.0000 -0.2073213887
H   H60       1.0  0.50000  0.82550  0.27690  1.0000 0.2684938875
C   C205      1.0  0.00000  0.35260  0.21040  1.0000 0.0499595426
H   H61       1.0  0.00000  0.38620  0.21940  1.0000 0.1198402863
C   C206      1.0  0.00000  0.31760  0.24570  1.0000 -0.2702854742
O   O31       1.0  0.00000  0.36238  0.07758  1.0000 -0.6152914244
N   N31       1.0  0.00000  0.25430  0.18240  1.0000 -0.2073213887
H   H62       1.0  0.00000  0.32550  0.27690  1.0000 0.2684938875
C   C207      1.0  0.00000  0.85260  0.71040  1.0000 0.0499595426
H   H63       1.0  0.00000  0.88620  0.71940  1.0000 0.1198402863
C   C208      1.0  0.00000  0.81760  0.74570  1.0000 -0.2702854742
O   O32       1.0  0.00000  0.86238  0.57758  1.0000 -0.6152914244
N   N32       1.0  0.00000  0.75430  0.68240  1.0000 -0.2073213887
H   H64       1.0  0.00000  0.82550  0.77690  1.0000 0.2684938875
C   C209      1.0  0.28960  0.50000  0.35260  1.0000 0.0499595426
H   H65       1.0  0.28060  0.50000  0.38620  1.0000 0.1198402863
C   C210      1.0  0.25430  0.50000  0.31760  1.0000 -0.2702854742
O   O33       1.0  0.42242  0.50000  0.36238  1.0000 -0.6152914244
N   N33       1.0  0.31760  0.50000  0.25430  1.0000 -0.2073213887
H   H66       1.0  0.22310  0.50000  0.32550  1.0000 0.2684938875
C   C211      1.0  0.28960  0.00000  0.85260  1.0000 0.0499595426
H   H67       1.0  0.28060  0.00000  0.88620  1.0000 0.1198402863
C   C212      1.0  0.25430  0.00000  0.81760  1.0000 -0.2702854742
O   O34       1.0  0.42242  0.00000  0.86238  1.0000 -0.6152914244
N   N34       1.0  0.31760  0.00000  0.75430  1.0000 -0.2073213887
H   H68       1.0  0.22310  0.00000  0.82550  1.0000 0.2684938875
C   C213      1.0  0.78960  0.50000  0.85260  1.0000 0.0499595426
H   H69       1.0  0.78060  0.50000  0.88620  1.0000 0.1198402863
C   C214      1.0  0.75430  0.50000  0.81760  1.0000 -0.2702854742
O   O35       1.0  0.92242  0.50000  0.86238  1.0000 -0.6152914244
N   N35       1.0  0.81760  0.50000  0.75430  1.0000 -0.2073213887
H   H70       1.0  0.72310  0.50000  0.82550  1.0000 0.2684938875
C   C215      1.0  0.78960  0.00000  0.35260  1.0000 0.0499595426
H   H71       1.0  0.78060  0.00000  0.38620  1.0000 0.1198402863
C   C216      1.0  0.75430  0.00000  0.31760  1.0000 -0.2702854742
O   O36       1.0  0.92242  0.00000  0.36238  1.0000 -0.6152914244
N   N36       1.0  0.81760  0.00000  0.25430  1.0000 -0.2073213887
H   H72       1.0  0.72310  0.00000  0.32550  1.0000 0.2684938875
C   C217      1.0  0.71040  0.50000  0.64740  1.0000 0.0499595426
H   H73       1.0  0.71940  0.50000  0.61380  1.0000 0.1198402863
C   C218      1.0  0.74570  0.50000  0.68240  1.0000 -0.2702854742
O   O37       1.0  0.57758  0.50000  0.63762  1.0000 -0.6152914244
N   N37       1.0  0.68240  0.50000  0.74570  1.0000 -0.2073213887
H   H74       1.0  0.77690  0.50000  0.67450  1.0000 0.2684938875
C   C219      1.0  0.71040  0.00000  0.14740  1.0000 0.0499595426
H   H75       1.0  0.71940  0.00000  0.11380  1.0000 0.1198402863
C   C220      1.0  0.74570  0.00000  0.18240  1.0000 -0.2702854742
O   O38       1.0  0.57758  0.00000  0.13762  1.0000 -0.6152914244
N   N38       1.0  0.68240  0.00000  0.24570  1.0000 -0.2073213887
H   H76       1.0  0.77690  0.00000  0.17450  1.0000 0.2684938875
C   C221      1.0  0.21040  0.50000  0.14740  1.0000 0.0499595426
H   H77       1.0  0.21940  0.50000  0.11380  1.0000 0.1198402863
C   C222      1.0  0.24570  0.50000  0.18240  1.0000 -0.2702854742
O   O39       1.0  0.07758  0.50000  0.13762  1.0000 -0.6152914244
N   N39       1.0  0.18240  0.50000  0.24570  1.0000 -0.2073213887
H   H78       1.0  0.27690  0.50000  0.17450  1.0000 0.2684938875
C   C223      1.0  0.21040  0.00000  0.64740  1.0000 0.0499595426
H   H79       1.0  0.21940  0.00000  0.61380  1.0000 0.1198402863
C   C224      1.0  0.24570  0.00000  0.68240  1.0000 -0.2702854742
O   O40       1.0  0.07758  0.00000  0.63762  1.0000 -0.6152914244
N   N40       1.0  0.18240  0.00000  0.74570  1.0000 -0.2073213887
H   H80       1.0  0.27690  0.00000  0.67450  1.0000 0.2684938875
C   C225      1.0  0.28960  0.50000  0.64740  1.0000 0.0499595426
H   H81       1.0  0.28060  0.50000  0.61380  1.0000 0.1198402863
C   C226      1.0  0.25430  0.50000  0.68240  1.0000 -0.2702854742
O   O41       1.0  0.42242  0.50000  0.63762  1.0000 -0.6152914244
N   N41       1.0  0.31760  0.50000  0.74570  1.0000 -0.2073213887
H   H82       1.0  0.22310  0.50000  0.67450  1.0000 0.2684938875
C   C227      1.0  0.28960  0.00000  0.14740  1.0000 0.0499595426
H   H83       1.0  0.28060  0.00000  0.11380  1.0000 0.1198402863
C   C228      1.0  0.25430  0.00000  0.18240  1.0000 -0.2702854742
O   O42       1.0  0.42242  0.00000  0.13762  1.0000 -0.6152914244
N   N42       1.0  0.31760  0.00000  0.24570  1.0000 -0.2073213887
H   H84       1.0  0.22310  0.00000  0.17450  1.0000 0.2684938875
C   C229      1.0  0.78960  0.50000  0.14740  1.0000 0.0499595426
H   H85       1.0  0.78060  0.50000  0.11380  1.0000 0.1198402863
C   C230      1.0  0.75430  0.50000  0.18240  1.0000 -0.2702854742
O   O43       1.0  0.92242  0.50000  0.13762  1.0000 -0.6152914244
N   N43       1.0  0.81760  0.50000  0.24570  1.0000 -0.2073213887
H   H86       1.0  0.72310  0.50000  0.17450  1.0000 0.2684938875
C   C231      1.0  0.78960  0.00000  0.64740  1.0000 0.0499595426
H   H87       1.0  0.78060  0.00000  0.61380  1.0000 0.1198402863
C   C232      1.0  0.75430  0.00000  0.68240  1.0000 -0.2702854742
O   O44       1.0  0.92242  0.00000  0.63762  1.0000 -0.6152914244
N   N44       1.0  0.81760  0.00000  0.74570  1.0000 -0.2073213887
H   H88       1.0  0.72310  0.00000  0.67450  1.0000 0.2684938875
C   C233      1.0  0.71040  0.50000  0.35260  1.0000 0.0499595426
H   H89       1.0  0.71940  0.50000  0.38620  1.0000 0.1198402863
C   C234      1.0  0.74570  0.50000  0.31760  1.0000 -0.2702854742
O   O45       1.0  0.57758  0.50000  0.36238  1.0000 -0.6152914244
N   N45       1.0  0.68240  0.50000  0.25430  1.0000 -0.2073213887
H   H90       1.0  0.77690  0.50000  0.32550  1.0000 0.2684938875
C   C235      1.0  0.71040  0.00000  0.85260  1.0000 0.0499595426
H   H91       1.0  0.71940  0.00000  0.88620  1.0000 0.1198402863
C   C236      1.0  0.74570  0.00000  0.81760  1.0000 -0.2702854742
O   O46       1.0  0.57758  0.00000  0.86238  1.0000 -0.6152914244
N   N46       1.0  0.68240  0.00000  0.75430  1.0000 -0.2073213887
H   H92       1.0  0.77690  0.00000  0.82550  1.0000 0.2684938875
C   C237      1.0  0.21040  0.50000  0.85260  1.0000 0.0499595426
H   H93       1.0  0.21940  0.50000  0.88620  1.0000 0.1198402863
C   C238      1.0  0.24570  0.50000  0.81760  1.0000 -0.2702854742
O   O47       1.0  0.07758  0.50000  0.86238  1.0000 -0.6152914244
N   N47       1.0  0.18240  0.50000  0.75430  1.0000 -0.2073213887
H   H94       1.0  0.27690  0.50000  0.82550  1.0000 0.2684938875
C   C239      1.0  0.21040  0.00000  0.35260  1.0000 0.0499595426
H   H95       1.0  0.21940  0.00000  0.38620  1.0000 0.1198402863
C   C240      1.0  0.24570  0.00000  0.31760  1.0000 -0.2702854742
O   O48       1.0  0.07758  0.00000  0.36238  1.0000 -0.6152914244
N   N48       1.0  0.18240  0.00000  0.25430  1.0000 -0.2073213887
H   H96       1.0  0.27690  0.00000  0.32550  1.0000 0.2684938875
C   C241      1.0  0.28960  0.35260  0.50000  1.0000 -0.081407402
H   H97       1.0  0.28060  0.38620  0.50000  1.0000 0.1290558193
O   O49       1.0  0.42242  0.36238  0.50000  1.0000 -0.6138809343
H   H98       1.0  0.22310  0.32550  0.50000  1.0000 0.1198402863
C   C242      1.0  0.28960  0.85260  0.00000  1.0000 -0.081407402
H   H99       1.0  0.28060  0.88620  0.00000  1.0000 0.1290558193
O   O50       1.0  0.42242  0.86238  0.00000  1.0000 -0.6138809343
H   H100      1.0  0.22310  0.82550  0.00000  1.0000 0.1198402863
C   C243      1.0  0.78960  0.35260  0.00000  1.0000 -0.081407402
H   H101      1.0  0.78060  0.38620  0.00000  1.0000 0.1290558193
O   O51       1.0  0.92242  0.36238  0.00000  1.0000 -0.6138809343
H   H102      1.0  0.72310  0.32550  0.00000  1.0000 0.1198402863
C   C244      1.0  0.78960  0.85260  0.50000  1.0000 -0.081407402
H   H103      1.0  0.78060  0.88620  0.50000  1.0000 0.1290558193
O   O52       1.0  0.92242  0.86238  0.50000  1.0000 -0.6138809343
H   H104      1.0  0.72310  0.82550  0.50000  1.0000 0.1198402863
C   C245      1.0  0.71040  0.64740  0.50000  1.0000 -0.081407402
H   H105      1.0  0.71940  0.61380  0.50000  1.0000 0.1290558193
O   O53       1.0  0.57758  0.63762  0.50000  1.0000 -0.6138809343
H   H106      1.0  0.77690  0.67450  0.50000  1.0000 0.1198402863
C   C246      1.0  0.71040  0.14740  0.00000  1.0000 -0.081407402
H   H107      1.0  0.71940  0.11380  0.00000  1.0000 0.1290558193
O   O54       1.0  0.57758  0.13762  0.00000  1.0000 -0.6138809343
H   H108      1.0  0.77690  0.17450  0.00000  1.0000 0.1198402863
C   C247      1.0  0.21040  0.64740  0.00000  1.0000 -0.081407402
H   H109      1.0  0.21940  0.61380  0.00000  1.0000 0.1290558193
O   O55       1.0  0.07758  0.63762  0.00000  1.0000 -0.6138809343
H   H110      1.0  0.27690  0.67450  0.00000  1.0000 0.1198402863
C   C248      1.0  0.21040  0.14740  0.50000  1.0000 -0.081407402
H   H111      1.0  0.21940  0.11380  0.50000  1.0000 0.1290558193
O   O56       1.0  0.07758  0.13762  0.50000  1.0000 -0.6138809343
H   H112      1.0  0.27690  0.17450  0.50000  1.0000 0.1198402863
C   C249      1.0  0.28960  0.64740  0.50000  1.0000 -0.081407402
H   H113      1.0  0.28060  0.61380  0.50000  1.0000 0.1290558193
O   O57       1.0  0.42242  0.63762  0.50000  1.0000 -0.6138809343
H   H114      1.0  0.22310  0.67450  0.50000  1.0000 0.1198402863
C   C250      1.0  0.28960  0.14740  0.00000  1.0000 -0.081407402
H   H115      1.0  0.28060  0.11380  0.00000  1.0000 0.1290558193
O   O58       1.0  0.42242  0.13762  0.00000  1.0000 -0.6138809343
H   H116      1.0  0.22310  0.17450  0.00000  1.0000 0.1198402863
C   C251      1.0  0.78960  0.64740  0.00000  1.0000 -0.081407402
H   H117      1.0  0.78060  0.61380  0.00000  1.0000 0.1290558193
O   O59       1.0  0.92242  0.63762  0.00000  1.0000 -0.6138809343
H   H118      1.0  0.72310  0.67450  0.00000  1.0000 0.1198402863
C   C252      1.0  0.78960  0.14740  0.50000  1.0000 -0.081407402
H   H119      1.0  0.78060  0.11380  0.50000  1.0000 0.1290558193
O   O60       1.0  0.92242  0.13762  0.50000  1.0000 -0.6138809343
H   H120      1.0  0.72310  0.17450  0.50000  1.0000 0.1198402863
C   C253      1.0  0.71040  0.35260  0.50000  1.0000 -0.081407402
H   H121      1.0  0.71940  0.38620  0.50000  1.0000 0.1290558193
O   O61       1.0  0.57758  0.36238  0.50000  1.0000 -0.6138809343
H   H122      1.0  0.77690  0.32550  0.50000  1.0000 0.1198402863
C   C254      1.0  0.71040  0.85260  0.00000  1.0000 -0.081407402
H   H123      1.0  0.71940  0.88620  0.00000  1.0000 0.1290558193
O   O62       1.0  0.57758  0.86238  0.00000  1.0000 -0.6138809343
H   H124      1.0  0.77690  0.82550  0.00000  1.0000 0.1198402863
C   C255      1.0  0.21040  0.35260  0.00000  1.0000 -0.081407402
H   H125      1.0  0.21940  0.38620  0.00000  1.0000 0.1290558193
O   O63       1.0  0.07758  0.36238  0.00000  1.0000 -0.6138809343
H   H126      1.0  0.27690  0.32550  0.00000  1.0000 0.1198402863
C   C256      1.0  0.21040  0.85260  0.50000  1.0000 -0.081407402
H   H127      1.0  0.21940  0.88620  0.50000  1.0000 0.1290558193
O   O64       1.0  0.07758  0.86238  0.50000  1.0000 -0.6138809343
H   H128      1.0  0.27690  0.82550  0.50000  1.0000 0.1198402863
C   C257      1.0  0.35260  0.50000  0.71040  1.0000 -0.081407402
H   H129      1.0  0.38620  0.50000  0.71940  1.0000 0.1290558193
O   O65       1.0  0.36238  0.50000  0.57758  1.0000 -0.6138809343
H   H130      1.0  0.32550  0.50000  0.77690  1.0000 0.1198402863
C   C258      1.0  0.35260  0.00000  0.21040  1.0000 -0.081407402
H   H131      1.0  0.38620  0.00000  0.21940  1.0000 0.1290558193
O   O66       1.0  0.36238  0.00000  0.07758  1.0000 -0.6152914244
H   H132      1.0  0.32550  0.00000  0.27690  1.0000 0.1198402863
C   C259      1.0  0.85260  0.50000  0.21040  1.0000 -0.081407402
H   H133      1.0  0.88620  0.50000  0.21940  1.0000 0.1290558193
O   O67       1.0  0.86238  0.50000  0.07758  1.0000 -0.6138809343
H   H134      1.0  0.82550  0.50000  0.27690  1.0000 0.1198402863
C   C260      1.0  0.85260  0.00000  0.71040  1.0000 -0.081407402
H   H135      1.0  0.88620  0.00000  0.71940  1.0000 0.1290558193
O   O68       1.0  0.86238  0.00000  0.57758  1.0000 -0.6152914244
H   H136      1.0  0.82550  0.00000  0.77690  1.0000 0.1198402863
C   C261      1.0  0.64740  0.50000  0.28960  1.0000 -0.081407402
H   H137      1.0  0.61380  0.50000  0.28060  1.0000 0.1290558193
O   O69       1.0  0.63762  0.50000  0.42242  1.0000 -0.6138809343
H   H138      1.0  0.67450  0.50000  0.22310  1.0000 0.1198402863
C   C262      1.0  0.64740  0.00000  0.78960  1.0000 -0.081407402
H   H139      1.0  0.61380  0.00000  0.78060  1.0000 0.1290558193
O   O70       1.0  0.63762  0.00000  0.92242  1.0000 -0.6152914244
H   H140      1.0  0.67450  0.00000  0.72310  1.0000 0.1198402863
C   C263      1.0  0.14740  0.50000  0.78960  1.0000 -0.081407402
H   H141      1.0  0.11380  0.50000  0.78060  1.0000 0.1290558193
O   O71       1.0  0.13762  0.50000  0.92242  1.0000 -0.6138809343
H   H142      1.0  0.17450  0.50000  0.72310  1.0000 0.1198402863
C   C264      1.0  0.14740  0.00000  0.28960  1.0000 -0.081407402
H   H143      1.0  0.11380  0.00000  0.28060  1.0000 0.1290558193
O   O72       1.0  0.13762  0.00000  0.42242  1.0000 -0.6152914244
H   H144      1.0  0.17450  0.00000  0.22310  1.0000 0.1198402863
C   C265      1.0  0.64740  0.50000  0.71040  1.0000 -0.081407402
H   H145      1.0  0.61380  0.50000  0.71940  1.0000 0.1290558193
O   O73       1.0  0.63762  0.50000  0.57758  1.0000 -0.6138809343
H   H146      1.0  0.67450  0.50000  0.77690  1.0000 0.1198402863
C   C266      1.0  0.64740  0.00000  0.21040  1.0000 -0.081407402
H   H147      1.0  0.61380  0.00000  0.21940  1.0000 0.1290558193
O   O74       1.0  0.63762  0.00000  0.07758  1.0000 -0.6138809343
H   H148      1.0  0.67450  0.00000  0.27690  1.0000 0.1198402863
C   C267      1.0  0.14740  0.50000  0.21040  1.0000 -0.081407402
H   H149      1.0  0.11380  0.50000  0.21940  1.0000 0.1290558193
O   O75       1.0  0.13762  0.50000  0.07758  1.0000 -0.6138809343
H   H150      1.0  0.17450  0.50000  0.27690  1.0000 0.1198402863
C   C268      1.0  0.14740  0.00000  0.71040  1.0000 -0.081407402
H   H151      1.0  0.11380  0.00000  0.71940  1.0000 0.1290558193
O   O76       1.0  0.13762  0.00000  0.57758  1.0000 -0.6152914244
H   H152      1.0  0.17450  0.00000  0.77690  1.0000 0.1198402863
C   C269      1.0  0.35260  0.50000  0.28960  1.0000 -0.081407402
H   H153      1.0  0.38620  0.50000  0.28060  1.0000 0.1290558193
O   O77       1.0  0.36238  0.50000  0.42242  1.0000 -0.6138809343
H   H154      1.0  0.32550  0.50000  0.22310  1.0000 0.1198402863
C   C270      1.0  0.35260  0.00000  0.78960  1.0000 -0.081407402
H   H155      1.0  0.38620  0.00000  0.78060  1.0000 0.1290558193
O   O78       1.0  0.36238  0.00000  0.92242  1.0000 -0.6152914244
H   H156      1.0  0.32550  0.00000  0.72310  1.0000 0.1198402863
C   C271      1.0  0.85260  0.50000  0.78960  1.0000 -0.081407402
H   H157      1.0  0.88620  0.50000  0.78060  1.0000 0.1290558193
O   O79       1.0  0.86238  0.50000  0.92242  1.0000 -0.6138809343
H   H158      1.0  0.82550  0.50000  0.72310  1.0000 0.1198402863
C   C272      1.0  0.85260  0.00000  0.28960  1.0000 -0.081407402
H   H159      1.0  0.88620  0.00000  0.28060  1.0000 0.1290558193
O   O80       1.0  0.86238  0.00000  0.42242  1.0000 -0.6152914244
H   H160      1.0  0.82550  0.00000  0.22310  1.0000 0.1198402863
C   C273      1.0  0.50000  0.28960  0.64740  1.0000 -0.081407402
H   H161      1.0  0.50000  0.28060  0.61380  1.0000 0.1290558193
O   O81       1.0  0.50000  0.42242  0.63762  1.0000 -0.6138809343
H   H162      1.0  0.50000  0.22310  0.67450  1.0000 0.1198402863
C   C274      1.0  0.50000  0.78960  0.14740  1.0000 -0.081407402
H   H163      1.0  0.50000  0.78060  0.11380  1.0000 0.1290558193
O   O82       1.0  0.50000  0.92242  0.13762  1.0000 -0.6138809343
H   H164      1.0  0.50000  0.72310  0.17450  1.0000 0.1198402863
C   C275      1.0  0.00000  0.28960  0.14740  1.0000 -0.081407402
H   H165      1.0  0.00000  0.28060  0.11380  1.0000 0.1290558193
O   O83       1.0  0.00000  0.42242  0.13762  1.0000 -0.6152914244
H   H166      1.0  0.00000  0.22310  0.17450  1.0000 0.1198402863
C   C276      1.0  0.00000  0.78960  0.64740  1.0000 -0.081407402
H   H167      1.0  0.00000  0.78060  0.61380  1.0000 0.1290558193
O   O84       1.0  0.00000  0.92242  0.63762  1.0000 -0.6152914244
H   H168      1.0  0.00000  0.72310  0.67450  1.0000 0.1198402863
C   C277      1.0  0.50000  0.71040  0.35260  1.0000 -0.081407402
H   H169      1.0  0.50000  0.71940  0.38620  1.0000 0.1290558193
O   O85       1.0  0.50000  0.57758  0.36238  1.0000 -0.6138809343
H   H170      1.0  0.50000  0.77690  0.32550  1.0000 0.1198402863
C   C278      1.0  0.50000  0.21040  0.85260  1.0000 -0.081407402
H   H171      1.0  0.50000  0.21940  0.88620  1.0000 0.1290558193
O   O86       1.0  0.50000  0.07758  0.86238  1.0000 -0.6138809343
H   H172      1.0  0.50000  0.27690  0.82550  1.0000 0.1198402863
C   C279      1.0  0.00000  0.71040  0.85260  1.0000 -0.081407402
H   H173      1.0  0.00000  0.71940  0.88620  1.0000 0.1290558193
O   O87       1.0  0.00000  0.57758  0.86238  1.0000 -0.6138809343
H   H174      1.0  0.00000  0.77690  0.82550  1.0000 0.1198402863
C   C280      1.0  0.00000  0.21040  0.35260  1.0000 -0.081407402
H   H175      1.0  0.00000  0.21940  0.38620  1.0000 0.1290558193
O   O88       1.0  0.00000  0.07758  0.36238  1.0000 -0.6152914244
H   H176      1.0  0.00000  0.27690  0.32550  1.0000 0.1198402863
C   C281      1.0  0.50000  0.28960  0.35260  1.0000 -0.081407402
H   H177      1.0  0.50000  0.28060  0.38620  1.0000 0.1290558193
O   O89       1.0  0.50000  0.42242  0.36238  1.0000 -0.6138809343
H   H178      1.0  0.50000  0.22310  0.32550  1.0000 0.1198402863
C   C282      1.0  0.50000  0.78960  0.85260  1.0000 -0.081407402
H   H179      1.0  0.50000  0.78060  0.88620  1.0000 0.1290558193
O   O90       1.0  0.50000  0.92242  0.86238  1.0000 -0.6138809343
H   H180      1.0  0.50000  0.72310  0.82550  1.0000 0.1198402863
C   C283      1.0  0.00000  0.28960  0.85260  1.0000 -0.081407402
H   H181      1.0  0.00000  0.28060  0.88620  1.0000 0.1290558193
O   O91       1.0  0.00000  0.42242  0.86238  1.0000 -0.6152914244
H   H182      1.0  0.00000  0.22310  0.82550  1.0000 0.1198402863
C   C284      1.0  0.00000  0.78960  0.35260  1.0000 -0.081407402
H   H183      1.0  0.00000  0.78060  0.38620  1.0000 0.1290558193
O   O92       1.0  0.00000  0.92242  0.36238  1.0000 -0.6152914244
H   H184      1.0  0.00000  0.72310  0.32550  1.0000 0.1198402863
C   C285      1.0  0.50000  0.71040  0.64740  1.0000 -0.081407402
H   H185      1.0  0.50000  0.71940  0.61380  1.0000 0.1290558193
O   O93       1.0  0.50000  0.57758  0.63762  1.0000 -0.6138809343
H   H186      1.0  0.50000  0.77690  0.67450  1.0000 0.1198402863
C   C286      1.0  0.50000  0.21040  0.14740  1.0000 -0.081407402
H   H187      1.0  0.50000  0.21940  0.11380  1.0000 0.1290558193
O   O94       1.0  0.50000  0.07758  0.13762  1.0000 -0.6138809343
H   H188      1.0  0.50000  0.27690  0.17450  1.0000 0.1198402863
C   C287      1.0  0.00000  0.71040  0.14740  1.0000 -0.081407402
H   H189      1.0  0.00000  0.71940  0.11380  1.0000 0.1290558193
O   O95       1.0  0.00000  0.57758  0.13762  1.0000 -0.6152914244
H   H190      1.0  0.00000  0.77690  0.17450  1.0000 0.1198402863
C   C288      1.0  0.00000  0.21040  0.64740  1.0000 -0.081407402
H   H191      1.0  0.00000  0.21940  0.61380  1.0000 0.1290558193
O   O96       1.0  0.00000  0.07758  0.63762  1.0000 -0.6152914244
H   H192      1.0  0.00000  0.27690  0.67450  1.0000 0.1198402863
O   O97       1.0  0.45328  0.54672  0.54672  1.0000 -0.9646653833
O   O98       1.0  0.45328  0.04672  0.04672  1.0000 -0.9663946331
O   O99       1.0  0.95328  0.54672  0.04672  1.0000 -0.9646653833
O   O100      1.0  0.95328  0.04672  0.54672  1.0000 -0.9663946331
O   O101      1.0  0.54672  0.45328  0.54672  1.0000 -0.9663946331
O   O102      1.0  0.54672  0.95328  0.04672  1.0000 -0.9646653833
O   O103      1.0  0.04672  0.45328  0.04672  1.0000 -0.9646653833
O   O104      1.0  0.04672  0.95328  0.54672  1.0000 -0.9646653833
O   O105      1.0  0.54672  0.54672  0.45328  1.0000 -0.9646653833
O   O106      1.0  0.54672  0.04672  0.95328  1.0000 -0.9663946331
O   O107      1.0  0.04672  0.54672  0.95328  1.0000 -0.9663946331
O   O108      1.0  0.04672  0.04672  0.45328  1.0000 -0.9663946331
O   O109      1.0  0.45328  0.45328  0.45328  1.0000 -0.9646653833
O   O110      1.0  0.45328  0.95328  0.95328  1.0000 -0.9663946331
O   O111      1.0  0.95328  0.45328  0.95328  1.0000 -0.9663946331
O   O112      1.0  0.95328  0.95328  0.45328  1.0000 -0.9646653833
O   O113      1.0  0.54672  0.45328  0.45328  1.0000 -0.9646653833
O   O114      1.0  0.54672  0.95328  0.95328  1.0000 -0.9663946331
O   O115      1.0  0.04672  0.45328  0.95328  1.0000 -0.9663946331
O   O116      1.0  0.04672  0.95328  0.45328  1.0000 -0.9646653833
O   O117      1.0  0.45328  0.54672  0.45328  1.0000 -0.9646653833
O   O118      1.0  0.45328  0.04672  0.95328  1.0000 -0.9663946331
O   O119      1.0  0.95328  0.54672  0.95328  1.0000 -0.9663946331
O   O120      1.0  0.95328  0.04672  0.45328  1.0000 -0.9663946331
O   O121      1.0  0.54672  0.54672  0.54672  1.0000 -0.9646653833
O   O122      1.0  0.54672  0.04672  0.04672  1.0000 -0.9646653833
O   O123      1.0  0.04672  0.54672  0.04672  1.0000 -0.9646653833
O   O124      1.0  0.04672  0.04672  0.54672  1.0000 -0.9663946331
O   O125      1.0  0.45328  0.45328  0.54672  1.0000 -0.9663946331
O   O126      1.0  0.45328  0.95328  0.04672  1.0000 -0.9646653833
O   O127      1.0  0.95328  0.45328  0.04672  1.0000 -0.9646653833
O   O128      1.0  0.95328  0.95328  0.54672  1.0000 -0.9646653833
