# DDEC6 charges by PACMAN v1.1 (https://github.com/mtap-research/PACMAN-charge/)
data_2019[Cd][sql]2[ASR]4
_chemical_formula_sum              "Cd16 H176 C288 N16 O48"
_cell_length_a       9.9638
_cell_length_b       20.7834
_cell_length_c       39.8759
_cell_angle_alpha    90
_cell_angle_beta     90
_cell_angle_gamma    90

_symmetry_space_group_name_H-M    "P 1"
_symmetry_Int_Tables_number       1

loop_
  _symmetry_equiv_pos_as_xyz
  'x, y, z'

loop_
  _atom_site_type_symbol
  _atom_site_label
  _atom_site_symmetry_multiplicity
  _atom_site_fract_x
  _atom_site_fract_y
  _atom_site_fract_z
  _atom_site_occupancy
  _atom_site_charge
Cd  Cd1       1.0  0.45627  0.03651  0.04057  1.0000 0.8680207848
Cd  Cd2       1.0  0.91725  0.22472  0.80347  1.0000 1.0154662847
Cd  Cd3       1.0  0.95627  0.96349  0.45943  1.0000 0.8680207848
Cd  Cd4       1.0  0.41725  0.77528  0.69653  1.0000 1.0154662847
Cd  Cd5       1.0  0.54373  0.96349  0.95943  1.0000 0.8680207848
Cd  Cd6       1.0  0.08275  0.77528  0.19653  1.0000 1.0154662847
Cd  Cd7       1.0  0.04373  0.03651  0.54057  1.0000 0.8680207848
Cd  Cd8       1.0  0.58275  0.22472  0.30347  1.0000 1.0154662847
Cd  Cd9       1.0  0.54373  0.46349  0.54057  1.0000 0.8680207848
Cd  Cd10      1.0  0.08275  0.27528  0.30347  1.0000 1.0154662847
Cd  Cd11      1.0  0.04373  0.53651  0.95943  1.0000 0.8680207848
Cd  Cd12      1.0  0.58275  0.72472  0.19653  1.0000 1.0154662847
Cd  Cd13      1.0  0.45627  0.53651  0.45943  1.0000 0.8680207848
Cd  Cd14      1.0  0.91725  0.72472  0.69653  1.0000 1.0154662847
Cd  Cd15      1.0  0.95627  0.46349  0.04057  1.0000 0.8680207848
Cd  Cd16      1.0  0.41725  0.27528  0.80347  1.0000 1.0154662847
H   H1        1.0  0.31371  0.09040  0.09690  1.0000 0.1203760149
H   H2        1.0  0.24647  0.00311  0.93343  1.0000 0.1279275188
H   H3        1.0  0.44500  0.13973  0.98604  1.0000 0.1203760149
H   H4        1.0  0.09007  0.15828  0.11868  1.0000 0.111881583
H   H5        1.0  0.51719  0.26411  0.96909  1.0000 0.111881583
H   H6        1.0  0.87707  0.12153  0.02311  1.0000 0.1203760149
H   H7        1.0  0.02483  0.03200  0.92279  1.0000 0.1203760149
H   H8        1.0  0.97386  0.13692  0.07517  1.0000 0.111881583
H   H9        1.0  0.22189  0.24252  0.22003  1.0000 0.1279275188
H   H10       1.0  0.41205  0.09829  0.14470  1.0000 0.1203760149
H   H11       1.0  0.85920  0.24131  0.11019  1.0000 0.1203760149
H   H12       1.0  0.89644  0.08285  0.96252  1.0000 0.1203760149
H   H13       1.0  0.11095  0.21706  0.17108  1.0000 0.1203760149
H   H14       1.0  0.21174  0.31737  0.88692  1.0000 0.1203760149
H   H15       1.0  0.83199  0.16522  0.15057  1.0000 0.1203760149
H   H16       1.0  0.19757  0.12224  0.89371  1.0000 0.1203760149
H   H17       1.0  0.69476  0.07675  0.14236  1.0000 0.1408167749
H   H18       1.0  0.52578  0.12592  0.19332  1.0000 0.1203760149
H   H19       1.0  0.67897  0.26754  0.00259  1.0000 0.1279275188
H   H20       1.0  0.37553  0.31859  0.92912  1.0000 0.111881583
H   H21       1.0  0.80278  0.27942  0.05097  1.0000 0.1203760149
H   H22       1.0  0.35289  0.12512  0.93626  1.0000 0.111881583
H   H23       1.0  0.81371  0.90960  0.40310  1.0000 0.1203760149
H   H24       1.0  0.74647  0.99689  0.56657  1.0000 0.1279275188
H   H25       1.0  0.94500  0.86027  0.51396  1.0000 0.1203760149
H   H26       1.0  0.59007  0.84172  0.38132  1.0000 0.111881583
H   H27       1.0  0.01719  0.73589  0.53091  1.0000 0.111881583
H   H28       1.0  0.37707  0.87847  0.47689  1.0000 0.1203760149
H   H29       1.0  0.52483  0.96800  0.57721  1.0000 0.1203760149
H   H30       1.0  0.47386  0.86308  0.42483  1.0000 0.111881583
H   H31       1.0  0.72189  0.75748  0.27997  1.0000 0.1279275188
H   H32       1.0  0.91205  0.90171  0.35530  1.0000 0.1203760149
H   H33       1.0  0.35920  0.75869  0.38981  1.0000 0.1203760149
H   H34       1.0  0.39644  0.91715  0.53748  1.0000 0.1203760149
H   H35       1.0  0.61095  0.78294  0.32892  1.0000 0.1203760149
H   H36       1.0  0.71174  0.68263  0.61308  1.0000 0.1203760149
H   H37       1.0  0.33199  0.83478  0.34943  1.0000 0.1203760149
H   H38       1.0  0.69757  0.87776  0.60629  1.0000 0.1203760149
H   H39       1.0  0.19476  0.92325  0.35764  1.0000 0.1408167749
H   H40       1.0  0.02578  0.87408  0.30668  1.0000 0.1203760149
H   H41       1.0  0.17897  0.73246  0.49741  1.0000 0.1279275188
H   H42       1.0  0.87553  0.68141  0.57088  1.0000 0.111881583
H   H43       1.0  0.30278  0.72058  0.44903  1.0000 0.1203760149
H   H44       1.0  0.85289  0.87488  0.56374  1.0000 0.111881583
H   H45       1.0  0.68629  0.90960  0.90310  1.0000 0.1203760149
H   H46       1.0  0.75353  0.99689  0.06657  1.0000 0.1279275188
H   H47       1.0  0.55500  0.86027  0.01396  1.0000 0.1203760149
H   H48       1.0  0.90993  0.84172  0.88132  1.0000 0.111881583
H   H49       1.0  0.48281  0.73589  0.03091  1.0000 0.111881583
H   H50       1.0  0.12293  0.87847  0.97689  1.0000 0.1203760149
H   H51       1.0  0.97517  0.96800  0.07721  1.0000 0.1203760149
H   H52       1.0  0.02614  0.86308  0.92483  1.0000 0.111881583
H   H53       1.0  0.77811  0.75748  0.77997  1.0000 0.1279275188
H   H54       1.0  0.58795  0.90171  0.85530  1.0000 0.1203760149
H   H55       1.0  0.14080  0.75869  0.88981  1.0000 0.1203760149
H   H56       1.0  0.10356  0.91715  0.03748  1.0000 0.1203760149
H   H57       1.0  0.88905  0.78294  0.82892  1.0000 0.1203760149
H   H58       1.0  0.78826  0.68263  0.11308  1.0000 0.1203760149
H   H59       1.0  0.16801  0.83478  0.84943  1.0000 0.1203760149
H   H60       1.0  0.80243  0.87776  0.10629  1.0000 0.1203760149
H   H61       1.0  0.30524  0.92325  0.85764  1.0000 0.1408167749
H   H62       1.0  0.47422  0.87408  0.80668  1.0000 0.1203760149
H   H63       1.0  0.32103  0.73246  0.99741  1.0000 0.1279275188
H   H64       1.0  0.62447  0.68141  0.07088  1.0000 0.111881583
H   H65       1.0  0.19722  0.72058  0.94903  1.0000 0.1203760149
H   H66       1.0  0.64711  0.87488  0.06374  1.0000 0.111881583
H   H67       1.0  0.18629  0.09040  0.59690  1.0000 0.1203760149
H   H68       1.0  0.25353  0.00311  0.43343  1.0000 0.1279275188
H   H69       1.0  0.05500  0.13973  0.48604  1.0000 0.1203760149
H   H70       1.0  0.40993  0.15828  0.61868  1.0000 0.111881583
H   H71       1.0  0.98281  0.26411  0.46909  1.0000 0.111881583
H   H72       1.0  0.62293  0.12153  0.52311  1.0000 0.1203760149
H   H73       1.0  0.47517  0.03200  0.42279  1.0000 0.1203760149
H   H74       1.0  0.52614  0.13692  0.57517  1.0000 0.111881583
H   H75       1.0  0.27811  0.24252  0.72003  1.0000 0.1279275188
H   H76       1.0  0.08795  0.09829  0.64470  1.0000 0.1203760149
H   H77       1.0  0.64080  0.24131  0.61019  1.0000 0.1203760149
H   H78       1.0  0.60356  0.08285  0.46252  1.0000 0.1203760149
H   H79       1.0  0.38905  0.21706  0.67108  1.0000 0.1203760149
H   H80       1.0  0.28826  0.31737  0.38692  1.0000 0.1203760149
H   H81       1.0  0.66801  0.16522  0.65057  1.0000 0.1203760149
H   H82       1.0  0.30243  0.12224  0.39371  1.0000 0.1203760149
H   H83       1.0  0.80524  0.07675  0.64236  1.0000 0.1408167749
H   H84       1.0  0.97422  0.12592  0.69332  1.0000 0.1203760149
H   H85       1.0  0.82103  0.26754  0.50259  1.0000 0.1279275188
H   H86       1.0  0.12447  0.31859  0.42912  1.0000 0.111881583
H   H87       1.0  0.69722  0.27942  0.55097  1.0000 0.1203760149
H   H88       1.0  0.14711  0.12512  0.43626  1.0000 0.111881583
H   H89       1.0  0.68629  0.40960  0.59690  1.0000 0.1203760149
H   H90       1.0  0.75353  0.49689  0.43343  1.0000 0.1279275188
H   H91       1.0  0.55500  0.36027  0.48604  1.0000 0.1203760149
H   H92       1.0  0.90993  0.34172  0.61868  1.0000 0.111881583
H   H93       1.0  0.48281  0.23589  0.46909  1.0000 0.111881583
H   H94       1.0  0.12293  0.37847  0.52311  1.0000 0.1203760149
H   H95       1.0  0.97517  0.46800  0.42279  1.0000 0.1203760149
H   H96       1.0  0.02614  0.36308  0.57517  1.0000 0.111881583
H   H97       1.0  0.77811  0.25748  0.72003  1.0000 0.1279275188
H   H98       1.0  0.58795  0.40171  0.64470  1.0000 0.1203760149
H   H99       1.0  0.14080  0.25869  0.61019  1.0000 0.1203760149
H   H100      1.0  0.10356  0.41715  0.46252  1.0000 0.1203760149
H   H101      1.0  0.88905  0.28294  0.67108  1.0000 0.1203760149
H   H102      1.0  0.78826  0.18263  0.38692  1.0000 0.1203760149
H   H103      1.0  0.16801  0.33478  0.65057  1.0000 0.1203760149
H   H104      1.0  0.80243  0.37776  0.39371  1.0000 0.1203760149
H   H105      1.0  0.30524  0.42325  0.64236  1.0000 0.1408167749
H   H106      1.0  0.47422  0.37408  0.69332  1.0000 0.1203760149
H   H107      1.0  0.32103  0.23246  0.50259  1.0000 0.1279275188
H   H108      1.0  0.62447  0.18141  0.42912  1.0000 0.111881583
H   H109      1.0  0.19722  0.22058  0.55097  1.0000 0.1203760149
H   H110      1.0  0.64711  0.37488  0.43626  1.0000 0.111881583
H   H111      1.0  0.18629  0.59040  0.90310  1.0000 0.1203760149
H   H112      1.0  0.25353  0.50311  0.06657  1.0000 0.1279275188
H   H113      1.0  0.05500  0.63973  0.01396  1.0000 0.1203760149
H   H114      1.0  0.40993  0.65828  0.88132  1.0000 0.111881583
H   H115      1.0  0.98281  0.76411  0.03091  1.0000 0.111881583
H   H116      1.0  0.62293  0.62153  0.97689  1.0000 0.1203760149
H   H117      1.0  0.47517  0.53200  0.07721  1.0000 0.1203760149
H   H118      1.0  0.52614  0.63692  0.92483  1.0000 0.111881583
H   H119      1.0  0.27811  0.74252  0.77997  1.0000 0.1279275188
H   H120      1.0  0.08795  0.59829  0.85530  1.0000 0.1203760149
H   H121      1.0  0.64080  0.74131  0.88981  1.0000 0.1203760149
H   H122      1.0  0.60356  0.58285  0.03748  1.0000 0.1203760149
H   H123      1.0  0.38905  0.71706  0.82892  1.0000 0.1203760149
H   H124      1.0  0.28826  0.81737  0.11308  1.0000 0.1203760149
H   H125      1.0  0.66801  0.66522  0.84943  1.0000 0.1203760149
H   H126      1.0  0.30243  0.62224  0.10629  1.0000 0.1203760149
H   H127      1.0  0.80524  0.57675  0.85764  1.0000 0.1408167749
H   H128      1.0  0.97422  0.62592  0.80668  1.0000 0.1203760149
H   H129      1.0  0.82103  0.76754  0.99741  1.0000 0.1279275188
H   H130      1.0  0.12447  0.81859  0.07088  1.0000 0.111881583
H   H131      1.0  0.69722  0.77942  0.94903  1.0000 0.1203760149
H   H132      1.0  0.14711  0.62512  0.06374  1.0000 0.111881583
H   H133      1.0  0.31371  0.59040  0.40310  1.0000 0.1203760149
H   H134      1.0  0.24647  0.50311  0.56657  1.0000 0.1279275188
H   H135      1.0  0.44500  0.63973  0.51396  1.0000 0.1203760149
H   H136      1.0  0.09007  0.65828  0.38132  1.0000 0.111881583
H   H137      1.0  0.51719  0.76411  0.53091  1.0000 0.111881583
H   H138      1.0  0.87707  0.62153  0.47689  1.0000 0.1203760149
H   H139      1.0  0.02483  0.53200  0.57721  1.0000 0.1203760149
H   H140      1.0  0.97386  0.63692  0.42483  1.0000 0.111881583
H   H141      1.0  0.22189  0.74252  0.27997  1.0000 0.1279275188
H   H142      1.0  0.41205  0.59829  0.35530  1.0000 0.1203760149
H   H143      1.0  0.85920  0.74131  0.38981  1.0000 0.1203760149
H   H144      1.0  0.89644  0.58285  0.53748  1.0000 0.1203760149
H   H145      1.0  0.11095  0.71706  0.32892  1.0000 0.1203760149
H   H146      1.0  0.21174  0.81737  0.61308  1.0000 0.1203760149
H   H147      1.0  0.83199  0.66522  0.34943  1.0000 0.1203760149
H   H148      1.0  0.19757  0.62224  0.60629  1.0000 0.1203760149
H   H149      1.0  0.69476  0.57675  0.35764  1.0000 0.1408167749
H   H150      1.0  0.52578  0.62592  0.30668  1.0000 0.1203760149
H   H151      1.0  0.67897  0.76754  0.49741  1.0000 0.1279275188
H   H152      1.0  0.37553  0.81859  0.57088  1.0000 0.111881583
H   H153      1.0  0.80278  0.77942  0.44903  1.0000 0.1203760149
H   H154      1.0  0.35289  0.62512  0.56374  1.0000 0.111881583
H   H155      1.0  0.81371  0.40960  0.09690  1.0000 0.1203760149
H   H156      1.0  0.74647  0.49689  0.93343  1.0000 0.1279275188
H   H157      1.0  0.94500  0.36027  0.98604  1.0000 0.1203760149
H   H158      1.0  0.59007  0.34172  0.11868  1.0000 0.111881583
H   H159      1.0  0.01719  0.23589  0.96909  1.0000 0.111881583
H   H160      1.0  0.37707  0.37847  0.02311  1.0000 0.1203760149
H   H161      1.0  0.52483  0.46800  0.92279  1.0000 0.1203760149
H   H162      1.0  0.47386  0.36308  0.07517  1.0000 0.111881583
H   H163      1.0  0.72189  0.25748  0.22003  1.0000 0.1279275188
H   H164      1.0  0.91205  0.40171  0.14470  1.0000 0.1203760149
H   H165      1.0  0.35920  0.25869  0.11019  1.0000 0.1203760149
H   H166      1.0  0.39644  0.41715  0.96252  1.0000 0.1203760149
H   H167      1.0  0.61095  0.28294  0.17108  1.0000 0.1203760149
H   H168      1.0  0.71174  0.18263  0.88692  1.0000 0.1203760149
H   H169      1.0  0.33199  0.33478  0.15057  1.0000 0.1203760149
H   H170      1.0  0.69757  0.37776  0.89371  1.0000 0.1203760149
H   H171      1.0  0.19476  0.42325  0.14236  1.0000 0.1408167749
H   H172      1.0  0.02578  0.37408  0.19332  1.0000 0.1203760149
H   H173      1.0  0.17897  0.23246  0.00259  1.0000 0.1279275188
H   H174      1.0  0.87553  0.18141  0.92912  1.0000 0.111881583
H   H175      1.0  0.30278  0.22058  0.05097  1.0000 0.1203760149
H   H176      1.0  0.85289  0.37488  0.93626  1.0000 0.111881583
C   C1        1.0  0.17390  0.06460  0.00699  1.0000 0.071518121
C   C2        1.0  0.57880  0.18550  0.01781  1.0000 0.2659317969
C   C3        1.0  0.15870  0.09970  0.06241  1.0000 0.2565361938
C   C4        1.0  0.72970  0.20160  0.07522  1.0000 0.0503988761
C   C5        1.0  0.22730  0.10910  0.09449  1.0000 -0.193545203
C   C6        1.0  0.64100  0.14740  0.07081  1.0000 0.0503988761
C   C7        1.0  0.04080  0.08240  0.00027  1.0000 0.0503988761
C   C8        1.0  0.19550  0.02330  0.95060  1.0000 -0.2495517277
C   C9        1.0  0.49000  0.17960  0.98906  1.0000 -0.193545203
C   C10       1.0  0.17870  0.14180  0.12068  1.0000 -0.1117522226
C   C11       1.0  0.46680  0.22560  0.96669  1.0000 -0.1180535502
C   C12       1.0  0.96780  0.10930  0.02666  1.0000 -0.1016594233
C   C13       1.0  0.37240  0.22310  0.93888  1.0000 0.111881583
C   C14       1.0  0.06240  0.04090  0.94419  1.0000 -0.0643403486
C   C15       1.0  0.02430  0.11840  0.05741  1.0000 -0.1803182897
C   C16       1.0  0.26130  0.21290  0.20479  1.0000 -0.0901254046
C   C17       1.0  0.37250  0.12810  0.15982  1.0000 -0.1438169361
C   C18       1.0  0.80050  0.20610  0.10630  1.0000 -0.1994092384
C   C19       1.0  0.98580  0.07030  0.96763  1.0000 -0.1994092384
C   C20       1.0  0.19550  0.19770  0.17554  1.0000 -0.1522421495
C   C21       1.0  0.38260  0.18590  0.21219  1.0000 -0.0033566943
C   C22       1.0  0.62660  0.10000  0.09564  1.0000 0.2533525049
C   C23       1.0  0.23980  0.27830  0.89714  1.0000 -0.0901254046
C   C24       1.0  0.78490  0.16100  0.13000  1.0000 -0.0771385127
C   C25       1.0  0.23110  0.16240  0.90140  1.0000 -0.0901254046
C   C26       1.0  0.70140  0.10820  0.12515  1.0000 -0.2263349772
C   C27       1.0  0.25440  0.03470  0.98146  1.0000 0.2430562346
C   C28       1.0  0.46130  0.19860  0.24436  1.0000 0.5479804917
C   C29       1.0  0.24920  0.15460  0.15211  1.0000 0.111881583
C   C30       1.0  0.43980  0.14390  0.18902  1.0000 -0.1016594233
C   C31       1.0  0.66930  0.23770  0.02048  1.0000 -0.1803182897
C   C32       1.0  0.33540  0.27900  0.92273  1.0000 -0.1563692496
C   C33       1.0  0.74200  0.24440  0.04900  1.0000 -0.1016594233
C   C34       1.0  0.18640  0.22000  0.88681  1.0000 -0.019839529
C   C35       1.0  0.08880  0.21790  0.85840  1.0000 0.5479804917
C   C36       1.0  0.32220  0.16430  0.92660  1.0000 -0.1285887391
C   C37       1.0  0.67390  0.93540  0.49301  1.0000 0.071518121
C   C38       1.0  0.07880  0.81450  0.48219  1.0000 0.2659317969
C   C39       1.0  0.65870  0.90030  0.43759  1.0000 0.2565361938
C   C40       1.0  0.22970  0.79840  0.42478  1.0000 0.0503988761
C   C41       1.0  0.72730  0.89090  0.40551  1.0000 -0.193545203
C   C42       1.0  0.14100  0.85260  0.42919  1.0000 0.0503988761
C   C43       1.0  0.54080  0.91760  0.49973  1.0000 0.0503988761
C   C44       1.0  0.69550  0.97670  0.54940  1.0000 -0.2495517277
C   C45       1.0  0.99000  0.82040  0.51094  1.0000 -0.193545203
C   C46       1.0  0.67870  0.85820  0.37932  1.0000 -0.1117522226
C   C47       1.0  0.96680  0.77440  0.53331  1.0000 -0.1180535502
C   C48       1.0  0.46780  0.89070  0.47334  1.0000 -0.1016594233
C   C49       1.0  0.87240  0.77690  0.56112  1.0000 0.111881583
C   C50       1.0  0.56240  0.95910  0.55581  1.0000 -0.0643403486
C   C51       1.0  0.52430  0.88160  0.44259  1.0000 -0.1803182897
C   C52       1.0  0.76130  0.78710  0.29521  1.0000 -0.0901254046
C   C53       1.0  0.87250  0.87190  0.34018  1.0000 -0.1438169361
C   C54       1.0  0.30050  0.79390  0.39370  1.0000 -0.1994092384
C   C55       1.0  0.48580  0.92970  0.53237  1.0000 -0.1994092384
C   C56       1.0  0.69550  0.80230  0.32446  1.0000 -0.1522421495
C   C57       1.0  0.88260  0.81410  0.28781  1.0000 -0.0033566943
C   C58       1.0  0.12660  0.90000  0.40436  1.0000 0.2533525049
C   C59       1.0  0.73980  0.72170  0.60286  1.0000 -0.0901254046
C   C60       1.0  0.28490  0.83900  0.37000  1.0000 -0.0771385127
C   C61       1.0  0.73110  0.83760  0.59860  1.0000 -0.0901254046
C   C62       1.0  0.20140  0.89180  0.37485  1.0000 -0.2263349772
C   C63       1.0  0.75440  0.96530  0.51854  1.0000 0.2430562346
C   C64       1.0  0.96130  0.80140  0.25564  1.0000 0.5479804917
C   C65       1.0  0.74920  0.84540  0.34789  1.0000 0.111881583
C   C66       1.0  0.93980  0.85610  0.31098  1.0000 -0.1016594233
C   C67       1.0  0.16930  0.76230  0.47952  1.0000 -0.1803182897
C   C68       1.0  0.83540  0.72100  0.57727  1.0000 -0.1563692496
C   C69       1.0  0.24200  0.75560  0.45100  1.0000 -0.1016594233
C   C70       1.0  0.68640  0.78000  0.61319  1.0000 -0.019839529
C   C71       1.0  0.58880  0.78210  0.64160  1.0000 0.5479804917
C   C72       1.0  0.82220  0.83570  0.57340  1.0000 -0.1285887391
C   C73       1.0  0.82610  0.93540  0.99301  1.0000 0.071518121
C   C74       1.0  0.42120  0.81450  0.98219  1.0000 0.2659317969
C   C75       1.0  0.84130  0.90030  0.93759  1.0000 0.2565361938
C   C76       1.0  0.27030  0.79840  0.92478  1.0000 0.0503988761
C   C77       1.0  0.77270  0.89090  0.90551  1.0000 -0.193545203
C   C78       1.0  0.35900  0.85260  0.92919  1.0000 0.0503988761
C   C79       1.0  0.95920  0.91760  0.99973  1.0000 0.0503988761
C   C80       1.0  0.80450  0.97670  0.04940  1.0000 -0.2495517277
C   C81       1.0  0.51000  0.82040  0.01094  1.0000 -0.193545203
C   C82       1.0  0.82130  0.85820  0.87932  1.0000 -0.1117522226
C   C83       1.0  0.53320  0.77440  0.03331  1.0000 -0.1180535502
C   C84       1.0  0.03220  0.89070  0.97334  1.0000 -0.1016594233
C   C85       1.0  0.62760  0.77690  0.06112  1.0000 0.111881583
C   C86       1.0  0.93760  0.95910  0.05581  1.0000 -0.0643403486
C   C87       1.0  0.97570  0.88160  0.94259  1.0000 -0.1803182897
C   C88       1.0  0.73870  0.78710  0.79521  1.0000 -0.0901254046
C   C89       1.0  0.62750  0.87190  0.84018  1.0000 -0.1438169361
C   C90       1.0  0.19950  0.79390  0.89370  1.0000 -0.1994092384
C   C91       1.0  0.01420  0.92970  0.03237  1.0000 -0.1994092384
C   C92       1.0  0.80450  0.80230  0.82446  1.0000 -0.1522421495
C   C93       1.0  0.61740  0.81410  0.78781  1.0000 -0.0033566943
C   C94       1.0  0.37340  0.90000  0.90436  1.0000 0.2533525049
C   C95       1.0  0.76020  0.72170  0.10286  1.0000 -0.0901254046
C   C96       1.0  0.21510  0.83900  0.87000  1.0000 -0.0771385127
C   C97       1.0  0.76890  0.83760  0.09860  1.0000 -0.0901254046
C   C98       1.0  0.29860  0.89180  0.87485  1.0000 -0.2263349772
C   C99       1.0  0.74560  0.96530  0.01854  1.0000 0.2430562346
C   C100      1.0  0.53870  0.80140  0.75564  1.0000 0.5479804917
C   C101      1.0  0.75080  0.84540  0.84789  1.0000 0.111881583
C   C102      1.0  0.56020  0.85610  0.81098  1.0000 -0.1016594233
C   C103      1.0  0.33070  0.76230  0.97952  1.0000 -0.1803182897
C   C104      1.0  0.66460  0.72100  0.07727  1.0000 -0.1563692496
C   C105      1.0  0.25800  0.75560  0.95100  1.0000 -0.1016594233
C   C106      1.0  0.81360  0.78000  0.11319  1.0000 -0.019839529
C   C107      1.0  0.91120  0.78210  0.14160  1.0000 0.5479804917
C   C108      1.0  0.67780  0.83570  0.07340  1.0000 -0.1285887391
C   C109      1.0  0.32610  0.06460  0.50699  1.0000 0.071518121
C   C110      1.0  0.92120  0.18550  0.51781  1.0000 0.2659317969
C   C111      1.0  0.34130  0.09970  0.56241  1.0000 0.2565361938
C   C112      1.0  0.77030  0.20160  0.57522  1.0000 0.0503988761
C   C113      1.0  0.27270  0.10910  0.59449  1.0000 -0.193545203
C   C114      1.0  0.85900  0.14740  0.57081  1.0000 0.0503988761
C   C115      1.0  0.45920  0.08240  0.50027  1.0000 0.0503988761
C   C116      1.0  0.30450  0.02330  0.45060  1.0000 -0.2495517277
C   C117      1.0  0.01000  0.17960  0.48906  1.0000 -0.193545203
C   C118      1.0  0.32130  0.14180  0.62068  1.0000 -0.1117522226
C   C119      1.0  0.03320  0.22560  0.46669  1.0000 -0.1180535502
C   C120      1.0  0.53220  0.10930  0.52666  1.0000 -0.1016594233
C   C121      1.0  0.12760  0.22310  0.43888  1.0000 0.111881583
C   C122      1.0  0.43760  0.04090  0.44419  1.0000 -0.0643403486
C   C123      1.0  0.47570  0.11840  0.55741  1.0000 -0.1803182897
C   C124      1.0  0.23870  0.21290  0.70479  1.0000 -0.0901254046
C   C125      1.0  0.12750  0.12810  0.65982  1.0000 -0.1438169361
C   C126      1.0  0.69950  0.20610  0.60630  1.0000 -0.1994092384
C   C127      1.0  0.51420  0.07030  0.46763  1.0000 -0.1994092384
C   C128      1.0  0.30450  0.19770  0.67554  1.0000 -0.1522421495
C   C129      1.0  0.11740  0.18590  0.71219  1.0000 -0.0033566943
C   C130      1.0  0.87340  0.10000  0.59564  1.0000 0.2533525049
C   C131      1.0  0.26020  0.27830  0.39714  1.0000 -0.0901254046
C   C132      1.0  0.71510  0.16100  0.63000  1.0000 -0.0771385127
C   C133      1.0  0.26890  0.16240  0.40140  1.0000 -0.0901254046
C   C134      1.0  0.79860  0.10820  0.62515  1.0000 -0.2263349772
C   C135      1.0  0.24560  0.03470  0.48146  1.0000 0.2430562346
C   C136      1.0  0.03870  0.19860  0.74436  1.0000 0.5479804917
C   C137      1.0  0.25080  0.15460  0.65211  1.0000 0.111881583
C   C138      1.0  0.06020  0.14390  0.68902  1.0000 -0.1016594233
C   C139      1.0  0.83070  0.23770  0.52048  1.0000 -0.1803182897
C   C140      1.0  0.16460  0.27900  0.42273  1.0000 -0.1563692496
C   C141      1.0  0.75800  0.24440  0.54900  1.0000 -0.1016594233
C   C142      1.0  0.31360  0.22000  0.38681  1.0000 -0.019839529
C   C143      1.0  0.41120  0.21790  0.35840  1.0000 0.5479804917
C   C144      1.0  0.17780  0.16430  0.42660  1.0000 -0.1285887391
C   C145      1.0  0.82610  0.43540  0.50699  1.0000 0.071518121
C   C146      1.0  0.42120  0.31450  0.51781  1.0000 0.2659317969
C   C147      1.0  0.84130  0.40030  0.56241  1.0000 0.2565361938
C   C148      1.0  0.27030  0.29840  0.57522  1.0000 0.0503988761
C   C149      1.0  0.77270  0.39090  0.59449  1.0000 -0.193545203
C   C150      1.0  0.35900  0.35260  0.57081  1.0000 0.0503988761
C   C151      1.0  0.95920  0.41760  0.50027  1.0000 0.0503988761
C   C152      1.0  0.80450  0.47670  0.45060  1.0000 -0.2495517277
C   C153      1.0  0.51000  0.32040  0.48906  1.0000 -0.193545203
C   C154      1.0  0.82130  0.35820  0.62068  1.0000 -0.1117522226
C   C155      1.0  0.53320  0.27440  0.46669  1.0000 -0.1180535502
C   C156      1.0  0.03220  0.39070  0.52666  1.0000 -0.1016594233
C   C157      1.0  0.62760  0.27690  0.43888  1.0000 0.111881583
C   C158      1.0  0.93760  0.45910  0.44419  1.0000 -0.0643403486
C   C159      1.0  0.97570  0.38160  0.55741  1.0000 -0.1803182897
C   C160      1.0  0.73870  0.28710  0.70479  1.0000 -0.0901254046
C   C161      1.0  0.62750  0.37190  0.65982  1.0000 -0.1438169361
C   C162      1.0  0.19950  0.29390  0.60630  1.0000 -0.1994092384
C   C163      1.0  0.01420  0.42970  0.46763  1.0000 -0.1994092384
C   C164      1.0  0.80450  0.30230  0.67554  1.0000 -0.1522421495
C   C165      1.0  0.61740  0.31410  0.71219  1.0000 -0.0033566943
C   C166      1.0  0.37340  0.40000  0.59564  1.0000 0.2533525049
C   C167      1.0  0.76020  0.22170  0.39714  1.0000 -0.0901254046
C   C168      1.0  0.21510  0.33900  0.63000  1.0000 -0.0771385127
C   C169      1.0  0.76890  0.33760  0.40140  1.0000 -0.0901254046
C   C170      1.0  0.29860  0.39180  0.62515  1.0000 -0.2263349772
C   C171      1.0  0.74560  0.46530  0.48146  1.0000 0.2430562346
C   C172      1.0  0.53870  0.30140  0.74436  1.0000 0.5479804917
C   C173      1.0  0.75080  0.34540  0.65211  1.0000 0.111881583
C   C174      1.0  0.56020  0.35610  0.68902  1.0000 -0.1016594233
C   C175      1.0  0.33070  0.26230  0.52048  1.0000 -0.1803182897
C   C176      1.0  0.66460  0.22100  0.42273  1.0000 -0.1563692496
C   C177      1.0  0.25800  0.25560  0.54900  1.0000 -0.1016594233
C   C178      1.0  0.81360  0.28000  0.38681  1.0000 -0.019839529
C   C179      1.0  0.91120  0.28210  0.35840  1.0000 0.5479804917
C   C180      1.0  0.67780  0.33570  0.42660  1.0000 -0.1285887391
C   C181      1.0  0.32610  0.56460  0.99301  1.0000 0.071518121
C   C182      1.0  0.92120  0.68550  0.98219  1.0000 0.2659317969
C   C183      1.0  0.34130  0.59970  0.93759  1.0000 0.2565361938
C   C184      1.0  0.77030  0.70160  0.92478  1.0000 0.0503988761
C   C185      1.0  0.27270  0.60910  0.90551  1.0000 -0.193545203
C   C186      1.0  0.85900  0.64740  0.92919  1.0000 0.0503988761
C   C187      1.0  0.45920  0.58240  0.99973  1.0000 0.0503988761
C   C188      1.0  0.30450  0.52330  0.04940  1.0000 -0.2495517277
C   C189      1.0  0.01000  0.67960  0.01094  1.0000 -0.193545203
C   C190      1.0  0.32130  0.64180  0.87932  1.0000 -0.1117522226
C   C191      1.0  0.03320  0.72560  0.03331  1.0000 -0.1180535502
C   C192      1.0  0.53220  0.60930  0.97334  1.0000 -0.1016594233
C   C193      1.0  0.12760  0.72310  0.06112  1.0000 0.111881583
C   C194      1.0  0.43760  0.54090  0.05581  1.0000 -0.0643403486
C   C195      1.0  0.47570  0.61840  0.94259  1.0000 -0.1803182897
C   C196      1.0  0.23870  0.71290  0.79521  1.0000 -0.0901254046
C   C197      1.0  0.12750  0.62810  0.84018  1.0000 -0.1438169361
C   C198      1.0  0.69950  0.70610  0.89370  1.0000 -0.1994092384
C   C199      1.0  0.51420  0.57030  0.03237  1.0000 -0.1994092384
C   C200      1.0  0.30450  0.69770  0.82446  1.0000 -0.1522421495
C   C201      1.0  0.11740  0.68590  0.78781  1.0000 -0.0033566943
C   C202      1.0  0.87340  0.60000  0.90436  1.0000 0.2533525049
C   C203      1.0  0.26020  0.77830  0.10286  1.0000 -0.0901254046
C   C204      1.0  0.71510  0.66100  0.87000  1.0000 -0.0771385127
C   C205      1.0  0.26890  0.66240  0.09860  1.0000 -0.0901254046
C   C206      1.0  0.79860  0.60820  0.87485  1.0000 -0.2263349772
C   C207      1.0  0.24560  0.53470  0.01854  1.0000 0.2430562346
C   C208      1.0  0.03870  0.69860  0.75564  1.0000 0.5479804917
C   C209      1.0  0.25080  0.65460  0.84789  1.0000 0.111881583
C   C210      1.0  0.06020  0.64390  0.81098  1.0000 -0.1016594233
C   C211      1.0  0.83070  0.73770  0.97952  1.0000 -0.1803182897
C   C212      1.0  0.16460  0.77900  0.07727  1.0000 -0.1563692496
C   C213      1.0  0.75800  0.74440  0.95100  1.0000 -0.1016594233
C   C214      1.0  0.31360  0.72000  0.11319  1.0000 -0.019839529
C   C215      1.0  0.41120  0.71790  0.14160  1.0000 0.5479804917
C   C216      1.0  0.17780  0.66430  0.07340  1.0000 -0.1285887391
C   C217      1.0  0.17390  0.56460  0.49301  1.0000 0.071518121
C   C218      1.0  0.57880  0.68550  0.48219  1.0000 0.2659317969
C   C219      1.0  0.15870  0.59970  0.43759  1.0000 0.2565361938
C   C220      1.0  0.72970  0.70160  0.42478  1.0000 0.0503988761
C   C221      1.0  0.22730  0.60910  0.40551  1.0000 -0.193545203
C   C222      1.0  0.64100  0.64740  0.42919  1.0000 0.0503988761
C   C223      1.0  0.04080  0.58240  0.49973  1.0000 0.0503988761
C   C224      1.0  0.19550  0.52330  0.54940  1.0000 -0.2495517277
C   C225      1.0  0.49000  0.67960  0.51094  1.0000 -0.193545203
C   C226      1.0  0.17870  0.64180  0.37932  1.0000 -0.1117522226
C   C227      1.0  0.46680  0.72560  0.53331  1.0000 -0.1180535502
C   C228      1.0  0.96780  0.60930  0.47334  1.0000 -0.1016594233
C   C229      1.0  0.37240  0.72310  0.56112  1.0000 0.111881583
C   C230      1.0  0.06240  0.54090  0.55581  1.0000 -0.0643403486
C   C231      1.0  0.02430  0.61840  0.44259  1.0000 -0.1803182897
C   C232      1.0  0.26130  0.71290  0.29521  1.0000 -0.0901254046
C   C233      1.0  0.37250  0.62810  0.34018  1.0000 -0.1438169361
C   C234      1.0  0.80050  0.70610  0.39370  1.0000 -0.1994092384
C   C235      1.0  0.98580  0.57030  0.53237  1.0000 -0.1994092384
C   C236      1.0  0.19550  0.69770  0.32446  1.0000 -0.1522421495
C   C237      1.0  0.38260  0.68590  0.28781  1.0000 -0.0033566943
C   C238      1.0  0.62660  0.60000  0.40436  1.0000 0.2533525049
C   C239      1.0  0.23980  0.77830  0.60286  1.0000 -0.0901254046
C   C240      1.0  0.78490  0.66100  0.37000  1.0000 -0.0771385127
C   C241      1.0  0.23110  0.66240  0.59860  1.0000 -0.0901254046
C   C242      1.0  0.70140  0.60820  0.37485  1.0000 -0.2263349772
C   C243      1.0  0.25440  0.53470  0.51854  1.0000 0.2430562346
C   C244      1.0  0.46130  0.69860  0.25564  1.0000 0.5479804917
C   C245      1.0  0.24920  0.65460  0.34789  1.0000 0.111881583
C   C246      1.0  0.43980  0.64390  0.31098  1.0000 -0.1016594233
C   C247      1.0  0.66930  0.73770  0.47952  1.0000 -0.1803182897
C   C248      1.0  0.33540  0.77900  0.57727  1.0000 -0.1563692496
C   C249      1.0  0.74200  0.74440  0.45100  1.0000 -0.1016594233
C   C250      1.0  0.18640  0.72000  0.61319  1.0000 -0.019839529
C   C251      1.0  0.08880  0.71790  0.64160  1.0000 0.5479804917
C   C252      1.0  0.32220  0.66430  0.57340  1.0000 -0.1285887391
C   C253      1.0  0.67390  0.43540  0.00699  1.0000 0.071518121
C   C254      1.0  0.07880  0.31450  0.01781  1.0000 0.2659317969
C   C255      1.0  0.65870  0.40030  0.06241  1.0000 0.2565361938
C   C256      1.0  0.22970  0.29840  0.07522  1.0000 0.0503988761
C   C257      1.0  0.72730  0.39090  0.09449  1.0000 -0.193545203
C   C258      1.0  0.14100  0.35260  0.07081  1.0000 0.0503988761
C   C259      1.0  0.54080  0.41760  0.00027  1.0000 0.0503988761
C   C260      1.0  0.69550  0.47670  0.95060  1.0000 -0.2495517277
C   C261      1.0  0.99000  0.32040  0.98906  1.0000 -0.193545203
C   C262      1.0  0.67870  0.35820  0.12068  1.0000 -0.1117522226
C   C263      1.0  0.96680  0.27440  0.96669  1.0000 -0.1180535502
C   C264      1.0  0.46780  0.39070  0.02666  1.0000 -0.1016594233
C   C265      1.0  0.87240  0.27690  0.93888  1.0000 0.111881583
C   C266      1.0  0.56240  0.45910  0.94419  1.0000 -0.0643403486
C   C267      1.0  0.52430  0.38160  0.05741  1.0000 -0.1803182897
C   C268      1.0  0.76130  0.28710  0.20479  1.0000 -0.0901254046
C   C269      1.0  0.87250  0.37190  0.15982  1.0000 -0.1438169361
C   C270      1.0  0.30050  0.29390  0.10630  1.0000 -0.1994092384
C   C271      1.0  0.48580  0.42970  0.96763  1.0000 -0.1994092384
C   C272      1.0  0.69550  0.30230  0.17554  1.0000 -0.1522421495
C   C273      1.0  0.88260  0.31410  0.21219  1.0000 -0.0033566943
C   C274      1.0  0.12660  0.40000  0.09564  1.0000 0.2533525049
C   C275      1.0  0.73980  0.22170  0.89714  1.0000 -0.0901254046
C   C276      1.0  0.28490  0.33900  0.13000  1.0000 -0.0771385127
C   C277      1.0  0.73110  0.33760  0.90140  1.0000 -0.0901254046
C   C278      1.0  0.20140  0.39180  0.12515  1.0000 -0.2263349772
C   C279      1.0  0.75440  0.46530  0.98146  1.0000 0.2430562346
C   C280      1.0  0.96130  0.30140  0.24436  1.0000 0.5479804917
C   C281      1.0  0.74920  0.34540  0.15211  1.0000 0.111881583
C   C282      1.0  0.93980  0.35610  0.18902  1.0000 -0.1016594233
C   C283      1.0  0.16930  0.26230  0.02048  1.0000 -0.1803182897
C   C284      1.0  0.83540  0.22100  0.92273  1.0000 -0.1563692496
C   C285      1.0  0.24200  0.25560  0.04900  1.0000 -0.1016594233
C   C286      1.0  0.68640  0.28000  0.88681  1.0000 -0.019839529
C   C287      1.0  0.58880  0.28210  0.85840  1.0000 0.5479804917
C   C288      1.0  0.82220  0.33570  0.92660  1.0000 -0.1285887391
N   N1        1.0  0.23190  0.07400  0.03774  1.0000 -0.3555788503
N   N2        1.0  0.56900  0.14110  0.04157  1.0000 -0.3475110115
N   N3        1.0  0.73190  0.92600  0.46226  1.0000 -0.3555788503
N   N4        1.0  0.06900  0.85890  0.45843  1.0000 -0.3475110115
N   N5        1.0  0.76810  0.92600  0.96226  1.0000 -0.3555788503
N   N6        1.0  0.43100  0.85890  0.95843  1.0000 -0.3475110115
N   N7        1.0  0.26810  0.07400  0.53774  1.0000 -0.3555788503
N   N8        1.0  0.93100  0.14110  0.54157  1.0000 -0.3475110115
N   N9        1.0  0.76810  0.42600  0.53774  1.0000 -0.3555788503
N   N10       1.0  0.43100  0.35890  0.54157  1.0000 -0.3475110115
N   N11       1.0  0.26810  0.57400  0.96226  1.0000 -0.3555788503
N   N12       1.0  0.93100  0.64110  0.95843  1.0000 -0.3475110115
N   N13       1.0  0.23190  0.57400  0.46226  1.0000 -0.3555788503
N   N14       1.0  0.56900  0.64110  0.45843  1.0000 -0.3475110115
N   N15       1.0  0.73190  0.42600  0.03774  1.0000 -0.3555788503
N   N16       1.0  0.06900  0.35890  0.04157  1.0000 -0.3475110115
O   O1        1.0  0.04090  0.26960  0.84840  1.0000 -0.5300976143
O   O2        1.0  0.40100  0.23510  0.26547  1.0000 -0.5591572815
O   O3        1.0  0.05750  0.16570  0.84485  1.0000 -0.5455459238
O   O4        1.0  0.38140  0.01870  0.98794  1.0000 -0.5591572815
O   O5        1.0  0.54580  0.05040  0.09136  1.0000 -0.5300976143
O   O6        1.0  0.56910  0.17550  0.24920  1.0000 -0.4932679788
O   O7        1.0  0.54090  0.73040  0.65160  1.0000 -0.5300976143
O   O8        1.0  0.90100  0.76490  0.23453  1.0000 -0.5591572815
O   O9        1.0  0.55750  0.83430  0.65515  1.0000 -0.5455459238
O   O10       1.0  0.88140  0.98130  0.51206  1.0000 -0.5591572815
O   O11       1.0  0.04580  0.94960  0.40864  1.0000 -0.5300976143
O   O12       1.0  0.06910  0.82450  0.25080  1.0000 -0.4932679788
O   O13       1.0  0.95910  0.73040  0.15160  1.0000 -0.5300976143
O   O14       1.0  0.59900  0.76490  0.73453  1.0000 -0.5591572815
O   O15       1.0  0.94250  0.83430  0.15515  1.0000 -0.5455459238
O   O16       1.0  0.61860  0.98130  0.01206  1.0000 -0.5591572815
O   O17       1.0  0.45420  0.94960  0.90864  1.0000 -0.5300976143
O   O18       1.0  0.43090  0.82450  0.75080  1.0000 -0.4932679788
O   O19       1.0  0.45910  0.26960  0.34840  1.0000 -0.5300976143
O   O20       1.0  0.09900  0.23510  0.76547  1.0000 -0.5591572815
O   O21       1.0  0.44250  0.16570  0.34485  1.0000 -0.5455459238
O   O22       1.0  0.11860  0.01870  0.48794  1.0000 -0.5591572815
O   O23       1.0  0.95420  0.05040  0.59136  1.0000 -0.5300976143
O   O24       1.0  0.93090  0.17550  0.74920  1.0000 -0.4932679788
O   O25       1.0  0.95910  0.23040  0.34840  1.0000 -0.5300976143
O   O26       1.0  0.59900  0.26490  0.76547  1.0000 -0.5591572815
O   O27       1.0  0.94250  0.33430  0.34485  1.0000 -0.5455459238
O   O28       1.0  0.61860  0.48130  0.48794  1.0000 -0.5591572815
O   O29       1.0  0.45420  0.44960  0.59136  1.0000 -0.5300976143
O   O30       1.0  0.43090  0.32450  0.74920  1.0000 -0.4932679788
O   O31       1.0  0.45910  0.76960  0.15160  1.0000 -0.5300976143
O   O32       1.0  0.09900  0.73510  0.73453  1.0000 -0.5591572815
O   O33       1.0  0.44250  0.66570  0.15515  1.0000 -0.5455459238
O   O34       1.0  0.11860  0.51870  0.01206  1.0000 -0.5591572815
O   O35       1.0  0.95420  0.55040  0.90864  1.0000 -0.5300976143
O   O36       1.0  0.93090  0.67550  0.75080  1.0000 -0.4932679788
O   O37       1.0  0.04090  0.76960  0.65160  1.0000 -0.5300976143
O   O38       1.0  0.40100  0.73510  0.23453  1.0000 -0.5591572815
O   O39       1.0  0.05750  0.66570  0.65515  1.0000 -0.5455459238
O   O40       1.0  0.38140  0.51870  0.51206  1.0000 -0.5591572815
O   O41       1.0  0.54580  0.55040  0.40864  1.0000 -0.5300976143
O   O42       1.0  0.56910  0.67550  0.25080  1.0000 -0.4932679788
O   O43       1.0  0.54090  0.23040  0.84840  1.0000 -0.5300976143
O   O44       1.0  0.90100  0.26490  0.26547  1.0000 -0.5591572815
O   O45       1.0  0.55750  0.33430  0.84485  1.0000 -0.5455459238
O   O46       1.0  0.88140  0.48130  0.98794  1.0000 -0.5591572815
O   O47       1.0  0.04580  0.44960  0.09136  1.0000 -0.5300976143
O   O48       1.0  0.06910  0.32450  0.24920  1.0000 -0.4932679788
