# DDEC6 charges by PACMAN v1.1 (https://github.com/mtap-research/PACMAN-charge/)
data_2019[In][nan]3[ASR]3
_chemical_formula_sum              "In36 H312 C504 N48 O180"
_cell_length_a       33.019
_cell_length_b       33.019
_cell_length_c       33.019
_cell_angle_alpha    109.471
_cell_angle_beta     109.471
_cell_angle_gamma    109.471

_symmetry_space_group_name_H-M    "P 1"
_symmetry_Int_Tables_number       1

loop_
  _symmetry_equiv_pos_as_xyz
  'x, y, z'

loop_
  _atom_site_type_symbol
  _atom_site_label
  _atom_site_symmetry_multiplicity
  _atom_site_fract_x
  _atom_site_fract_y
  _atom_site_fract_z
  _atom_site_occupancy
  _atom_site_charge
In  In1       1.0  0.12251  0.40769  0.80388  1.0000 1.3993822357
In  In2       1.0  0.10381  0.31863  0.69612  1.0000 1.3993822357
In  In3       1.0  0.37749  0.18137  0.28518  1.0000 1.3993822357
In  In4       1.0  0.39619  0.09231  0.21482  1.0000 1.3993822357
In  In5       1.0  0.09231  0.21482  0.39619  1.0000 1.3993822357
In  In6       1.0  0.18137  0.28518  0.37749  1.0000 1.3993822357
In  In7       1.0  0.31863  0.69612  0.10381  1.0000 1.3993822357
In  In8       1.0  0.40769  0.80388  0.12251  1.0000 1.3993822357
In  In9       1.0  0.28518  0.37749  0.18137  1.0000 1.3993822357
In  In10      1.0  0.21482  0.39619  0.09231  1.0000 1.3993822357
In  In11      1.0  0.80388  0.12251  0.40769  1.0000 1.3993822357
In  In12      1.0  0.69612  0.10381  0.31863  1.0000 1.3993822357
In  In13      1.0  0.90769  0.62251  0.30388  1.0000 1.3993822357
In  In14      1.0  0.81863  0.60381  0.19612  1.0000 1.3993822357
In  In15      1.0  0.68137  0.87749  0.78518  1.0000 1.3993822357
In  In16      1.0  0.59231  0.89619  0.71482  1.0000 1.3993822357
In  In17      1.0  0.71482  0.59231  0.89619  1.0000 1.3993822357
In  In18      1.0  0.78518  0.68137  0.87749  1.0000 1.3993822357
In  In19      1.0  0.19612  0.81863  0.60381  1.0000 1.3993822357
In  In20      1.0  0.30388  0.90769  0.62251  1.0000 1.3993822357
In  In21      1.0  0.87749  0.78518  0.68137  1.0000 1.3993822357
In  In22      1.0  0.89619  0.71482  0.59231  1.0000 1.3993822357
In  In23      1.0  0.62251  0.30388  0.90769  1.0000 1.3993822357
In  In24      1.0  0.60381  0.19612  0.81863  1.0000 1.3993822357
In  In25      1.0  0.03199  0.28199  0.75000  1.0000 1.4995998364
In  In26      1.0  0.46801  0.21801  0.25000  1.0000 1.4995998364
In  In27      1.0  0.21801  0.25000  0.46801  1.0000 1.4995998364
In  In28      1.0  0.28199  0.75000  0.03199  1.0000 1.4995998364
In  In29      1.0  0.25000  0.46801  0.21801  1.0000 1.4995998364
In  In30      1.0  0.75000  0.03199  0.28199  1.0000 1.4995998364
In  In31      1.0  0.78199  0.53199  0.25000  1.0000 1.4995998364
In  In32      1.0  0.71801  0.96801  0.75000  1.0000 1.4995998364
In  In33      1.0  0.75000  0.71801  0.96801  1.0000 1.4995998364
In  In34      1.0  0.25000  0.78199  0.53199  1.0000 1.4995998364
In  In35      1.0  0.96801  0.75000  0.71801  1.0000 1.4995998364
In  In36      1.0  0.53199  0.25000  0.78199  1.0000 1.4995998364
H   H1        1.0  0.13620  0.51820  0.75600  1.0000 0.1208903172
H   H2        1.0  0.15770  0.57560  0.72950  1.0000 0.1307884744
H   H3        1.0  0.13740  0.46920  0.60620  1.0000 0.1420071481
H   H4        1.0  0.11590  0.41190  0.63280  1.0000 0.1128995683
H   H5        1.0  0.14420  0.63000  0.63860  1.0000 0.1128995683
H   H6        1.0  0.16260  0.69860  0.62700  1.0000 0.1208903172
H   H7        1.0  0.23910  0.66000  0.56270  1.0000 0.1307884744
H   H8        1.0  0.22070  0.59130  0.57440  1.0000 0.1208903172
H   H9        1.0  0.16790  0.59120  0.89750  1.0000 0.1420071481
H   H10       1.0  0.12510  0.51140  0.83270  1.0000 0.1128995683
H   H11       1.0  0.21970  0.47780  0.90510  1.0000 0.1001230703
H   H12       1.0  0.26170  0.55700  0.97590  1.0000 0.1307884744
H   H13       1.0  0.17600  0.59660  0.67180  1.0000 0.2774540305
H   H14       1.0  0.26220  0.38020  0.74400  1.0000 0.1208903172
H   H15       1.0  0.34610  0.42820  0.77050  1.0000 0.1307884744
H   H16       1.0  0.36300  0.53120  0.89380  1.0000 0.1420071481
H   H17       1.0  0.27910  0.48310  0.86720  1.0000 0.1128995683
H   H18       1.0  0.49140  0.50560  0.86140  1.0000 0.1128995683
H   H19       1.0  0.57160  0.53560  0.87300  1.0000 0.1208903172
H   H20       1.0  0.59730  0.67640  0.93730  1.0000 0.1307884744
H   H21       1.0  0.51690  0.64630  0.92560  1.0000 0.1208903172
H   H22       1.0  0.19370  0.27040  0.60250  1.0000 0.1420071481
H   H23       1.0  0.17870  0.29240  0.66730  1.0000 0.1128995683
H   H24       1.0  0.07270  0.31460  0.59490  1.0000 0.1001230703
H   H25       1.0  0.08110  0.28580  0.52410  1.0000 0.1307884744
H   H26       1.0  0.42480  0.50420  0.82820  1.0000 0.2774540305
H   H27       1.0  0.36380  0.11980  0.38200  1.0000 0.1208903172
H   H28       1.0  0.34230  0.07180  0.41790  1.0000 0.1307884744
H   H29       1.0  0.36260  0.96880  0.33180  1.0000 0.1420071481
H   H30       1.0  0.38410  0.01690  0.29600  1.0000 0.1128995683
H   H31       1.0  0.35580  0.99440  0.48580  1.0000 0.1128995683
H   H32       1.0  0.33740  0.96440  0.53600  1.0000 0.1208903172
H   H33       1.0  0.26090  0.82360  0.42090  1.0000 0.1307884744
H   H34       1.0  0.27930  0.85370  0.37060  1.0000 0.1208903172
H   H35       1.0  0.33210  0.22960  0.42330  1.0000 0.1420071481
H   H36       1.0  0.37490  0.20760  0.38630  1.0000 0.1128995683
H   H37       1.0  0.28030  0.18540  0.25810  1.0000 0.1001230703
H   H38       1.0  0.23830  0.21420  0.29530  1.0000 0.1307884744
H   H39       1.0  0.32400  0.99580  0.42060  1.0000 0.2774540305
H   H40       1.0  0.23780  0.98180  0.11800  1.0000 0.1208903172
H   H41       1.0  0.15390  0.92440  0.08210  1.0000 0.1307884744
H   H42       1.0  0.13700  0.03080  0.16820  1.0000 0.1420071481
H   H43       1.0  0.22090  0.08810  0.20400  1.0000 0.1128995683
H   H44       1.0  0.00860  0.87000  0.01420  1.0000 0.1128995683
H   H45       1.0  0.92840  0.80140  0.96400  1.0000 0.1208903172
H   H46       1.0  0.90270  0.84000  0.07910  1.0000 0.1307884744
H   H47       1.0  0.98310  0.90870  0.12940  1.0000 0.1208903172
H   H48       1.0  0.30630  0.90880  0.07670  1.0000 0.1420071481
H   H49       1.0  0.32130  0.98860  0.11370  1.0000 0.1128995683
H   H50       1.0  0.42730  0.02220  0.24190  1.0000 0.1001230703
H   H51       1.0  0.41890  0.94300  0.20470  1.0000 0.1307884744
H   H52       1.0  0.07520  0.90340  0.07940  1.0000 0.2774540305
H   H53       1.0  0.98180  0.11800  0.23780  1.0000 0.1208903172
H   H54       1.0  0.92440  0.08210  0.15390  1.0000 0.1307884744
H   H55       1.0  0.03080  0.16820  0.13700  1.0000 0.1420071481
H   H56       1.0  0.08810  0.20400  0.22090  1.0000 0.1128995683
H   H57       1.0  0.87000  0.01420  0.00860  1.0000 0.1128995683
H   H58       1.0  0.80140  0.96400  0.92840  1.0000 0.1208903172
H   H59       1.0  0.84000  0.07910  0.90270  1.0000 0.1307884744
H   H60       1.0  0.90870  0.12940  0.98310  1.0000 0.1208903172
H   H61       1.0  0.90880  0.07670  0.30630  1.0000 0.1420071481
H   H62       1.0  0.98860  0.11370  0.32130  1.0000 0.1128995683
H   H63       1.0  0.02220  0.24190  0.42730  1.0000 0.1001230703
H   H64       1.0  0.94300  0.20470  0.41890  1.0000 0.1307884744
H   H65       1.0  0.90340  0.07940  0.07520  1.0000 0.2774540305
H   H66       1.0  0.11980  0.38200  0.36380  1.0000 0.1208903172
H   H67       1.0  0.07180  0.41790  0.34230  1.0000 0.1307884744
H   H68       1.0  0.96880  0.33180  0.36260  1.0000 0.1420071481
H   H69       1.0  0.01690  0.29600  0.38410  1.0000 0.1128995683
H   H70       1.0  0.99440  0.48580  0.35580  1.0000 0.1128995683
H   H71       1.0  0.96440  0.53600  0.33740  1.0000 0.1208903172
H   H72       1.0  0.82360  0.42090  0.26090  1.0000 0.1307884744
H   H73       1.0  0.85370  0.37060  0.27930  1.0000 0.1208903172
H   H74       1.0  0.22960  0.42330  0.33210  1.0000 0.1420071481
H   H75       1.0  0.20760  0.38630  0.37490  1.0000 0.1128995683
H   H76       1.0  0.18540  0.25810  0.28030  1.0000 0.1001230703
H   H77       1.0  0.21420  0.29530  0.23830  1.0000 0.1307884744
H   H78       1.0  0.99580  0.42060  0.32400  1.0000 0.2774540305
H   H79       1.0  0.38020  0.74400  0.26220  1.0000 0.1208903172
H   H80       1.0  0.42820  0.77050  0.34610  1.0000 0.1307884744
H   H81       1.0  0.53120  0.89380  0.36300  1.0000 0.1420071481
H   H82       1.0  0.48310  0.86720  0.27910  1.0000 0.1128995683
H   H83       1.0  0.50560  0.86140  0.49140  1.0000 0.1128995683
H   H84       1.0  0.53560  0.87300  0.57160  1.0000 0.1208903172
H   H85       1.0  0.67640  0.93730  0.59730  1.0000 0.1307884744
H   H86       1.0  0.64630  0.92560  0.51690  1.0000 0.1208903172
H   H87       1.0  0.27040  0.60250  0.19370  1.0000 0.1420071481
H   H88       1.0  0.29240  0.66730  0.17870  1.0000 0.1128995683
H   H89       1.0  0.31460  0.59490  0.07270  1.0000 0.1001230703
H   H90       1.0  0.28580  0.52410  0.08110  1.0000 0.1307884744
H   H91       1.0  0.50420  0.82820  0.42480  1.0000 0.2774540305
H   H92       1.0  0.51820  0.75600  0.13620  1.0000 0.1208903172
H   H93       1.0  0.57560  0.72950  0.15770  1.0000 0.1307884744
H   H94       1.0  0.46920  0.60620  0.13740  1.0000 0.1420071481
H   H95       1.0  0.41190  0.63280  0.11590  1.0000 0.1128995683
H   H96       1.0  0.63000  0.63860  0.14420  1.0000 0.1128995683
H   H97       1.0  0.69860  0.62700  0.16260  1.0000 0.1208903172
H   H98       1.0  0.66000  0.56270  0.23910  1.0000 0.1307884744
H   H99       1.0  0.59130  0.57440  0.22070  1.0000 0.1208903172
H   H100      1.0  0.59120  0.89750  0.16790  1.0000 0.1420071481
H   H101      1.0  0.51140  0.83270  0.12510  1.0000 0.1128995683
H   H102      1.0  0.47780  0.90510  0.21970  1.0000 0.1001230703
H   H103      1.0  0.55700  0.97590  0.26170  1.0000 0.1307884744
H   H104      1.0  0.59660  0.67180  0.17600  1.0000 0.2774540305
H   H105      1.0  0.38200  0.36380  0.11980  1.0000 0.1208903172
H   H106      1.0  0.41790  0.34230  0.07180  1.0000 0.1307884744
H   H107      1.0  0.33180  0.36260  0.96880  1.0000 0.1420071481
H   H108      1.0  0.29600  0.38410  0.01690  1.0000 0.1128995683
H   H109      1.0  0.48580  0.35580  0.99440  1.0000 0.1128995683
H   H110      1.0  0.53600  0.33740  0.96440  1.0000 0.1208903172
H   H111      1.0  0.42090  0.26090  0.82360  1.0000 0.1307884744
H   H112      1.0  0.37060  0.27930  0.85370  1.0000 0.1208903172
H   H113      1.0  0.42330  0.33210  0.22960  1.0000 0.1420071481
H   H114      1.0  0.38630  0.37490  0.20760  1.0000 0.1128995683
H   H115      1.0  0.25810  0.28030  0.18540  1.0000 0.1001230703
H   H116      1.0  0.29530  0.23830  0.21420  1.0000 0.1307884744
H   H117      1.0  0.42060  0.32400  0.99580  1.0000 0.2774540305
H   H118      1.0  0.11800  0.23780  0.98180  1.0000 0.1208903172
H   H119      1.0  0.08210  0.15390  0.92440  1.0000 0.1307884744
H   H120      1.0  0.16820  0.13700  0.03080  1.0000 0.1420071481
H   H121      1.0  0.20400  0.22090  0.08810  1.0000 0.1128995683
H   H122      1.0  0.01420  0.00860  0.87000  1.0000 0.1128995683
H   H123      1.0  0.96400  0.92840  0.80140  1.0000 0.1208903172
H   H124      1.0  0.07910  0.90270  0.84000  1.0000 0.1307884744
H   H125      1.0  0.12940  0.98310  0.90870  1.0000 0.1208903172
H   H126      1.0  0.07670  0.30630  0.90880  1.0000 0.1420071481
H   H127      1.0  0.11370  0.32130  0.98860  1.0000 0.1128995683
H   H128      1.0  0.24190  0.42730  0.02220  1.0000 0.1001230703
H   H129      1.0  0.20470  0.41890  0.94300  1.0000 0.1307884744
H   H130      1.0  0.07940  0.07520  0.90340  1.0000 0.2774540305
H   H131      1.0  0.75600  0.13620  0.51820  1.0000 0.1208903172
H   H132      1.0  0.72950  0.15770  0.57560  1.0000 0.1307884744
H   H133      1.0  0.60620  0.13740  0.46920  1.0000 0.1420071481
H   H134      1.0  0.63280  0.11590  0.41190  1.0000 0.1128995683
H   H135      1.0  0.63860  0.14420  0.63000  1.0000 0.1128995683
H   H136      1.0  0.62700  0.16260  0.69860  1.0000 0.1208903172
H   H137      1.0  0.56270  0.23910  0.66000  1.0000 0.1307884744
H   H138      1.0  0.57440  0.22070  0.59130  1.0000 0.1208903172
H   H139      1.0  0.89750  0.16790  0.59120  1.0000 0.1420071481
H   H140      1.0  0.83270  0.12510  0.51140  1.0000 0.1128995683
H   H141      1.0  0.90510  0.21970  0.47780  1.0000 0.1001230703
H   H142      1.0  0.97590  0.26170  0.55700  1.0000 0.1307884744
H   H143      1.0  0.67180  0.17600  0.59660  1.0000 0.2774540305
H   H144      1.0  0.74400  0.26220  0.38020  1.0000 0.1208903172
H   H145      1.0  0.77050  0.34610  0.42820  1.0000 0.1307884744
H   H146      1.0  0.89380  0.36300  0.53120  1.0000 0.1420071481
H   H147      1.0  0.86720  0.27910  0.48310  1.0000 0.1128995683
H   H148      1.0  0.86140  0.49140  0.50560  1.0000 0.1128995683
H   H149      1.0  0.87300  0.57160  0.53560  1.0000 0.1208903172
H   H150      1.0  0.93730  0.59730  0.67640  1.0000 0.1307884744
H   H151      1.0  0.92560  0.51690  0.64630  1.0000 0.1208903172
H   H152      1.0  0.60250  0.19370  0.27040  1.0000 0.1420071481
H   H153      1.0  0.66730  0.17870  0.29240  1.0000 0.1128995683
H   H154      1.0  0.59490  0.07270  0.31460  1.0000 0.1001230703
H   H155      1.0  0.52410  0.08110  0.28580  1.0000 0.1307884744
H   H156      1.0  0.82820  0.42480  0.50420  1.0000 0.2774540305
H   H157      1.0  0.01820  0.63620  0.25600  1.0000 0.1208903172
H   H158      1.0  0.07560  0.65770  0.22950  1.0000 0.1307884744
H   H159      1.0  0.96920  0.63740  0.10620  1.0000 0.1420071481
H   H160      1.0  0.91190  0.61590  0.13280  1.0000 0.1128995683
H   H161      1.0  0.13000  0.64420  0.13860  1.0000 0.1128995683
H   H162      1.0  0.19860  0.66260  0.12700  1.0000 0.1208903172
H   H163      1.0  0.16000  0.73910  0.06270  1.0000 0.1307884744
H   H164      1.0  0.09130  0.72070  0.07440  1.0000 0.1208903172
H   H165      1.0  0.09120  0.66790  0.39750  1.0000 0.1420071481
H   H166      1.0  0.01140  0.62510  0.33270  1.0000 0.1128995683
H   H167      1.0  0.97780  0.71970  0.40510  1.0000 0.1001230703
H   H168      1.0  0.05700  0.76170  0.47590  1.0000 0.1307884744
H   H169      1.0  0.09660  0.67600  0.17180  1.0000 0.2774540305
H   H170      1.0  0.88020  0.76220  0.24400  1.0000 0.1208903172
H   H171      1.0  0.92820  0.84610  0.27050  1.0000 0.1307884744
H   H172      1.0  0.03120  0.86300  0.39380  1.0000 0.1420071481
H   H173      1.0  0.98310  0.77910  0.36720  1.0000 0.1128995683
H   H174      1.0  0.00560  0.99140  0.36140  1.0000 0.1128995683
H   H175      1.0  0.03560  0.07160  0.37300  1.0000 0.1208903172
H   H176      1.0  0.17640  0.09730  0.43730  1.0000 0.1307884744
H   H177      1.0  0.14630  0.01690  0.42560  1.0000 0.1208903172
H   H178      1.0  0.77040  0.69370  0.10250  1.0000 0.1420071481
H   H179      1.0  0.79240  0.67870  0.16730  1.0000 0.1128995683
H   H180      1.0  0.81460  0.57270  0.09490  1.0000 0.1001230703
H   H181      1.0  0.78580  0.58110  0.02410  1.0000 0.1307884744
H   H182      1.0  0.00420  0.92480  0.32820  1.0000 0.2774540305
H   H183      1.0  0.61980  0.86380  0.88200  1.0000 0.1208903172
H   H184      1.0  0.57180  0.84230  0.91790  1.0000 0.1307884744
H   H185      1.0  0.46880  0.86260  0.83180  1.0000 0.1420071481
H   H186      1.0  0.51690  0.88410  0.79600  1.0000 0.1128995683
H   H187      1.0  0.49440  0.85580  0.98580  1.0000 0.1128995683
H   H188      1.0  0.46440  0.83740  0.03600  1.0000 0.1208903172
H   H189      1.0  0.32360  0.76090  0.92090  1.0000 0.1307884744
H   H190      1.0  0.35370  0.77930  0.87060  1.0000 0.1208903172
H   H191      1.0  0.72960  0.83210  0.92330  1.0000 0.1420071481
H   H192      1.0  0.70760  0.87490  0.88630  1.0000 0.1128995683
H   H193      1.0  0.68540  0.78030  0.75810  1.0000 0.1001230703
H   H194      1.0  0.71420  0.73830  0.79530  1.0000 0.1307884744
H   H195      1.0  0.49580  0.82400  0.92060  1.0000 0.2774540305
H   H196      1.0  0.48180  0.73780  0.61800  1.0000 0.1208903172
H   H197      1.0  0.42440  0.65390  0.58210  1.0000 0.1307884744
H   H198      1.0  0.53080  0.63700  0.66820  1.0000 0.1420071481
H   H199      1.0  0.58810  0.72090  0.70400  1.0000 0.1128995683
H   H200      1.0  0.37000  0.50860  0.51420  1.0000 0.1128995683
H   H201      1.0  0.30140  0.42840  0.46400  1.0000 0.1208903172
H   H202      1.0  0.34000  0.40270  0.57910  1.0000 0.1307884744
H   H203      1.0  0.40870  0.48310  0.62940  1.0000 0.1208903172
H   H204      1.0  0.40880  0.80630  0.57670  1.0000 0.1420071481
H   H205      1.0  0.48860  0.82130  0.61370  1.0000 0.1128995683
H   H206      1.0  0.52220  0.92730  0.74190  1.0000 0.1001230703
H   H207      1.0  0.44300  0.91890  0.70470  1.0000 0.1307884744
H   H208      1.0  0.40340  0.57520  0.57940  1.0000 0.2774540305
H   H209      1.0  0.61800  0.48180  0.73780  1.0000 0.1208903172
H   H210      1.0  0.58210  0.42440  0.65390  1.0000 0.1307884744
H   H211      1.0  0.66820  0.53080  0.63700  1.0000 0.1420071481
H   H212      1.0  0.70400  0.58810  0.72090  1.0000 0.1128995683
H   H213      1.0  0.51420  0.37000  0.50860  1.0000 0.1128995683
H   H214      1.0  0.46400  0.30140  0.42840  1.0000 0.1208903172
H   H215      1.0  0.57910  0.34000  0.40270  1.0000 0.1307884744
H   H216      1.0  0.62940  0.40870  0.48310  1.0000 0.1208903172
H   H217      1.0  0.57670  0.40880  0.80630  1.0000 0.1420071481
H   H218      1.0  0.61370  0.48860  0.82130  1.0000 0.1128995683
H   H219      1.0  0.74190  0.52220  0.92730  1.0000 0.1001230703
H   H220      1.0  0.70470  0.44300  0.91890  1.0000 0.1307884744
H   H221      1.0  0.57940  0.40340  0.57520  1.0000 0.2774540305
H   H222      1.0  0.88200  0.61980  0.86380  1.0000 0.1208903172
H   H223      1.0  0.91790  0.57180  0.84230  1.0000 0.1307884744
H   H224      1.0  0.83180  0.46880  0.86260  1.0000 0.1420071481
H   H225      1.0  0.79600  0.51690  0.88410  1.0000 0.1128995683
H   H226      1.0  0.98580  0.49440  0.85580  1.0000 0.1128995683
H   H227      1.0  0.03600  0.46440  0.83740  1.0000 0.1208903172
H   H228      1.0  0.92090  0.32360  0.76090  1.0000 0.1307884744
H   H229      1.0  0.87060  0.35370  0.77930  1.0000 0.1208903172
H   H230      1.0  0.92330  0.72960  0.83210  1.0000 0.1420071481
H   H231      1.0  0.88630  0.70760  0.87490  1.0000 0.1128995683
H   H232      1.0  0.75810  0.68540  0.78030  1.0000 0.1001230703
H   H233      1.0  0.79530  0.71420  0.73830  1.0000 0.1307884744
H   H234      1.0  0.92060  0.49580  0.82400  1.0000 0.2774540305
H   H235      1.0  0.24400  0.88020  0.76220  1.0000 0.1208903172
H   H236      1.0  0.27050  0.92820  0.84610  1.0000 0.1307884744
H   H237      1.0  0.39380  0.03120  0.86300  1.0000 0.1420071481
H   H238      1.0  0.36720  0.98310  0.77910  1.0000 0.1128995683
H   H239      1.0  0.36140  0.00560  0.99140  1.0000 0.1128995683
H   H240      1.0  0.37300  0.03560  0.07160  1.0000 0.1208903172
H   H241      1.0  0.43730  0.17640  0.09730  1.0000 0.1307884744
H   H242      1.0  0.42560  0.14630  0.01690  1.0000 0.1208903172
H   H243      1.0  0.10250  0.77040  0.69370  1.0000 0.1420071481
H   H244      1.0  0.16730  0.79240  0.67870  1.0000 0.1128995683
H   H245      1.0  0.09490  0.81460  0.57270  1.0000 0.1001230703
H   H246      1.0  0.02410  0.78580  0.58110  1.0000 0.1307884744
H   H247      1.0  0.32820  0.00420  0.92480  1.0000 0.2774540305
H   H248      1.0  0.25600  0.01820  0.63620  1.0000 0.1208903172
H   H249      1.0  0.22950  0.07560  0.65770  1.0000 0.1307884744
H   H250      1.0  0.10620  0.96920  0.63740  1.0000 0.1420071481
H   H251      1.0  0.13280  0.91190  0.61590  1.0000 0.1128995683
H   H252      1.0  0.13860  0.13000  0.64420  1.0000 0.1128995683
H   H253      1.0  0.12700  0.19860  0.66260  1.0000 0.1208903172
H   H254      1.0  0.06270  0.16000  0.73910  1.0000 0.1307884744
H   H255      1.0  0.07440  0.09130  0.72070  1.0000 0.1208903172
H   H256      1.0  0.39750  0.09120  0.66790  1.0000 0.1420071481
H   H257      1.0  0.33270  0.01140  0.62510  1.0000 0.1128995683
H   H258      1.0  0.40510  0.97780  0.71970  1.0000 0.1001230703
H   H259      1.0  0.47590  0.05700  0.76170  1.0000 0.1307884744
H   H260      1.0  0.17180  0.09660  0.67600  1.0000 0.2774540305
H   H261      1.0  0.86380  0.88200  0.61980  1.0000 0.1208903172
H   H262      1.0  0.84230  0.91790  0.57180  1.0000 0.1307884744
H   H263      1.0  0.86260  0.83180  0.46880  1.0000 0.1420071481
H   H264      1.0  0.88410  0.79600  0.51690  1.0000 0.1128995683
H   H265      1.0  0.85580  0.98580  0.49440  1.0000 0.1128995683
H   H266      1.0  0.83740  0.03600  0.46440  1.0000 0.1208903172
H   H267      1.0  0.76090  0.92090  0.32360  1.0000 0.1307884744
H   H268      1.0  0.77930  0.87060  0.35370  1.0000 0.1208903172
H   H269      1.0  0.83210  0.92330  0.72960  1.0000 0.1420071481
H   H270      1.0  0.87490  0.88630  0.70760  1.0000 0.1128995683
H   H271      1.0  0.78030  0.75810  0.68540  1.0000 0.1001230703
H   H272      1.0  0.73830  0.79530  0.71420  1.0000 0.1307884744
H   H273      1.0  0.82400  0.92060  0.49580  1.0000 0.2774540305
H   H274      1.0  0.73780  0.61800  0.48180  1.0000 0.1208903172
H   H275      1.0  0.65390  0.58210  0.42440  1.0000 0.1307884744
H   H276      1.0  0.63700  0.66820  0.53080  1.0000 0.1420071481
H   H277      1.0  0.72090  0.70400  0.58810  1.0000 0.1128995683
H   H278      1.0  0.50860  0.51420  0.37000  1.0000 0.1128995683
H   H279      1.0  0.42840  0.46400  0.30140  1.0000 0.1208903172
H   H280      1.0  0.40270  0.57910  0.34000  1.0000 0.1307884744
H   H281      1.0  0.48310  0.62940  0.40870  1.0000 0.1208903172
H   H282      1.0  0.80630  0.57670  0.40880  1.0000 0.1420071481
H   H283      1.0  0.82130  0.61370  0.48860  1.0000 0.1128995683
H   H284      1.0  0.92730  0.74190  0.52220  1.0000 0.1001230703
H   H285      1.0  0.91890  0.70470  0.44300  1.0000 0.1307884744
H   H286      1.0  0.57520  0.57940  0.40340  1.0000 0.2774540305
H   H287      1.0  0.63620  0.25600  0.01820  1.0000 0.1208903172
H   H288      1.0  0.65770  0.22950  0.07560  1.0000 0.1307884744
H   H289      1.0  0.63740  0.10620  0.96920  1.0000 0.1420071481
H   H290      1.0  0.61590  0.13280  0.91190  1.0000 0.1128995683
H   H291      1.0  0.64420  0.13860  0.13000  1.0000 0.1128995683
H   H292      1.0  0.66260  0.12700  0.19860  1.0000 0.1208903172
H   H293      1.0  0.73910  0.06270  0.16000  1.0000 0.1307884744
H   H294      1.0  0.72070  0.07440  0.09130  1.0000 0.1208903172
H   H295      1.0  0.66790  0.39750  0.09120  1.0000 0.1420071481
H   H296      1.0  0.62510  0.33270  0.01140  1.0000 0.1128995683
H   H297      1.0  0.71970  0.40510  0.97780  1.0000 0.1001230703
H   H298      1.0  0.76170  0.47590  0.05700  1.0000 0.1307884744
H   H299      1.0  0.67600  0.17180  0.09660  1.0000 0.2774540305
H   H300      1.0  0.76220  0.24400  0.88020  1.0000 0.1208903172
H   H301      1.0  0.84610  0.27050  0.92820  1.0000 0.1307884744
H   H302      1.0  0.86300  0.39380  0.03120  1.0000 0.1420071481
H   H303      1.0  0.77910  0.36720  0.98310  1.0000 0.1128995683
H   H304      1.0  0.99140  0.36140  0.00560  1.0000 0.1128995683
H   H305      1.0  0.07160  0.37300  0.03560  1.0000 0.1208903172
H   H306      1.0  0.09730  0.43730  0.17640  1.0000 0.1307884744
H   H307      1.0  0.01690  0.42560  0.14630  1.0000 0.1208903172
H   H308      1.0  0.69370  0.10250  0.77040  1.0000 0.1420071481
H   H309      1.0  0.67870  0.16730  0.79240  1.0000 0.1128995683
H   H310      1.0  0.57270  0.09490  0.81460  1.0000 0.1001230703
H   H311      1.0  0.58110  0.02410  0.78580  1.0000 0.1307884744
H   H312      1.0  0.92480  0.32820  0.00420  1.0000 0.2774540305
C   C1        1.0  0.11600  0.42340  0.71500  1.0000 0.5989356955
C   C2        1.0  0.12400  0.45960  0.69680  1.0000 -0.0516356479
C   C3        1.0  0.13650  0.50830  0.72560  1.0000 -0.0823324503
C   C4        1.0  0.14930  0.54240  0.70990  1.0000 -0.2250806117
C   C5        1.0  0.14960  0.52780  0.66540  1.0000 0.2384716951
C   C6        1.0  0.13710  0.47910  0.63660  1.0000 -0.1718658828
C   C7        1.0  0.12440  0.44510  0.65230  1.0000 -0.0904491319
C   C8        1.0  0.17810  0.56550  0.61740  1.0000 0.3982093528
C   C9        1.0  0.18070  0.60420  0.60750  1.0000 -0.0601548215
C   C10       1.0  0.16350  0.63610  0.62320  1.0000 -0.1422486533
C   C11       1.0  0.17440  0.67690  0.61630  1.0000 -0.0823324503
C   C12       1.0  0.20260  0.68580  0.59380  1.0000 -0.0601548215
C   C13       1.0  0.21980  0.65390  0.57810  1.0000 -0.0727305044
C   C14       1.0  0.20890  0.61310  0.58500  1.0000 -0.09914227
C   C15       1.0  0.21110  0.72690  0.58460  1.0000 0.5929779319
C   C16       1.0  0.24870  0.63530  0.98780  1.0000 0.5929779319
C   C17       1.0  0.22030  0.58420  0.94350  1.0000 0.0217337423
C   C18       1.0  0.17870  0.56850  0.90040  1.0000 -0.1422486533
C   C19       1.0  0.15320  0.52100  0.86220  1.0000 0.056738849
C   C20       1.0  0.20800  0.50050  0.90470  1.0000 0.1001230703
C   C21       1.0  0.23460  0.54850  0.94630  1.0000 -0.1718658828
C   C22       1.0  0.20840  0.40100  0.78500  1.0000 0.5989356955
C   C23       1.0  0.26280  0.42720  0.80320  1.0000 -0.0516356479
C   C24       1.0  0.28270  0.41090  0.77440  1.0000 -0.0823324503
C   C25       1.0  0.33250  0.43940  0.79010  1.0000 -0.2250806117
C   C26       1.0  0.36240  0.48420  0.83460  1.0000 0.2384716951
C   C27       1.0  0.34250  0.50050  0.86340  1.0000 -0.1718658828
C   C28       1.0  0.29280  0.47210  0.84770  1.0000 -0.0904491319
C   C29       1.0  0.44810  0.56070  0.88260  1.0000 0.3982093528
C   C30       1.0  0.49670  0.57320  0.89250  1.0000 -0.0601548215
C   C31       1.0  0.51290  0.54030  0.87680  1.0000 -0.1422486533
C   C32       1.0  0.56060  0.55810  0.88370  1.0000 -0.0823324503
C   C33       1.0  0.59200  0.60880  0.90620  1.0000 -0.0601548215
C   C34       1.0  0.57580  0.64170  0.92190  1.0000 -0.0727305044
C   C35       1.0  0.52810  0.62390  0.91500  1.0000 -0.09914227
C   C36       1.0  0.64230  0.62650  0.91540  1.0000 0.5929779319
C   C37       1.0  0.14750  0.26090  0.51220  1.0000 0.5929779319
C   C38       1.0  0.14070  0.27680  0.55650  1.0000 0.0217337423
C   C39       1.0  0.16810  0.27830  0.59960  1.0000 -0.1422486533
C   C40       1.0  0.15880  0.29100  0.63780  1.0000 0.056738849
C   C41       1.0  0.09580  0.30330  0.59530  1.0000 0.1001230703
C   C42       1.0  0.10220  0.28830  0.55370  1.0000 -0.1718658828
C   C43       1.0  0.38400  0.09900  0.30740  1.0000 0.5989356955
C   C44       1.0  0.37600  0.07280  0.33560  1.0000 -0.0516356479
C   C45       1.0  0.36350  0.08910  0.37180  1.0000 -0.0823324503
C   C46       1.0  0.35070  0.06060  0.39310  1.0000 -0.2250806117
C   C47       1.0  0.35040  0.01580  0.37820  1.0000 0.2384716951
C   C48       1.0  0.36290  0.99950  0.34200  1.0000 -0.1718658828
C   C49       1.0  0.37560  0.02790  0.32070  1.0000 -0.0904491319
C   C50       1.0  0.32190  0.93930  0.38740  1.0000 0.3982093528
C   C51       1.0  0.31930  0.92680  0.42350  1.0000 -0.0601548215
C   C52       1.0  0.33650  0.95970  0.47260  1.0000 -0.1422486533
C   C53       1.0  0.32560  0.94190  0.50250  1.0000 -0.0823324503
C   C54       1.0  0.29740  0.89120  0.48320  1.0000 -0.0601548215
C   C55       1.0  0.28020  0.85830  0.43410  1.0000 -0.0727305044
C   C56       1.0  0.29110  0.87610  0.40420  1.0000 -0.09914227
C   C57       1.0  0.28890  0.87350  0.51580  1.0000 0.5929779319
C   C58       1.0  0.25130  0.23910  0.38660  1.0000 0.5929779319
C   C59       1.0  0.27970  0.22320  0.36390  1.0000 0.0217337423
C   C60       1.0  0.32130  0.22170  0.38980  1.0000 -0.1422486533
C   C61       1.0  0.34680  0.20900  0.36780  1.0000 0.056738849
C   C62       1.0  0.29200  0.19670  0.29250  1.0000 0.1001230703
C   C63       1.0  0.26540  0.21170  0.31390  1.0000 -0.1718658828
C   C64       1.0  0.29160  0.07660  0.19260  1.0000 0.5989356955
C   C65       1.0  0.23720  0.04040  0.16440  1.0000 -0.0516356479
C   C66       1.0  0.21730  0.99170  0.12820  1.0000 -0.0823324503
C   C67       1.0  0.16750  0.95760  0.10690  1.0000 -0.2250806117
C   C68       1.0  0.13760  0.97220  0.12180  1.0000 0.2384716951
C   C69       1.0  0.15750  0.02090  0.15800  1.0000 -0.1718658828
C   C70       1.0  0.20720  0.05490  0.17930  1.0000 -0.0904491319
C   C71       1.0  0.05190  0.93450  0.11260  1.0000 0.3982093528
C   C72       1.0  0.00330  0.89580  0.07650  1.0000 -0.0601548215
C   C73       1.0  0.98710  0.86390  0.02740  1.0000 -0.1422486533
C   C74       1.0  0.93940  0.82310  0.99750  1.0000 -0.0823324503
C   C75       1.0  0.90800  0.81420  0.01680  1.0000 -0.0601548215
C   C76       1.0  0.92420  0.84610  0.06590  1.0000 -0.0727305044
C   C77       1.0  0.97190  0.88690  0.09580  1.0000 -0.09914227
C   C78       1.0  0.85770  0.77310  0.98420  1.0000 0.5929779319
C   C79       1.0  0.35250  0.86470  0.11340  1.0000 0.5929779319
C   C80       1.0  0.35930  0.91580  0.13610  1.0000 0.0217337423
C   C81       1.0  0.33190  0.93150  0.11020  1.0000 -0.1422486533
C   C82       1.0  0.34120  0.97900  0.13220  1.0000 0.056738849
C   C83       1.0  0.40420  0.99950  0.20750  1.0000 0.1001230703
C   C84       1.0  0.39780  0.95150  0.18610  1.0000 -0.1718658828
C   C85       1.0  0.07660  0.19260  0.29160  1.0000 0.5989356955
C   C86       1.0  0.04040  0.16440  0.23720  1.0000 -0.0516356479
C   C87       1.0  0.99170  0.12820  0.21730  1.0000 -0.0823324503
C   C88       1.0  0.95760  0.10690  0.16750  1.0000 -0.2250806117
C   C89       1.0  0.97220  0.12180  0.13760  1.0000 0.2384716951
C   C90       1.0  0.02090  0.15800  0.15750  1.0000 -0.1718658828
C   C91       1.0  0.05490  0.17930  0.20720  1.0000 -0.0904491319
C   C92       1.0  0.93450  0.11260  0.05190  1.0000 0.3982093528
C   C93       1.0  0.89580  0.07650  0.00330  1.0000 -0.0601548215
C   C94       1.0  0.86390  0.02740  0.98710  1.0000 -0.1422486533
C   C95       1.0  0.82310  0.99750  0.93940  1.0000 -0.0823324503
C   C96       1.0  0.81420  0.01680  0.90800  1.0000 -0.0601548215
C   C97       1.0  0.84610  0.06590  0.92420  1.0000 -0.0727305044
C   C98       1.0  0.88690  0.09580  0.97190  1.0000 -0.09914227
C   C99       1.0  0.77310  0.98420  0.85770  1.0000 0.5929779319
C   C100      1.0  0.86470  0.11340  0.35250  1.0000 0.5929779319
C   C101      1.0  0.91580  0.13610  0.35930  1.0000 0.0217337423
C   C102      1.0  0.93150  0.11020  0.33190  1.0000 -0.1422486533
C   C103      1.0  0.97900  0.13220  0.34120  1.0000 0.056738849
C   C104      1.0  0.99950  0.20750  0.40420  1.0000 0.1001230703
C   C105      1.0  0.95150  0.18610  0.39780  1.0000 -0.1718658828
C   C106      1.0  0.09900  0.30740  0.38400  1.0000 0.5989356955
C   C107      1.0  0.07280  0.33560  0.37600  1.0000 -0.0516356479
C   C108      1.0  0.08910  0.37180  0.36350  1.0000 -0.0823324503
C   C109      1.0  0.06060  0.39310  0.35070  1.0000 -0.2250806117
C   C110      1.0  0.01580  0.37820  0.35040  1.0000 0.2384716951
C   C111      1.0  0.99950  0.34200  0.36290  1.0000 -0.1718658828
C   C112      1.0  0.02790  0.32070  0.37560  1.0000 -0.0904491319
C   C113      1.0  0.93930  0.38740  0.32190  1.0000 0.3982093528
C   C114      1.0  0.92680  0.42350  0.31930  1.0000 -0.0601548215
C   C115      1.0  0.95970  0.47260  0.33650  1.0000 -0.1422486533
C   C116      1.0  0.94190  0.50250  0.32560  1.0000 -0.0823324503
C   C117      1.0  0.89120  0.48320  0.29740  1.0000 -0.0601548215
C   C118      1.0  0.85830  0.43410  0.28020  1.0000 -0.0727305044
C   C119      1.0  0.87610  0.40420  0.29110  1.0000 -0.09914227
C   C120      1.0  0.87350  0.51580  0.28890  1.0000 0.5929779319
C   C121      1.0  0.23910  0.38660  0.25130  1.0000 0.5929779319
C   C122      1.0  0.22320  0.36390  0.27970  1.0000 0.0217337423
C   C123      1.0  0.22170  0.38980  0.32130  1.0000 -0.1422486533
C   C124      1.0  0.20900  0.36780  0.34680  1.0000 0.056738849
C   C125      1.0  0.19670  0.29250  0.29200  1.0000 0.1001230703
C   C126      1.0  0.21170  0.31390  0.26540  1.0000 -0.1718658828
C   C127      1.0  0.40100  0.78500  0.20840  1.0000 0.5989356955
C   C128      1.0  0.42720  0.80320  0.26280  1.0000 -0.0516356479
C   C129      1.0  0.41090  0.77440  0.28270  1.0000 -0.0823324503
C   C130      1.0  0.43940  0.79010  0.33250  1.0000 -0.2250806117
C   C131      1.0  0.48420  0.83460  0.36240  1.0000 0.2384716951
C   C132      1.0  0.50050  0.86340  0.34250  1.0000 -0.1718658828
C   C133      1.0  0.47210  0.84770  0.29280  1.0000 -0.0904491319
C   C134      1.0  0.56070  0.88260  0.44810  1.0000 0.3982093528
C   C135      1.0  0.57320  0.89250  0.49670  1.0000 -0.0601548215
C   C136      1.0  0.54030  0.87680  0.51290  1.0000 -0.1422486533
C   C137      1.0  0.55810  0.88370  0.56060  1.0000 -0.0823324503
C   C138      1.0  0.60880  0.90620  0.59200  1.0000 -0.0601548215
C   C139      1.0  0.64170  0.92190  0.57580  1.0000 -0.0727305044
C   C140      1.0  0.62390  0.91500  0.52810  1.0000 -0.09914227
C   C141      1.0  0.62650  0.91540  0.64230  1.0000 0.5929779319
C   C142      1.0  0.26090  0.51220  0.14750  1.0000 0.5929779319
C   C143      1.0  0.27680  0.55650  0.14070  1.0000 0.0217337423
C   C144      1.0  0.27830  0.59960  0.16810  1.0000 -0.1422486533
C   C145      1.0  0.29100  0.63780  0.15880  1.0000 0.056738849
C   C146      1.0  0.30330  0.59530  0.09580  1.0000 0.1001230703
C   C147      1.0  0.28830  0.55370  0.10220  1.0000 -0.1718658828
C   C148      1.0  0.42340  0.71500  0.11600  1.0000 0.5989356955
C   C149      1.0  0.45960  0.69680  0.12400  1.0000 -0.0516356479
C   C150      1.0  0.50830  0.72560  0.13650  1.0000 -0.0823324503
C   C151      1.0  0.54240  0.70990  0.14930  1.0000 -0.2250806117
C   C152      1.0  0.52780  0.66540  0.14960  1.0000 0.2384716951
C   C153      1.0  0.47910  0.63660  0.13710  1.0000 -0.1718658828
C   C154      1.0  0.44510  0.65230  0.12440  1.0000 -0.0904491319
C   C155      1.0  0.56550  0.61740  0.17810  1.0000 0.3982093528
C   C156      1.0  0.60420  0.60750  0.18070  1.0000 -0.0601548215
C   C157      1.0  0.63610  0.62320  0.16350  1.0000 -0.1422486533
C   C158      1.0  0.67690  0.61630  0.17440  1.0000 -0.0823324503
C   C159      1.0  0.68580  0.59380  0.20260  1.0000 -0.0601548215
C   C160      1.0  0.65390  0.57810  0.21980  1.0000 -0.0727305044
C   C161      1.0  0.61310  0.58500  0.20890  1.0000 -0.09914227
C   C162      1.0  0.72690  0.58460  0.21110  1.0000 0.5929779319
C   C163      1.0  0.63530  0.98780  0.24870  1.0000 0.5929779319
C   C164      1.0  0.58420  0.94350  0.22030  1.0000 0.0217337423
C   C165      1.0  0.56850  0.90040  0.17870  1.0000 -0.1422486533
C   C166      1.0  0.52100  0.86220  0.15320  1.0000 0.056738849
C   C167      1.0  0.50050  0.90470  0.20800  1.0000 0.1001230703
C   C168      1.0  0.54850  0.94630  0.23460  1.0000 -0.1718658828
C   C169      1.0  0.30740  0.38400  0.09900  1.0000 0.5989356955
C   C170      1.0  0.33560  0.37600  0.07280  1.0000 -0.0516356479
C   C171      1.0  0.37180  0.36350  0.08910  1.0000 -0.0823324503
C   C172      1.0  0.39310  0.35070  0.06060  1.0000 -0.2250806117
C   C173      1.0  0.37820  0.35040  0.01580  1.0000 0.2384716951
C   C174      1.0  0.34200  0.36290  0.99950  1.0000 -0.1718658828
C   C175      1.0  0.32070  0.37560  0.02790  1.0000 -0.0904491319
C   C176      1.0  0.38740  0.32190  0.93930  1.0000 0.3982093528
C   C177      1.0  0.42350  0.31930  0.92680  1.0000 -0.0601548215
C   C178      1.0  0.47260  0.33650  0.95970  1.0000 -0.1422486533
C   C179      1.0  0.50250  0.32560  0.94190  1.0000 -0.0823324503
C   C180      1.0  0.48320  0.29740  0.89120  1.0000 -0.0601548215
C   C181      1.0  0.43410  0.28020  0.85830  1.0000 -0.0727305044
C   C182      1.0  0.40420  0.29110  0.87610  1.0000 -0.09914227
C   C183      1.0  0.51580  0.28890  0.87350  1.0000 0.5929779319
C   C184      1.0  0.38660  0.25130  0.23910  1.0000 0.5929779319
C   C185      1.0  0.36390  0.27970  0.22320  1.0000 0.0217337423
C   C186      1.0  0.38980  0.32130  0.22170  1.0000 -0.1422486533
C   C187      1.0  0.36780  0.34680  0.20900  1.0000 0.056738849
C   C188      1.0  0.29250  0.29200  0.19670  1.0000 0.1001230703
C   C189      1.0  0.31390  0.26540  0.21170  1.0000 -0.1718658828
C   C190      1.0  0.19260  0.29160  0.07660  1.0000 0.5989356955
C   C191      1.0  0.16440  0.23720  0.04040  1.0000 -0.0516356479
C   C192      1.0  0.12820  0.21730  0.99170  1.0000 -0.0823324503
C   C193      1.0  0.10690  0.16750  0.95760  1.0000 -0.2250806117
C   C194      1.0  0.12180  0.13760  0.97220  1.0000 0.2384716951
C   C195      1.0  0.15800  0.15750  0.02090  1.0000 -0.1718658828
C   C196      1.0  0.17930  0.20720  0.05490  1.0000 -0.0904491319
C   C197      1.0  0.11260  0.05190  0.93450  1.0000 0.3982093528
C   C198      1.0  0.07650  0.00330  0.89580  1.0000 -0.0601548215
C   C199      1.0  0.02740  0.98710  0.86390  1.0000 -0.1422486533
C   C200      1.0  0.99750  0.93940  0.82310  1.0000 -0.0823324503
C   C201      1.0  0.01680  0.90800  0.81420  1.0000 -0.0601548215
C   C202      1.0  0.06590  0.92420  0.84610  1.0000 -0.0727305044
C   C203      1.0  0.09580  0.97190  0.88690  1.0000 -0.09914227
C   C204      1.0  0.98420  0.85770  0.77310  1.0000 0.5929779319
C   C205      1.0  0.11340  0.35250  0.86470  1.0000 0.5929779319
C   C206      1.0  0.13610  0.35930  0.91580  1.0000 0.0217337423
C   C207      1.0  0.11020  0.33190  0.93150  1.0000 -0.1422486533
C   C208      1.0  0.13220  0.34120  0.97900  1.0000 0.056738849
C   C209      1.0  0.20750  0.40420  0.99950  1.0000 0.1001230703
C   C210      1.0  0.18610  0.39780  0.95150  1.0000 -0.1718658828
C   C211      1.0  0.71500  0.11600  0.42340  1.0000 0.5989356955
C   C212      1.0  0.69680  0.12400  0.45960  1.0000 -0.0516356479
C   C213      1.0  0.72560  0.13650  0.50830  1.0000 -0.0823324503
C   C214      1.0  0.70990  0.14930  0.54240  1.0000 -0.2250806117
C   C215      1.0  0.66540  0.14960  0.52780  1.0000 0.2384716951
C   C216      1.0  0.63660  0.13710  0.47910  1.0000 -0.1718658828
C   C217      1.0  0.65230  0.12440  0.44510  1.0000 -0.0904491319
C   C218      1.0  0.61740  0.17810  0.56550  1.0000 0.3982093528
C   C219      1.0  0.60750  0.18070  0.60420  1.0000 -0.0601548215
C   C220      1.0  0.62320  0.16350  0.63610  1.0000 -0.1422486533
C   C221      1.0  0.61630  0.17440  0.67690  1.0000 -0.0823324503
C   C222      1.0  0.59380  0.20260  0.68580  1.0000 -0.0601548215
C   C223      1.0  0.57810  0.21980  0.65390  1.0000 -0.0727305044
C   C224      1.0  0.58500  0.20890  0.61310  1.0000 -0.09914227
C   C225      1.0  0.58460  0.21110  0.72690  1.0000 0.5929779319
C   C226      1.0  0.98780  0.24870  0.63530  1.0000 0.5929779319
C   C227      1.0  0.94350  0.22030  0.58420  1.0000 0.0217337423
C   C228      1.0  0.90040  0.17870  0.56850  1.0000 -0.1422486533
C   C229      1.0  0.86220  0.15320  0.52100  1.0000 0.056738849
C   C230      1.0  0.90470  0.20800  0.50050  1.0000 0.1001230703
C   C231      1.0  0.94630  0.23460  0.54850  1.0000 -0.1718658828
C   C232      1.0  0.78500  0.20840  0.40100  1.0000 0.5989356955
C   C233      1.0  0.80320  0.26280  0.42720  1.0000 -0.0516356479
C   C234      1.0  0.77440  0.28270  0.41090  1.0000 -0.0823324503
C   C235      1.0  0.79010  0.33250  0.43940  1.0000 -0.2250806117
C   C236      1.0  0.83460  0.36240  0.48420  1.0000 0.2384716951
C   C237      1.0  0.86340  0.34250  0.50050  1.0000 -0.1718658828
C   C238      1.0  0.84770  0.29280  0.47210  1.0000 -0.0904491319
C   C239      1.0  0.88260  0.44810  0.56070  1.0000 0.3982093528
C   C240      1.0  0.89250  0.49670  0.57320  1.0000 -0.0601548215
C   C241      1.0  0.87680  0.51290  0.54030  1.0000 -0.1422486533
C   C242      1.0  0.88370  0.56060  0.55810  1.0000 -0.0823324503
C   C243      1.0  0.90620  0.59200  0.60880  1.0000 -0.0601548215
C   C244      1.0  0.92190  0.57580  0.64170  1.0000 -0.0727305044
C   C245      1.0  0.91500  0.52810  0.62390  1.0000 -0.09914227
C   C246      1.0  0.91540  0.64230  0.62650  1.0000 0.5929779319
C   C247      1.0  0.51220  0.14750  0.26090  1.0000 0.5929779319
C   C248      1.0  0.55650  0.14070  0.27680  1.0000 0.0217337423
C   C249      1.0  0.59960  0.16810  0.27830  1.0000 -0.1422486533
C   C250      1.0  0.63780  0.15880  0.29100  1.0000 0.056738849
C   C251      1.0  0.59530  0.09580  0.30330  1.0000 0.1001230703
C   C252      1.0  0.55370  0.10220  0.28830  1.0000 -0.1718658828
C   C253      1.0  0.92340  0.61600  0.21500  1.0000 0.5989356955
C   C254      1.0  0.95960  0.62400  0.19680  1.0000 -0.0516356479
C   C255      1.0  0.00830  0.63650  0.22560  1.0000 -0.0823324503
C   C256      1.0  0.04240  0.64930  0.20990  1.0000 -0.2250806117
C   C257      1.0  0.02780  0.64960  0.16540  1.0000 0.2384716951
C   C258      1.0  0.97910  0.63710  0.13660  1.0000 -0.1718658828
C   C259      1.0  0.94510  0.62440  0.15230  1.0000 -0.0904491319
C   C260      1.0  0.06550  0.67810  0.11740  1.0000 0.3982093528
C   C261      1.0  0.10420  0.68070  0.10750  1.0000 -0.0601548215
C   C262      1.0  0.13610  0.66350  0.12320  1.0000 -0.1422486533
C   C263      1.0  0.17690  0.67440  0.11630  1.0000 -0.0823324503
C   C264      1.0  0.18580  0.70260  0.09380  1.0000 -0.0601548215
C   C265      1.0  0.15390  0.71980  0.07810  1.0000 -0.0727305044
C   C266      1.0  0.11310  0.70890  0.08500  1.0000 -0.09914227
C   C267      1.0  0.22690  0.71110  0.08460  1.0000 0.5929779319
C   C268      1.0  0.13530  0.74870  0.48780  1.0000 0.5929779319
C   C269      1.0  0.08420  0.72030  0.44350  1.0000 0.0217337423
C   C270      1.0  0.06850  0.67870  0.40040  1.0000 -0.1422486533
C   C271      1.0  0.02100  0.65320  0.36220  1.0000 0.056738849
C   C272      1.0  0.00050  0.70800  0.40470  1.0000 0.1001230703
C   C273      1.0  0.04850  0.73460  0.44630  1.0000 -0.1718658828
C   C274      1.0  0.90100  0.70840  0.28500  1.0000 0.5989356955
C   C275      1.0  0.92720  0.76280  0.30320  1.0000 -0.0516356479
C   C276      1.0  0.91090  0.78270  0.27440  1.0000 -0.0823324503
C   C277      1.0  0.93940  0.83250  0.29010  1.0000 -0.2250806117
C   C278      1.0  0.98420  0.86240  0.33460  1.0000 0.2384716951
C   C279      1.0  0.00050  0.84250  0.36340  1.0000 -0.1718658828
C   C280      1.0  0.97210  0.79280  0.34770  1.0000 -0.0904491319
C   C281      1.0  0.06070  0.94810  0.38260  1.0000 0.3982093528
C   C282      1.0  0.07320  0.99670  0.39250  1.0000 -0.0601548215
C   C283      1.0  0.04030  0.01290  0.37680  1.0000 -0.1422486533
C   C284      1.0  0.05810  0.06060  0.38370  1.0000 -0.0823324503
C   C285      1.0  0.10880  0.09200  0.40620  1.0000 -0.0601548215
C   C286      1.0  0.14170  0.07580  0.42190  1.0000 -0.0727305044
C   C287      1.0  0.12390  0.02810  0.41500  1.0000 -0.09914227
C   C288      1.0  0.12650  0.14230  0.41540  1.0000 0.5929779319
C   C289      1.0  0.76090  0.64750  0.01220  1.0000 0.5929779319
C   C290      1.0  0.77680  0.64070  0.05650  1.0000 0.0217337423
C   C291      1.0  0.77830  0.66810  0.09960  1.0000 -0.1422486533
C   C292      1.0  0.79100  0.65880  0.13780  1.0000 0.056738849
C   C293      1.0  0.80330  0.59580  0.09530  1.0000 0.1001230703
C   C294      1.0  0.78830  0.60220  0.05370  1.0000 -0.1718658828
C   C295      1.0  0.59900  0.88400  0.80740  1.0000 0.5989356955
C   C296      1.0  0.57280  0.87600  0.83560  1.0000 -0.0516356479
C   C297      1.0  0.58910  0.86350  0.87180  1.0000 -0.0823324503
C   C298      1.0  0.56060  0.85070  0.89310  1.0000 -0.2250806117
C   C299      1.0  0.51580  0.85040  0.87820  1.0000 0.2384716951
C   C300      1.0  0.49950  0.86290  0.84200  1.0000 -0.1718658828
C   C301      1.0  0.52790  0.87560  0.82070  1.0000 -0.0904491319
C   C302      1.0  0.43930  0.82190  0.88740  1.0000 0.3982093528
C   C303      1.0  0.42680  0.81930  0.92350  1.0000 -0.0601548215
C   C304      1.0  0.45970  0.83650  0.97260  1.0000 -0.1422486533
C   C305      1.0  0.44190  0.82560  0.00250  1.0000 -0.0823324503
C   C306      1.0  0.39120  0.79740  0.98320  1.0000 -0.0601548215
C   C307      1.0  0.35830  0.78020  0.93410  1.0000 -0.0727305044
C   C308      1.0  0.37610  0.79110  0.90420  1.0000 -0.09914227
C   C309      1.0  0.37350  0.78890  0.01580  1.0000 0.5929779319
C   C310      1.0  0.73910  0.75130  0.88660  1.0000 0.5929779319
C   C311      1.0  0.72320  0.77970  0.86390  1.0000 0.0217337423
C   C312      1.0  0.72170  0.82130  0.88980  1.0000 -0.1422486533
C   C313      1.0  0.70900  0.84680  0.86780  1.0000 0.056738849
C   C314      1.0  0.69670  0.79200  0.79250  1.0000 0.1001230703
C   C315      1.0  0.71170  0.76540  0.81390  1.0000 -0.1718658828
C   C316      1.0  0.57660  0.79160  0.69260  1.0000 0.5989356955
C   C317      1.0  0.54040  0.73720  0.66440  1.0000 -0.0516356479
C   C318      1.0  0.49170  0.71730  0.62820  1.0000 -0.0823324503
C   C319      1.0  0.45760  0.66750  0.60690  1.0000 -0.2250806117
C   C320      1.0  0.47220  0.63760  0.62180  1.0000 0.2384716951
C   C321      1.0  0.52090  0.65750  0.65800  1.0000 -0.1718658828
C   C322      1.0  0.55490  0.70720  0.67930  1.0000 -0.0904491319
C   C323      1.0  0.43450  0.55190  0.61260  1.0000 0.3982093528
C   C324      1.0  0.39580  0.50330  0.57650  1.0000 -0.0601548215
C   C325      1.0  0.36390  0.48710  0.52740  1.0000 -0.1422486533
C   C326      1.0  0.32310  0.43940  0.49750  1.0000 -0.0823324503
C   C327      1.0  0.31420  0.40800  0.51680  1.0000 -0.0601548215
C   C328      1.0  0.34610  0.42420  0.56590  1.0000 -0.0727305044
C   C329      1.0  0.38690  0.47190  0.59580  1.0000 -0.09914227
C   C330      1.0  0.27310  0.35770  0.48420  1.0000 0.5929779319
C   C331      1.0  0.36470  0.85250  0.61340  1.0000 0.5929779319
C   C332      1.0  0.41580  0.85930  0.63610  1.0000 0.0217337423
C   C333      1.0  0.43150  0.83190  0.61020  1.0000 -0.1422486533
C   C334      1.0  0.47900  0.84120  0.63220  1.0000 0.056738849
C   C335      1.0  0.49950  0.90420  0.70750  1.0000 0.1001230703
C   C336      1.0  0.45150  0.89780  0.68610  1.0000 -0.1718658828
C   C337      1.0  0.69260  0.57660  0.79160  1.0000 0.5989356955
C   C338      1.0  0.66440  0.54040  0.73720  1.0000 -0.0516356479
C   C339      1.0  0.62820  0.49170  0.71730  1.0000 -0.0823324503
C   C340      1.0  0.60690  0.45760  0.66750  1.0000 -0.2250806117
C   C341      1.0  0.62180  0.47220  0.63760  1.0000 0.2384716951
C   C342      1.0  0.65800  0.52090  0.65750  1.0000 -0.1718658828
C   C343      1.0  0.67930  0.55490  0.70720  1.0000 -0.0904491319
C   C344      1.0  0.61260  0.43450  0.55190  1.0000 0.3982093528
C   C345      1.0  0.57650  0.39580  0.50330  1.0000 -0.0601548215
C   C346      1.0  0.52740  0.36390  0.48710  1.0000 -0.1422486533
C   C347      1.0  0.49750  0.32310  0.43940  1.0000 -0.0823324503
C   C348      1.0  0.51680  0.31420  0.40800  1.0000 -0.0601548215
C   C349      1.0  0.56590  0.34610  0.42420  1.0000 -0.0727305044
C   C350      1.0  0.59580  0.38690  0.47190  1.0000 -0.09914227
C   C351      1.0  0.48420  0.27310  0.35770  1.0000 0.5929779319
C   C352      1.0  0.61340  0.36470  0.85250  1.0000 0.5929779319
C   C353      1.0  0.63610  0.41580  0.85930  1.0000 0.0217337423
C   C354      1.0  0.61020  0.43150  0.83190  1.0000 -0.1422486533
C   C355      1.0  0.63220  0.47900  0.84120  1.0000 0.056738849
C   C356      1.0  0.70750  0.49950  0.90420  1.0000 0.1001230703
C   C357      1.0  0.68610  0.45150  0.89780  1.0000 -0.1718658828
C   C358      1.0  0.80740  0.59900  0.88400  1.0000 0.5989356955
C   C359      1.0  0.83560  0.57280  0.87600  1.0000 -0.0516356479
C   C360      1.0  0.87180  0.58910  0.86350  1.0000 -0.0823324503
C   C361      1.0  0.89310  0.56060  0.85070  1.0000 -0.2250806117
C   C362      1.0  0.87820  0.51580  0.85040  1.0000 0.2384716951
C   C363      1.0  0.84200  0.49950  0.86290  1.0000 -0.1718658828
C   C364      1.0  0.82070  0.52790  0.87560  1.0000 -0.0904491319
C   C365      1.0  0.88740  0.43930  0.82190  1.0000 0.3982093528
C   C366      1.0  0.92350  0.42680  0.81930  1.0000 -0.0601548215
C   C367      1.0  0.97260  0.45970  0.83650  1.0000 -0.1422486533
C   C368      1.0  0.00250  0.44190  0.82560  1.0000 -0.0823324503
C   C369      1.0  0.98320  0.39120  0.79740  1.0000 -0.0601548215
C   C370      1.0  0.93410  0.35830  0.78020  1.0000 -0.0727305044
C   C371      1.0  0.90420  0.37610  0.79110  1.0000 -0.09914227
C   C372      1.0  0.01580  0.37350  0.78890  1.0000 0.5929779319
C   C373      1.0  0.88660  0.73910  0.75130  1.0000 0.5929779319
C   C374      1.0  0.86390  0.72320  0.77970  1.0000 0.0217337423
C   C375      1.0  0.88980  0.72170  0.82130  1.0000 -0.1422486533
C   C376      1.0  0.86780  0.70900  0.84680  1.0000 0.056738849
C   C377      1.0  0.79250  0.69670  0.79200  1.0000 0.1001230703
C   C378      1.0  0.81390  0.71170  0.76540  1.0000 -0.1718658828
C   C379      1.0  0.28500  0.90100  0.70840  1.0000 0.5989356955
C   C380      1.0  0.30320  0.92720  0.76280  1.0000 -0.0516356479
C   C381      1.0  0.27440  0.91090  0.78270  1.0000 -0.0823324503
C   C382      1.0  0.29010  0.93940  0.83250  1.0000 -0.2250806117
C   C383      1.0  0.33460  0.98420  0.86240  1.0000 0.2384716951
C   C384      1.0  0.36340  0.00050  0.84250  1.0000 -0.1718658828
C   C385      1.0  0.34770  0.97210  0.79280  1.0000 -0.0904491319
C   C386      1.0  0.38260  0.06070  0.94810  1.0000 0.3982093528
C   C387      1.0  0.39250  0.07320  0.99670  1.0000 -0.0601548215
C   C388      1.0  0.37680  0.04030  0.01290  1.0000 -0.1422486533
C   C389      1.0  0.38370  0.05810  0.06060  1.0000 -0.0823324503
C   C390      1.0  0.40620  0.10880  0.09200  1.0000 -0.0601548215
C   C391      1.0  0.42190  0.14170  0.07580  1.0000 -0.0727305044
C   C392      1.0  0.41500  0.12390  0.02810  1.0000 -0.09914227
C   C393      1.0  0.41540  0.12650  0.14230  1.0000 0.5929779319
C   C394      1.0  0.01220  0.76090  0.64750  1.0000 0.5929779319
C   C395      1.0  0.05650  0.77680  0.64070  1.0000 0.0217337423
C   C396      1.0  0.09960  0.77830  0.66810  1.0000 -0.1422486533
C   C397      1.0  0.13780  0.79100  0.65880  1.0000 0.056738849
C   C398      1.0  0.09530  0.80330  0.59580  1.0000 0.1001230703
C   C399      1.0  0.05370  0.78830  0.60220  1.0000 -0.1718658828
C   C400      1.0  0.21500  0.92340  0.61600  1.0000 0.5989356955
C   C401      1.0  0.19680  0.95960  0.62400  1.0000 -0.0516356479
C   C402      1.0  0.22560  0.00830  0.63650  1.0000 -0.0823324503
C   C403      1.0  0.20990  0.04240  0.64930  1.0000 -0.2250806117
C   C404      1.0  0.16540  0.02780  0.64960  1.0000 0.2384716951
C   C405      1.0  0.13660  0.97910  0.63710  1.0000 -0.1718658828
C   C406      1.0  0.15230  0.94510  0.62440  1.0000 -0.0904491319
C   C407      1.0  0.11740  0.06550  0.67810  1.0000 0.3982093528
C   C408      1.0  0.10750  0.10420  0.68070  1.0000 -0.0601548215
C   C409      1.0  0.12320  0.13610  0.66350  1.0000 -0.1422486533
C   C410      1.0  0.11630  0.17690  0.67440  1.0000 -0.0823324503
C   C411      1.0  0.09380  0.18580  0.70260  1.0000 -0.0601548215
C   C412      1.0  0.07810  0.15390  0.71980  1.0000 -0.0727305044
C   C413      1.0  0.08500  0.11310  0.70890  1.0000 -0.09914227
C   C414      1.0  0.08460  0.22690  0.71110  1.0000 0.5929779319
C   C415      1.0  0.48780  0.13530  0.74870  1.0000 0.5929779319
C   C416      1.0  0.44350  0.08420  0.72030  1.0000 0.0217337423
C   C417      1.0  0.40040  0.06850  0.67870  1.0000 -0.1422486533
C   C418      1.0  0.36220  0.02100  0.65320  1.0000 0.056738849
C   C419      1.0  0.40470  0.00050  0.70800  1.0000 0.1001230703
C   C420      1.0  0.44630  0.04850  0.73460  1.0000 -0.1718658828
C   C421      1.0  0.88400  0.80740  0.59900  1.0000 0.5989356955
C   C422      1.0  0.87600  0.83560  0.57280  1.0000 -0.0516356479
C   C423      1.0  0.86350  0.87180  0.58910  1.0000 -0.0823324503
C   C424      1.0  0.85070  0.89310  0.56060  1.0000 -0.2250806117
C   C425      1.0  0.85040  0.87820  0.51580  1.0000 0.2384716951
C   C426      1.0  0.86290  0.84200  0.49950  1.0000 -0.1718658828
C   C427      1.0  0.87560  0.82070  0.52790  1.0000 -0.0904491319
C   C428      1.0  0.82190  0.88740  0.43930  1.0000 0.3982093528
C   C429      1.0  0.81930  0.92350  0.42680  1.0000 -0.0601548215
C   C430      1.0  0.83650  0.97260  0.45970  1.0000 -0.1422486533
C   C431      1.0  0.82560  0.00250  0.44190  1.0000 -0.0823324503
C   C432      1.0  0.79740  0.98320  0.39120  1.0000 -0.0601548215
C   C433      1.0  0.78020  0.93410  0.35830  1.0000 -0.0727305044
C   C434      1.0  0.79110  0.90420  0.37610  1.0000 -0.09914227
C   C435      1.0  0.78890  0.01580  0.37350  1.0000 0.5929779319
C   C436      1.0  0.75130  0.88660  0.73910  1.0000 0.5929779319
C   C437      1.0  0.77970  0.86390  0.72320  1.0000 0.0217337423
C   C438      1.0  0.82130  0.88980  0.72170  1.0000 -0.1422486533
C   C439      1.0  0.84680  0.86780  0.70900  1.0000 0.056738849
C   C440      1.0  0.79200  0.79250  0.69670  1.0000 0.1001230703
C   C441      1.0  0.76540  0.81390  0.71170  1.0000 -0.1718658828
C   C442      1.0  0.79160  0.69260  0.57660  1.0000 0.5989356955
C   C443      1.0  0.73720  0.66440  0.54040  1.0000 -0.0516356479
C   C444      1.0  0.71730  0.62820  0.49170  1.0000 -0.0823324503
C   C445      1.0  0.66750  0.60690  0.45760  1.0000 -0.2250806117
C   C446      1.0  0.63760  0.62180  0.47220  1.0000 0.2384716951
C   C447      1.0  0.65750  0.65800  0.52090  1.0000 -0.1718658828
C   C448      1.0  0.70720  0.67930  0.55490  1.0000 -0.0904491319
C   C449      1.0  0.55190  0.61260  0.43450  1.0000 0.3982093528
C   C450      1.0  0.50330  0.57650  0.39580  1.0000 -0.0601548215
C   C451      1.0  0.48710  0.52740  0.36390  1.0000 -0.1422486533
C   C452      1.0  0.43940  0.49750  0.32310  1.0000 -0.0823324503
C   C453      1.0  0.40800  0.51680  0.31420  1.0000 -0.0601548215
C   C454      1.0  0.42420  0.56590  0.34610  1.0000 -0.0727305044
C   C455      1.0  0.47190  0.59580  0.38690  1.0000 -0.09914227
C   C456      1.0  0.35770  0.48420  0.27310  1.0000 0.5929779319
C   C457      1.0  0.85250  0.61340  0.36470  1.0000 0.5929779319
C   C458      1.0  0.85930  0.63610  0.41580  1.0000 0.0217337423
C   C459      1.0  0.83190  0.61020  0.43150  1.0000 -0.1422486533
C   C460      1.0  0.84120  0.63220  0.47900  1.0000 0.056738849
C   C461      1.0  0.90420  0.70750  0.49950  1.0000 0.1001230703
C   C462      1.0  0.89780  0.68610  0.45150  1.0000 -0.1718658828
C   C463      1.0  0.61600  0.21500  0.92340  1.0000 0.5989356955
C   C464      1.0  0.62400  0.19680  0.95960  1.0000 -0.0516356479
C   C465      1.0  0.63650  0.22560  0.00830  1.0000 -0.0823324503
C   C466      1.0  0.64930  0.20990  0.04240  1.0000 -0.2250806117
C   C467      1.0  0.64960  0.16540  0.02780  1.0000 0.2384716951
C   C468      1.0  0.63710  0.13660  0.97910  1.0000 -0.1718658828
C   C469      1.0  0.62440  0.15230  0.94510  1.0000 -0.0904491319
C   C470      1.0  0.67810  0.11740  0.06550  1.0000 0.3982093528
C   C471      1.0  0.68070  0.10750  0.10420  1.0000 -0.0601548215
C   C472      1.0  0.66350  0.12320  0.13610  1.0000 -0.1422486533
C   C473      1.0  0.67440  0.11630  0.17690  1.0000 -0.0823324503
C   C474      1.0  0.70260  0.09380  0.18580  1.0000 -0.0601548215
C   C475      1.0  0.71980  0.07810  0.15390  1.0000 -0.0727305044
C   C476      1.0  0.70890  0.08500  0.11310  1.0000 -0.09914227
C   C477      1.0  0.71110  0.08460  0.22690  1.0000 0.5929779319
C   C478      1.0  0.74870  0.48780  0.13530  1.0000 0.5929779319
C   C479      1.0  0.72030  0.44350  0.08420  1.0000 0.0217337423
C   C480      1.0  0.67870  0.40040  0.06850  1.0000 -0.1422486533
C   C481      1.0  0.65320  0.36220  0.02100  1.0000 0.056738849
C   C482      1.0  0.70800  0.40470  0.00050  1.0000 0.1001230703
C   C483      1.0  0.73460  0.44630  0.04850  1.0000 -0.1718658828
C   C484      1.0  0.70840  0.28500  0.90100  1.0000 0.5989356955
C   C485      1.0  0.76280  0.30320  0.92720  1.0000 -0.0516356479
C   C486      1.0  0.78270  0.27440  0.91090  1.0000 -0.0823324503
C   C487      1.0  0.83250  0.29010  0.93940  1.0000 -0.2250806117
C   C488      1.0  0.86240  0.33460  0.98420  1.0000 0.2384716951
C   C489      1.0  0.84250  0.36340  0.00050  1.0000 -0.1718658828
C   C490      1.0  0.79280  0.34770  0.97210  1.0000 -0.0904491319
C   C491      1.0  0.94810  0.38260  0.06070  1.0000 0.3982093528
C   C492      1.0  0.99670  0.39250  0.07320  1.0000 -0.0601548215
C   C493      1.0  0.01290  0.37680  0.04030  1.0000 -0.1422486533
C   C494      1.0  0.06060  0.38370  0.05810  1.0000 -0.0823324503
C   C495      1.0  0.09200  0.40620  0.10880  1.0000 -0.0601548215
C   C496      1.0  0.07580  0.42190  0.14170  1.0000 -0.0727305044
C   C497      1.0  0.02810  0.41500  0.12390  1.0000 -0.09914227
C   C498      1.0  0.14230  0.41540  0.12650  1.0000 0.5929779319
C   C499      1.0  0.64750  0.01220  0.76090  1.0000 0.5929779319
C   C500      1.0  0.64070  0.05650  0.77680  1.0000 0.0217337423
C   C501      1.0  0.66810  0.09960  0.77830  1.0000 -0.1422486533
C   C502      1.0  0.65880  0.13780  0.79100  1.0000 0.056738849
C   C503      1.0  0.59580  0.09530  0.80330  1.0000 0.1001230703
C   C504      1.0  0.60220  0.05370  0.78830  1.0000 -0.1718658828
N   N1        1.0  0.16667  0.48610  0.86470  1.0000 -0.2671841238
N   N2        1.0  0.16950  0.56710  0.65160  1.0000 -0.3436915953
N   N3        1.0  0.12140  0.30197  0.63530  1.0000 -0.2671841238
N   N4        1.0  0.41550  0.51790  0.84840  1.0000 -0.3436915953
N   N5        1.0  0.33333  0.19803  0.31943  1.0000 -0.2671841238
N   N6        1.0  0.33050  0.98210  0.39760  1.0000 -0.3436915953
N   N7        1.0  0.37860  0.01390  0.18057  1.0000 -0.2671841238
N   N8        1.0  0.08450  0.93290  0.10240  1.0000 -0.3436915953
N   N9        1.0  0.01390  0.18057  0.37860  1.0000 -0.2671841238
N   N10       1.0  0.93290  0.10240  0.08450  1.0000 -0.3436915953
N   N11       1.0  0.19803  0.31943  0.33333  1.0000 -0.2671841238
N   N12       1.0  0.98210  0.39760  0.33050  1.0000 -0.3436915953
N   N13       1.0  0.30197  0.63530  0.12140  1.0000 -0.2671841238
N   N14       1.0  0.51790  0.84840  0.41550  1.0000 -0.3436915953
N   N15       1.0  0.48610  0.86470  0.16667  1.0000 -0.2671841238
N   N16       1.0  0.56710  0.65160  0.16950  1.0000 -0.3436915953
N   N17       1.0  0.31943  0.33333  0.19803  1.0000 -0.2671841238
N   N18       1.0  0.39760  0.33050  0.98210  1.0000 -0.3436915953
N   N19       1.0  0.18057  0.37860  0.01390  1.0000 -0.2671841238
N   N20       1.0  0.10240  0.08450  0.93290  1.0000 -0.3436915953
N   N21       1.0  0.86470  0.16667  0.48610  1.0000 -0.2671841238
N   N22       1.0  0.65160  0.16950  0.56710  1.0000 -0.3436915953
N   N23       1.0  0.63530  0.12140  0.30197  1.0000 -0.2671841238
N   N24       1.0  0.84840  0.41550  0.51790  1.0000 -0.3436915953
N   N25       1.0  0.98610  0.66667  0.36470  1.0000 -0.2671841238
N   N26       1.0  0.06710  0.66950  0.15160  1.0000 -0.3436915953
N   N27       1.0  0.80197  0.62140  0.13530  1.0000 -0.2671841238
N   N28       1.0  0.01790  0.91550  0.34840  1.0000 -0.3436915953
N   N29       1.0  0.69803  0.83333  0.81943  1.0000 -0.2671841238
N   N30       1.0  0.48210  0.83050  0.89760  1.0000 -0.3436915953
N   N31       1.0  0.51390  0.87860  0.68057  1.0000 -0.2671841238
N   N32       1.0  0.43290  0.58450  0.60240  1.0000 -0.3436915953
N   N33       1.0  0.68057  0.51390  0.87860  1.0000 -0.2671841238
N   N34       1.0  0.60240  0.43290  0.58450  1.0000 -0.3436915953
N   N35       1.0  0.81943  0.69803  0.83333  1.0000 -0.2671841238
N   N36       1.0  0.89760  0.48210  0.83050  1.0000 -0.3436915953
N   N37       1.0  0.13530  0.80197  0.62140  1.0000 -0.2671841238
N   N38       1.0  0.34840  0.01790  0.91550  1.0000 -0.3436915953
N   N39       1.0  0.36470  0.98610  0.66667  1.0000 -0.2671841238
N   N40       1.0  0.15160  0.06710  0.66950  1.0000 -0.3436915953
N   N41       1.0  0.83333  0.81943  0.69803  1.0000 -0.2671841238
N   N42       1.0  0.83050  0.89760  0.48210  1.0000 -0.3436915953
N   N43       1.0  0.87860  0.68057  0.51390  1.0000 -0.2671841238
N   N44       1.0  0.58450  0.60240  0.43290  1.0000 -0.3436915953
N   N45       1.0  0.66667  0.36470  0.98610  1.0000 -0.2671841238
N   N46       1.0  0.66950  0.15160  0.06710  1.0000 -0.3436915953
N   N47       1.0  0.62140  0.13530  0.80197  1.0000 -0.2671841238
N   N48       1.0  0.91550  0.34840  0.01790  1.0000 -0.3436915953
O   O1        1.0  0.11620  0.43850  0.75530  1.0000 -0.559532969
O   O2        1.0  0.10800  0.38160  0.68740  1.0000 -0.5677984672
O   O3        1.0  0.23560  0.73240  0.56120  1.0000 -0.5814741009
O   O4        1.0  0.19320  0.75280  0.60020  1.0000 -0.559532969
O   O5        1.0  0.24550  0.66850  0.98180  1.0000 -0.5252984667
O   O6        1.0  0.27580  0.63810  0.02690  1.0000 -0.559532969
O   O7        1.0  0.15970  0.51850  0.57660  1.0000 -0.5677984672
O   O8        1.0  0.18320  0.36090  0.74470  1.0000 -0.559532969
O   O9        1.0  0.19420  0.42060  0.81260  1.0000 -0.5677984672
O   O10       1.0  0.67120  0.67440  0.93880  1.0000 -0.5814741009
O   O11       1.0  0.65260  0.59300  0.89980  1.0000 -0.559532969
O   O12       1.0  0.18670  0.26370  0.51820  1.0000 -0.5252984667
O   O13       1.0  0.11120  0.24890  0.47310  1.0000 -0.559532969
O   O14       1.0  0.44190  0.58310  0.92340  1.0000 -0.5677984672
O   O15       1.0  0.38380  0.13910  0.32230  1.0000 -0.559532969
O   O16       1.0  0.39200  0.07940  0.27360  1.0000 -0.5677984672
O   O17       1.0  0.26440  0.82560  0.49680  1.0000 -0.5814741009
O   O18       1.0  0.30680  0.90700  0.55960  1.0000 -0.559532969
O   O19       1.0  0.25450  0.23630  0.42300  1.0000 -0.5252984667
O   O20       1.0  0.22420  0.25110  0.36230  1.0000 -0.559532969
O   O21       1.0  0.34030  0.91690  0.35880  1.0000 -0.5677984672
O   O22       1.0  0.31680  0.06150  0.17770  1.0000 -0.559532969
O   O23       1.0  0.30580  0.11840  0.22640  1.0000 -0.5677984672
O   O24       1.0  0.82880  0.76760  0.00320  1.0000 -0.5814741009
O   O25       1.0  0.84740  0.74720  0.94040  1.0000 -0.559532969
O   O26       1.0  0.31330  0.83150  0.07700  1.0000 -0.5252984667
O   O27       1.0  0.38880  0.86190  0.13770  1.0000 -0.559532969
O   O28       1.0  0.05810  0.98150  0.14120  1.0000 -0.5677984672
O   O29       1.0  0.06150  0.17770  0.31680  1.0000 -0.559532969
O   O30       1.0  0.11840  0.22640  0.30580  1.0000 -0.5677984672
O   O31       1.0  0.76760  0.00320  0.82880  1.0000 -0.5814741009
O   O32       1.0  0.74720  0.94040  0.84740  1.0000 -0.559532969
O   O33       1.0  0.83150  0.07700  0.31330  1.0000 -0.5252984667
O   O34       1.0  0.86190  0.13770  0.38880  1.0000 -0.559532969
O   O35       1.0  0.98150  0.14120  0.05810  1.0000 -0.5677984672
O   O36       1.0  0.13910  0.32230  0.38380  1.0000 -0.559532969
O   O37       1.0  0.07940  0.27360  0.39200  1.0000 -0.5677984672
O   O38       1.0  0.82560  0.49680  0.26440  1.0000 -0.5814741009
O   O39       1.0  0.90700  0.55960  0.30680  1.0000 -0.559532969
O   O40       1.0  0.23630  0.42300  0.25450  1.0000 -0.5252984667
O   O41       1.0  0.25110  0.36230  0.22420  1.0000 -0.559532969
O   O42       1.0  0.91690  0.35880  0.34030  1.0000 -0.5677984672
O   O43       1.0  0.36090  0.74470  0.18320  1.0000 -0.559532969
O   O44       1.0  0.42060  0.81260  0.19420  1.0000 -0.5677984672
O   O45       1.0  0.67440  0.93880  0.67120  1.0000 -0.5814741009
O   O46       1.0  0.59300  0.89980  0.65260  1.0000 -0.559532969
O   O47       1.0  0.26370  0.51820  0.18670  1.0000 -0.5252984667
O   O48       1.0  0.24890  0.47310  0.11120  1.0000 -0.559532969
O   O49       1.0  0.58310  0.92340  0.44190  1.0000 -0.5677984672
O   O50       1.0  0.43850  0.75530  0.11620  1.0000 -0.559532969
O   O51       1.0  0.38160  0.68740  0.10800  1.0000 -0.5677984672
O   O52       1.0  0.73240  0.56120  0.23560  1.0000 -0.5814741009
O   O53       1.0  0.75280  0.60020  0.19320  1.0000 -0.559532969
O   O54       1.0  0.66850  0.98180  0.24550  1.0000 -0.5252984667
O   O55       1.0  0.63810  0.02690  0.27580  1.0000 -0.559532969
O   O56       1.0  0.51850  0.57660  0.15970  1.0000 -0.5677984672
O   O57       1.0  0.32230  0.38380  0.13910  1.0000 -0.559532969
O   O58       1.0  0.27360  0.39200  0.07940  1.0000 -0.5677984672
O   O59       1.0  0.49680  0.26440  0.82560  1.0000 -0.5814741009
O   O60       1.0  0.55960  0.30680  0.90700  1.0000 -0.559532969
O   O61       1.0  0.42300  0.25450  0.23630  1.0000 -0.5252984667
O   O62       1.0  0.36230  0.22420  0.25110  1.0000 -0.559532969
O   O63       1.0  0.35880  0.34030  0.91690  1.0000 -0.5677984672
O   O64       1.0  0.17770  0.31680  0.06150  1.0000 -0.559532969
O   O65       1.0  0.22640  0.30580  0.11840  1.0000 -0.5677984672
O   O66       1.0  0.00320  0.82880  0.76760  1.0000 -0.5814741009
O   O67       1.0  0.94040  0.84740  0.74720  1.0000 -0.559532969
O   O68       1.0  0.07700  0.31330  0.83150  1.0000 -0.5252984667
O   O69       1.0  0.13770  0.38880  0.86190  1.0000 -0.559532969
O   O70       1.0  0.14120  0.05810  0.98150  1.0000 -0.5677984672
O   O71       1.0  0.75530  0.11620  0.43850  1.0000 -0.559532969
O   O72       1.0  0.68740  0.10800  0.38160  1.0000 -0.5677984672
O   O73       1.0  0.56120  0.23560  0.73240  1.0000 -0.5814741009
O   O74       1.0  0.60020  0.19320  0.75280  1.0000 -0.559532969
O   O75       1.0  0.98180  0.24550  0.66850  1.0000 -0.5252984667
O   O76       1.0  0.02690  0.27580  0.63810  1.0000 -0.559532969
O   O77       1.0  0.57660  0.15970  0.51850  1.0000 -0.5677984672
O   O78       1.0  0.74470  0.18320  0.36090  1.0000 -0.559532969
O   O79       1.0  0.81260  0.19420  0.42060  1.0000 -0.5677984672
O   O80       1.0  0.93880  0.67120  0.67440  1.0000 -0.5814741009
O   O81       1.0  0.89980  0.65260  0.59300  1.0000 -0.559532969
O   O82       1.0  0.51820  0.18670  0.26370  1.0000 -0.5252984667
O   O83       1.0  0.47310  0.11120  0.24890  1.0000 -0.559532969
O   O84       1.0  0.92340  0.44190  0.58310  1.0000 -0.5677984672
O   O85       1.0  0.93850  0.61620  0.25530  1.0000 -0.559532969
O   O86       1.0  0.88160  0.60800  0.18740  1.0000 -0.5677984672
O   O87       1.0  0.23240  0.73560  0.06120  1.0000 -0.5814741009
O   O88       1.0  0.25280  0.69320  0.10020  1.0000 -0.559532969
O   O89       1.0  0.16850  0.74550  0.48180  1.0000 -0.5252984667
O   O90       1.0  0.13810  0.77580  0.52690  1.0000 -0.559532969
O   O91       1.0  0.01850  0.65970  0.07660  1.0000 -0.5677984672
O   O92       1.0  0.86090  0.68320  0.24470  1.0000 -0.559532969
O   O93       1.0  0.92060  0.69420  0.31260  1.0000 -0.5677984672
O   O94       1.0  0.17440  0.17120  0.43880  1.0000 -0.5814741009
O   O95       1.0  0.09300  0.15260  0.39980  1.0000 -0.559532969
O   O96       1.0  0.76370  0.68670  0.01820  1.0000 -0.5252984667
O   O97       1.0  0.74890  0.61120  0.97310  1.0000 -0.559532969
O   O98       1.0  0.08310  0.94190  0.42340  1.0000 -0.5677984672
O   O99       1.0  0.63910  0.88380  0.82230  1.0000 -0.559532969
O   O100      1.0  0.57940  0.89200  0.77360  1.0000 -0.5677984672
O   O101      1.0  0.32560  0.76440  0.99680  1.0000 -0.5814741009
O   O102      1.0  0.40700  0.80680  0.05960  1.0000 -0.559532969
O   O103      1.0  0.73630  0.75450  0.92300  1.0000 -0.5252984667
O   O104      1.0  0.75110  0.72420  0.86230  1.0000 -0.559532969
O   O105      1.0  0.41690  0.84030  0.85880  1.0000 -0.5677984672
O   O106      1.0  0.56150  0.81680  0.67770  1.0000 -0.559532969
O   O107      1.0  0.61840  0.80580  0.72640  1.0000 -0.5677984672
O   O108      1.0  0.26760  0.32880  0.50320  1.0000 -0.5814741009
O   O109      1.0  0.24720  0.34740  0.44040  1.0000 -0.559532969
O   O110      1.0  0.33150  0.81330  0.57700  1.0000 -0.5252984667
O   O111      1.0  0.36190  0.88880  0.63770  1.0000 -0.559532969
O   O112      1.0  0.48150  0.55810  0.64120  1.0000 -0.5677984672
O   O113      1.0  0.67770  0.56150  0.81680  1.0000 -0.559532969
O   O114      1.0  0.72640  0.61840  0.80580  1.0000 -0.5677984672
O   O115      1.0  0.50320  0.26760  0.32880  1.0000 -0.5814741009
O   O116      1.0  0.44040  0.24720  0.34740  1.0000 -0.559532969
O   O117      1.0  0.57700  0.33150  0.81330  1.0000 -0.5252984667
O   O118      1.0  0.63770  0.36190  0.88880  1.0000 -0.559532969
O   O119      1.0  0.64120  0.48150  0.55810  1.0000 -0.5677984672
O   O120      1.0  0.82230  0.63910  0.88380  1.0000 -0.559532969
O   O121      1.0  0.77360  0.57940  0.89200  1.0000 -0.5677984672
O   O122      1.0  0.99680  0.32560  0.76440  1.0000 -0.5814741009
O   O123      1.0  0.05960  0.40700  0.80680  1.0000 -0.559532969
O   O124      1.0  0.92300  0.73630  0.75450  1.0000 -0.5252984667
O   O125      1.0  0.86230  0.75110  0.72420  1.0000 -0.559532969
O   O126      1.0  0.85880  0.41690  0.84030  1.0000 -0.5677984672
O   O127      1.0  0.24470  0.86090  0.68320  1.0000 -0.559532969
O   O128      1.0  0.31260  0.92060  0.69420  1.0000 -0.5677984672
O   O129      1.0  0.43880  0.17440  0.17120  1.0000 -0.5814741009
O   O130      1.0  0.39980  0.09300  0.15260  1.0000 -0.559532969
O   O131      1.0  0.01820  0.76370  0.68670  1.0000 -0.5252984667
O   O132      1.0  0.97310  0.74890  0.61120  1.0000 -0.559532969
O   O133      1.0  0.42340  0.08310  0.94190  1.0000 -0.5677984672
O   O134      1.0  0.25530  0.93850  0.61620  1.0000 -0.559532969
O   O135      1.0  0.18740  0.88160  0.60800  1.0000 -0.5677984672
O   O136      1.0  0.06120  0.23240  0.73560  1.0000 -0.5814741009
O   O137      1.0  0.10020  0.25280  0.69320  1.0000 -0.559532969
O   O138      1.0  0.48180  0.16850  0.74550  1.0000 -0.5252984667
O   O139      1.0  0.52690  0.13810  0.77580  1.0000 -0.559532969
O   O140      1.0  0.07660  0.01850  0.65970  1.0000 -0.5677984672
O   O141      1.0  0.88380  0.82230  0.63910  1.0000 -0.559532969
O   O142      1.0  0.89200  0.77360  0.57940  1.0000 -0.5677984672
O   O143      1.0  0.76440  0.99680  0.32560  1.0000 -0.5814741009
O   O144      1.0  0.80680  0.05960  0.40700  1.0000 -0.559532969
O   O145      1.0  0.75450  0.92300  0.73630  1.0000 -0.5252984667
O   O146      1.0  0.72420  0.86230  0.75110  1.0000 -0.559532969
O   O147      1.0  0.84030  0.85880  0.41690  1.0000 -0.5677984672
O   O148      1.0  0.81680  0.67770  0.56150  1.0000 -0.559532969
O   O149      1.0  0.80580  0.72640  0.61840  1.0000 -0.5677984672
O   O150      1.0  0.32880  0.50320  0.26760  1.0000 -0.5814741009
O   O151      1.0  0.34740  0.44040  0.24720  1.0000 -0.559532969
O   O152      1.0  0.81330  0.57700  0.33150  1.0000 -0.5252984667
O   O153      1.0  0.88880  0.63770  0.36190  1.0000 -0.559532969
O   O154      1.0  0.55810  0.64120  0.48150  1.0000 -0.5677984672
O   O155      1.0  0.61620  0.25530  0.93850  1.0000 -0.559532969
O   O156      1.0  0.60800  0.18740  0.88160  1.0000 -0.5677984672
O   O157      1.0  0.73560  0.06120  0.23240  1.0000 -0.5814741009
O   O158      1.0  0.69320  0.10020  0.25280  1.0000 -0.559532969
O   O159      1.0  0.74550  0.48180  0.16850  1.0000 -0.5252984667
O   O160      1.0  0.77580  0.52690  0.13810  1.0000 -0.559532969
O   O161      1.0  0.65970  0.07660  0.01850  1.0000 -0.5677984672
O   O162      1.0  0.68320  0.24470  0.86090  1.0000 -0.559532969
O   O163      1.0  0.69420  0.31260  0.92060  1.0000 -0.5677984672
O   O164      1.0  0.17120  0.43880  0.17440  1.0000 -0.5814741009
O   O165      1.0  0.15260  0.39980  0.09300  1.0000 -0.559532969
O   O166      1.0  0.68670  0.01820  0.76370  1.0000 -0.5252984667
O   O167      1.0  0.61120  0.97310  0.74890  1.0000 -0.559532969
O   O168      1.0  0.94190  0.42340  0.08310  1.0000 -0.5677984672
O   O169      1.0  0.08540  0.33540  0.75000  1.0000 -1.0411819795
O   O170      1.0  0.41460  0.16460  0.25000  1.0000 -1.0411819795
O   O171      1.0  0.16460  0.25000  0.41460  1.0000 -1.0411819795
O   O172      1.0  0.33540  0.75000  0.08540  1.0000 -1.0411819795
O   O173      1.0  0.25000  0.41460  0.16460  1.0000 -1.0411819795
O   O174      1.0  0.75000  0.08540  0.33540  1.0000 -1.0411819795
O   O175      1.0  0.83540  0.58540  0.25000  1.0000 -1.0411819795
O   O176      1.0  0.66460  0.91460  0.75000  1.0000 -1.0411819795
O   O177      1.0  0.75000  0.66460  0.91460  1.0000 -1.0411819795
O   O178      1.0  0.25000  0.83540  0.58540  1.0000 -1.0411819795
O   O179      1.0  0.91460  0.75000  0.66460  1.0000 -1.0411819795
O   O180      1.0  0.58540  0.25000  0.83540  1.0000 -1.0411819795
