# DDEC6 charges by PACMAN v1.1 (https://github.com/mtap-research/PACMAN-charge/)
data_2019[Co][nia]3[ASR]1
_chemical_formula_sum              "Co6 H24 C60 O26"
_cell_length_a       14.5976
_cell_length_b       14.5976
_cell_length_c       13.8518
_cell_angle_alpha    90
_cell_angle_beta     90
_cell_angle_gamma    120

_symmetry_space_group_name_H-M    "P 1"
_symmetry_Int_Tables_number       1

loop_
  _symmetry_equiv_pos_as_xyz
  'x, y, z'

loop_
  _atom_site_type_symbol
  _atom_site_label
  _atom_site_symmetry_multiplicity
  _atom_site_fract_x
  _atom_site_fract_y
  _atom_site_fract_z
  _atom_site_occupancy
  _atom_site_charge
Co  Co1       1.0  0.18871  0.65334  0.75000  1.0000 1.1623742513
Co  Co2       1.0  0.46463  0.81129  0.75000  1.0000 1.1623742513
Co  Co3       1.0  0.34666  0.53537  0.75000  1.0000 1.1623742513
Co  Co4       1.0  0.53537  0.34666  0.25000  1.0000 1.1623742513
Co  Co5       1.0  0.65334  0.18871  0.25000  1.0000 1.1623742513
Co  Co6       1.0  0.81129  0.46463  0.25000  1.0000 1.1623742513
H   H1        1.0  0.15260  0.87290  0.58650  1.0000 0.1215697149
H   H2        1.0  0.72030  0.84740  0.58650  1.0000 0.1215697149
H   H3        1.0  0.12710  0.27970  0.58650  1.0000 0.1215697149
H   H4        1.0  0.15260  0.87290  0.91350  1.0000 0.1215697149
H   H5        1.0  0.72030  0.84740  0.91350  1.0000 0.1215697149
H   H6        1.0  0.12710  0.27970  0.91350  1.0000 0.1215697149
H   H7        1.0  0.27970  0.12710  0.41350  1.0000 0.1215697149
H   H8        1.0  0.87290  0.15260  0.41350  1.0000 0.1215697149
H   H9        1.0  0.84740  0.72030  0.41350  1.0000 0.1215697149
H   H10       1.0  0.27970  0.12710  0.08650  1.0000 0.1215697149
H   H11       1.0  0.87290  0.15260  0.08650  1.0000 0.1215697149
H   H12       1.0  0.84740  0.72030  0.08650  1.0000 0.1215697149
H   H13       1.0  0.15920  0.15920  0.50000  1.0000 0.1289951994
H   H14       1.0  0.00000  0.84080  0.50000  1.0000 0.1289951994
H   H15       1.0  0.84080  0.00000  0.50000  1.0000 0.1289951994
H   H16       1.0  0.15920  0.15920  0.00000  1.0000 0.1289951994
H   H17       1.0  0.00000  0.84080  0.00000  1.0000 0.1289951994
H   H18       1.0  0.84080  0.00000  0.00000  1.0000 0.1289951994
H   H19       1.0  0.45290  0.00000  0.50000  1.0000 0.1289951994
H   H20       1.0  0.54710  0.54710  0.50000  1.0000 0.1289951994
H   H21       1.0  0.00000  0.45290  0.50000  1.0000 0.1289951994
H   H22       1.0  0.45290  0.00000  0.00000  1.0000 0.1289951994
H   H23       1.0  0.54710  0.54710  0.00000  1.0000 0.1289951994
H   H24       1.0  0.00000  0.45290  0.00000  1.0000 0.1289951994
C   C1        1.0  0.21030  0.92510  0.55280  1.0000 -0.1395081262
C   C2        1.0  0.30490  0.92630  0.55640  1.0000 -0.0077342219
C   C3        1.0  0.31670  0.84940  0.62000  1.0000 0.5998796256
C   C4        1.0  0.71480  0.78970  0.55280  1.0000 -0.1395081262
C   C5        1.0  0.62140  0.69510  0.55640  1.0000 -0.0077342219
C   C6        1.0  0.53270  0.68330  0.62000  1.0000 0.5998796256
C   C7        1.0  0.07490  0.28520  0.55280  1.0000 -0.1395081262
C   C8        1.0  0.07370  0.37860  0.55640  1.0000 -0.0077342219
C   C9        1.0  0.15060  0.46730  0.62000  1.0000 0.5998796256
C   C10       1.0  0.21030  0.92510  0.94720  1.0000 -0.1395081262
C   C11       1.0  0.30490  0.92630  0.94360  1.0000 -0.0077342219
C   C12       1.0  0.31670  0.84940  0.88000  1.0000 0.5998796256
C   C13       1.0  0.71480  0.78970  0.94720  1.0000 -0.1395081262
C   C14       1.0  0.62140  0.69510  0.94360  1.0000 -0.0077342219
C   C15       1.0  0.53270  0.68330  0.88000  1.0000 0.5998796256
C   C16       1.0  0.07490  0.28520  0.94720  1.0000 -0.1395081262
C   C17       1.0  0.07370  0.37860  0.94360  1.0000 -0.0077342219
C   C18       1.0  0.15060  0.46730  0.88000  1.0000 0.5998796256
C   C19       1.0  0.28520  0.07490  0.44720  1.0000 -0.1395081262
C   C20       1.0  0.37860  0.07370  0.44360  1.0000 -0.0077342219
C   C21       1.0  0.46730  0.15060  0.38000  1.0000 0.5998796256
C   C22       1.0  0.92510  0.21030  0.44720  1.0000 -0.1395081262
C   C23       1.0  0.92630  0.30490  0.44360  1.0000 -0.0077342219
C   C24       1.0  0.84940  0.31670  0.38000  1.0000 0.5998796256
C   C25       1.0  0.78970  0.71480  0.44720  1.0000 -0.1395081262
C   C26       1.0  0.69510  0.62140  0.44360  1.0000 -0.0077342219
C   C27       1.0  0.68330  0.53270  0.38000  1.0000 0.5998796256
C   C28       1.0  0.28520  0.07490  0.05280  1.0000 -0.1395081262
C   C29       1.0  0.37860  0.07370  0.05640  1.0000 -0.0077342219
C   C30       1.0  0.46730  0.15060  0.12000  1.0000 0.5998796256
C   C31       1.0  0.92510  0.21030  0.05280  1.0000 -0.1395081262
C   C32       1.0  0.92630  0.30490  0.05640  1.0000 -0.0077342219
C   C33       1.0  0.84940  0.31670  0.12000  1.0000 0.5998796256
C   C34       1.0  0.78970  0.71480  0.05280  1.0000 -0.1395081262
C   C35       1.0  0.69510  0.62140  0.05640  1.0000 -0.0077342219
C   C36       1.0  0.68330  0.53270  0.12000  1.0000 0.5998796256
C   C37       1.0  0.09550  0.09550  0.50000  1.0000 -0.1979976513
C   C38       1.0  0.00000  0.90450  0.50000  1.0000 -0.1979976513
C   C39       1.0  0.90450  0.00000  0.50000  1.0000 -0.1979976513
C   C40       1.0  0.09550  0.09550  0.00000  1.0000 -0.1979976513
C   C41       1.0  0.00000  0.90450  0.00000  1.0000 -0.1979976513
C   C42       1.0  0.90450  0.00000  0.00000  1.0000 -0.1979976513
C   C43       1.0  0.09610  0.00000  0.50000  1.0000 0.0945289428
C   C44       1.0  0.38920  0.00000  0.50000  1.0000 -0.0912131549
C   C45       1.0  0.19840  0.00000  0.50000  1.0000 0.0603702324
C   C46       1.0  0.90390  0.90390  0.50000  1.0000 0.0945289428
C   C47       1.0  0.61080  0.61080  0.50000  1.0000 -0.0912131549
C   C48       1.0  0.80160  0.80160  0.50000  1.0000 0.0603702324
C   C49       1.0  0.00000  0.09610  0.50000  1.0000 0.0945289428
C   C50       1.0  0.00000  0.38920  0.50000  1.0000 -0.0912131549
C   C51       1.0  0.00000  0.19840  0.50000  1.0000 0.0603702324
C   C52       1.0  0.09610  0.00000  0.00000  1.0000 0.0945289428
C   C53       1.0  0.38920  0.00000  0.00000  1.0000 -0.0912131549
C   C54       1.0  0.19840  0.00000  0.00000  1.0000 0.0603702324
C   C55       1.0  0.90390  0.90390  0.00000  1.0000 0.0945289428
C   C56       1.0  0.61080  0.61080  0.00000  1.0000 -0.0912131549
C   C57       1.0  0.80160  0.80160  0.00000  1.0000 0.0603702324
C   C58       1.0  0.00000  0.09610  0.00000  1.0000 0.0945289428
C   C59       1.0  0.00000  0.38920  0.00000  1.0000 -0.0912131549
C   C60       1.0  0.00000  0.19840  0.00000  1.0000 0.0603702324
O   O1        1.0  0.23170  0.76950  0.64510  1.0000 -0.5479629405
O   O2        1.0  0.40740  0.87070  0.64300  1.0000 -0.5210580099
O   O3        1.0  0.53780  0.76830  0.64510  1.0000 -0.5479629405
O   O4        1.0  0.46330  0.59260  0.64300  1.0000 -0.5210580099
O   O5        1.0  0.23050  0.46220  0.64510  1.0000 -0.5479629405
O   O6        1.0  0.12930  0.53670  0.64300  1.0000 -0.5210580099
O   O7        1.0  0.23170  0.76950  0.85490  1.0000 -0.5479629405
O   O8        1.0  0.40740  0.87070  0.85700  1.0000 -0.5210580099
O   O9        1.0  0.53780  0.76830  0.85490  1.0000 -0.5479629405
O   O10       1.0  0.46330  0.59260  0.85700  1.0000 -0.5210580099
O   O11       1.0  0.23050  0.46220  0.85490  1.0000 -0.5479629405
O   O12       1.0  0.12930  0.53670  0.85700  1.0000 -0.5210580099
O   O13       1.0  0.46220  0.23050  0.35490  1.0000 -0.5479629405
O   O14       1.0  0.53670  0.12930  0.35700  1.0000 -0.5210580099
O   O15       1.0  0.76950  0.23170  0.35490  1.0000 -0.5479629405
O   O16       1.0  0.87070  0.40740  0.35700  1.0000 -0.5210580099
O   O17       1.0  0.76830  0.53780  0.35490  1.0000 -0.5479629405
O   O18       1.0  0.59260  0.46330  0.35700  1.0000 -0.5210580099
O   O19       1.0  0.46220  0.23050  0.14510  1.0000 -0.5479629405
O   O20       1.0  0.53670  0.12930  0.14300  1.0000 -0.5210580099
O   O21       1.0  0.76950  0.23170  0.14510  1.0000 -0.5479629405
O   O22       1.0  0.87070  0.40740  0.14300  1.0000 -0.5210580099
O   O23       1.0  0.76830  0.53780  0.14510  1.0000 -0.5479629405
O   O24       1.0  0.59260  0.46330  0.14300  1.0000 -0.5210580099
O   O25       1.0  0.33333  0.66667  0.75000  1.0000 -0.8892753093
O   O26       1.0  0.66667  0.33333  0.25000  1.0000 -0.8892753093
