# DDEC6 charges by PACMAN v1.1 (https://github.com/mtap-research/PACMAN-charge/)
data_2019[La][sql]2[ASR]2
_chemical_formula_sum              "La4 H12 C28 S4 O24"
_cell_length_a       8.3809
_cell_length_b       19.52
_cell_length_c       8.6735
_cell_angle_alpha    90
_cell_angle_beta     90.755
_cell_angle_gamma    90

_symmetry_space_group_name_H-M    "P 1"
_symmetry_Int_Tables_number       1

loop_
  _symmetry_equiv_pos_as_xyz
  'x, y, z'

loop_
  _atom_site_type_symbol
  _atom_site_label
  _atom_site_symmetry_multiplicity
  _atom_site_fract_x
  _atom_site_fract_y
  _atom_site_fract_z
  _atom_site_occupancy
  _atom_site_charge
La  La1       1.0  0.68907  0.48266  0.65163  1.0000 1.9101334036
La  La2       1.0  0.81093  0.98266  0.34837  1.0000 1.9101334036
La  La3       1.0  0.31093  0.51734  0.34837  1.0000 1.9101334036
La  La4       1.0  0.18907  0.01734  0.65163  1.0000 1.9101334036
H   H1        1.0  0.44570  0.68200  0.69420  1.0000 0.1469730705
H   H2        1.0  0.51960  0.79190  0.63070  1.0000 0.1211644457
H   H3        1.0  0.77540  0.72220  0.27650  1.0000 0.1346275479
H   H4        1.0  0.05430  0.18200  0.30580  1.0000 0.1469730705
H   H5        1.0  0.98040  0.29190  0.36930  1.0000 0.1211644457
H   H6        1.0  0.72460  0.22220  0.72350  1.0000 0.1346275479
H   H7        1.0  0.55430  0.31800  0.30580  1.0000 0.1469730705
H   H8        1.0  0.48040  0.20810  0.36930  1.0000 0.1211644457
H   H9        1.0  0.22460  0.27780  0.72350  1.0000 0.1351524115
H   H10       1.0  0.94570  0.81800  0.69420  1.0000 0.1469730705
H   H11       1.0  0.01960  0.70810  0.63070  1.0000 0.1211644457
H   H12       1.0  0.27540  0.77780  0.27650  1.0000 0.1346275479
C   C1        1.0  0.66260  0.64830  0.39620  1.0000 -0.2278742298
C   C2        1.0  0.55760  0.63540  0.51770  1.0000 0.3065562368
C   C3        1.0  0.50860  0.68980  0.60850  1.0000 -0.2172182828
C   C4        1.0  0.55420  0.75560  0.57040  1.0000 -0.0702643424
C   C5        1.0  0.65030  0.76920  0.44460  1.0000 -0.0363143479
C   C6        1.0  0.70750  0.71440  0.35860  1.0000 -0.0615777813
C   C7        1.0  0.69370  0.84130  0.40040  1.0000 0.5541488946
C   C8        1.0  0.83740  0.14830  0.60380  1.0000 -0.2278742298
C   C9        1.0  0.94240  0.13540  0.48230  1.0000 0.3065562368
C   C10       1.0  0.99140  0.18980  0.39150  1.0000 -0.2172182828
C   C11       1.0  0.94580  0.25560  0.42960  1.0000 -0.0702643424
C   C12       1.0  0.84970  0.26920  0.55540  1.0000 -0.0363143479
C   C13       1.0  0.79250  0.21440  0.64140  1.0000 -0.0615777813
C   C14       1.0  0.80630  0.34130  0.59960  1.0000 0.5541488946
C   C15       1.0  0.33740  0.35170  0.60380  1.0000 -0.2278742298
C   C16       1.0  0.44240  0.36460  0.48230  1.0000 0.3065562368
C   C17       1.0  0.49140  0.31020  0.39150  1.0000 -0.2172182828
C   C18       1.0  0.44580  0.24440  0.42960  1.0000 -0.0702643424
C   C19       1.0  0.34970  0.23080  0.55540  1.0000 -0.0363143479
C   C20       1.0  0.29250  0.28560  0.64140  1.0000 -0.0615777813
C   C21       1.0  0.30630  0.15870  0.59960  1.0000 0.5541488946
C   C22       1.0  0.16260  0.85170  0.39620  1.0000 -0.2278742298
C   C23       1.0  0.05760  0.86460  0.51770  1.0000 0.3065562368
C   C24       1.0  0.00860  0.81020  0.60850  1.0000 -0.2172182828
C   C25       1.0  0.05420  0.74440  0.57040  1.0000 -0.0702643424
C   C26       1.0  0.15030  0.73080  0.44460  1.0000 -0.0363143479
C   C27       1.0  0.20750  0.78560  0.35860  1.0000 -0.0615777813
C   C28       1.0  0.19370  0.65870  0.40040  1.0000 0.5541488946
S   S1        1.0  0.71786  0.57793  0.28411  1.0000 1.249123615
S   S2        1.0  0.78214  0.07793  0.71589  1.0000 1.249123615
S   S3        1.0  0.28214  0.42207  0.71589  1.0000 1.249123615
S   S4        1.0  0.21786  0.92207  0.28411  1.0000 1.249123615
O   O1        1.0  0.78610  0.52598  0.38650  1.0000 -0.6634890616
O   O2        1.0  0.56930  0.55354  0.21100  1.0000 -0.6634890616
O   O3        1.0  0.83070  0.60052  0.16970  1.0000 -0.5631534487
O   O4        1.0  0.50530  0.57130  0.54240  1.0000 -0.7274524301
O   O5        1.0  0.64240  0.89074  0.48240  1.0000 -0.6006929904
O   O6        1.0  0.78190  0.85173  0.28730  1.0000 -0.5901192009
O   O7        1.0  0.71390  0.02598  0.61350  1.0000 -0.6634890616
O   O8        1.0  0.93070  0.05354  0.78900  1.0000 -0.6634890616
O   O9        1.0  0.66930  0.10052  0.83030  1.0000 -0.5631534487
O   O10       1.0  0.99470  0.07130  0.45760  1.0000 -0.7274524301
O   O11       1.0  0.85760  0.39074  0.51760  1.0000 -0.6006929904
O   O12       1.0  0.71810  0.35173  0.71270  1.0000 -0.5901192009
O   O13       1.0  0.21390  0.47402  0.61350  1.0000 -0.6634890616
O   O14       1.0  0.43070  0.44646  0.78900  1.0000 -0.6634890616
O   O15       1.0  0.16930  0.39948  0.83030  1.0000 -0.5631534487
O   O16       1.0  0.49470  0.42870  0.45760  1.0000 -0.7274524301
O   O17       1.0  0.35760  0.10926  0.51760  1.0000 -0.6006929904
O   O18       1.0  0.21810  0.14827  0.71270  1.0000 -0.5901192009
O   O19       1.0  0.28610  0.97402  0.38650  1.0000 -0.6659155666
O   O20       1.0  0.06930  0.94646  0.21100  1.0000 -0.6659155666
O   O21       1.0  0.33070  0.89948  0.16970  1.0000 -0.5631534487
O   O22       1.0  0.00530  0.92870  0.54240  1.0000 -0.7274524301
O   O23       1.0  0.14240  0.60926  0.48240  1.0000 -0.6006929904
O   O24       1.0  0.28190  0.64827  0.28730  1.0000 -0.5901192009
