# DDEC6 charges by PACMAN v1.1 (https://github.com/mtap-research/PACMAN-charge/)
data_2019[Cu][nan]3[ASR]6
_chemical_formula_sum              "Cu12 H132 C192 N48 O54"
_cell_length_a       24.2026
_cell_length_b       24.2026
_cell_length_c       24.2026
_cell_angle_alpha    109.471
_cell_angle_beta     109.471
_cell_angle_gamma    109.471

_symmetry_space_group_name_H-M    "P 1"
_symmetry_Int_Tables_number       1

loop_
  _symmetry_equiv_pos_as_xyz
  'x, y, z'

loop_
  _atom_site_type_symbol
  _atom_site_label
  _atom_site_symmetry_multiplicity
  _atom_site_fract_x
  _atom_site_fract_y
  _atom_site_fract_z
  _atom_site_occupancy
  _atom_site_charge
Cu  Cu1       1.0  0.50000  0.61092  0.11092  1.0000 0.7720330363
Cu  Cu2       1.0  0.50000  0.70421  0.20421  1.0000 0.8262613223
Cu  Cu3       1.0  0.50000  0.38908  0.88908  1.0000 0.7720330363
Cu  Cu4       1.0  0.50000  0.29579  0.79579  1.0000 0.8262613223
Cu  Cu5       1.0  0.38908  0.88908  0.50000  1.0000 0.7720330363
Cu  Cu6       1.0  0.29579  0.79579  0.50000  1.0000 0.8262613223
Cu  Cu7       1.0  0.61092  0.11092  0.50000  1.0000 0.7720330363
Cu  Cu8       1.0  0.70421  0.20421  0.50000  1.0000 0.8262613223
Cu  Cu9       1.0  0.11092  0.50000  0.61092  1.0000 0.7720330363
Cu  Cu10      1.0  0.20421  0.50000  0.70421  1.0000 0.8262613223
Cu  Cu11      1.0  0.88908  0.50000  0.38908  1.0000 0.7720330363
Cu  Cu12      1.0  0.79579  0.50000  0.29579  1.0000 0.8262613223
H   H1        1.0  0.48640  0.61216  0.32824  1.0000 0.1183920077
H   H2        1.0  0.50777  0.48588  0.19909  1.0000 0.127356125
H   H3        1.0  0.48432  0.55528  0.38422  1.0000 0.1183920077
H   H4        1.0  0.49919  0.42327  0.25058  1.0000 0.127356125
H   H5        1.0  0.50046  0.41315  0.34363  1.0000 0.2901221023
H   H6        1.0  0.28392  0.15816  0.67176  1.0000 0.1183920077
H   H7        1.0  0.28679  0.30868  0.80091  1.0000 0.127356125
H   H8        1.0  0.17106  0.10010  0.61578  1.0000 0.1183920077
H   H9        1.0  0.17269  0.24861  0.74942  1.0000 0.127356125
H   H10       1.0  0.06952  0.15683  0.65637  1.0000 0.2901221023
H   H11       1.0  0.51360  0.84184  0.12576  1.0000 0.1183920077
H   H12       1.0  0.49223  0.69132  0.97811  1.0000 0.127356125
H   H13       1.0  0.51568  0.89990  0.07096  1.0000 0.1183920077
H   H14       1.0  0.50081  0.75139  0.92408  1.0000 0.127356125
H   H15       1.0  0.49954  0.84317  0.91269  1.0000 0.2901221023
H   H16       1.0  0.71608  0.38784  0.87424  1.0000 0.1183920077
H   H17       1.0  0.71321  0.51412  0.02189  1.0000 0.127356125
H   H18       1.0  0.82894  0.44472  0.92904  1.0000 0.1183920077
H   H19       1.0  0.82731  0.57673  0.07592  1.0000 0.127356125
H   H20       1.0  0.93048  0.58685  0.08731  1.0000 0.2901221023
H   H21       1.0  0.38784  0.87424  0.71608  1.0000 0.1183920077
H   H22       1.0  0.51412  0.02189  0.71321  1.0000 0.127356125
H   H23       1.0  0.44472  0.92904  0.82894  1.0000 0.1183920077
H   H24       1.0  0.57673  0.07592  0.82731  1.0000 0.127356125
H   H25       1.0  0.58685  0.08731  0.93048  1.0000 0.2901221023
H   H26       1.0  0.84184  0.12576  0.51360  1.0000 0.1183920077
H   H27       1.0  0.69132  0.97811  0.49223  1.0000 0.127356125
H   H28       1.0  0.89990  0.07096  0.51568  1.0000 0.1183920077
H   H29       1.0  0.75139  0.92408  0.50081  1.0000 0.127356125
H   H30       1.0  0.84317  0.91269  0.49954  1.0000 0.2901221023
H   H31       1.0  0.15816  0.67176  0.28392  1.0000 0.1183920077
H   H32       1.0  0.30868  0.80091  0.28679  1.0000 0.127356125
H   H33       1.0  0.10010  0.61578  0.17106  1.0000 0.1183920077
H   H34       1.0  0.24861  0.74942  0.17269  1.0000 0.127356125
H   H35       1.0  0.15683  0.65637  0.06952  1.0000 0.2901221023
H   H36       1.0  0.61216  0.32824  0.48640  1.0000 0.1183920077
H   H37       1.0  0.48588  0.19909  0.50777  1.0000 0.127356125
H   H38       1.0  0.55528  0.38422  0.48432  1.0000 0.1183920077
H   H39       1.0  0.42327  0.25058  0.49919  1.0000 0.127356125
H   H40       1.0  0.41315  0.34363  0.50046  1.0000 0.2901221023
H   H41       1.0  0.12576  0.51360  0.84184  1.0000 0.1183920077
H   H42       1.0  0.97811  0.49223  0.69132  1.0000 0.127356125
H   H43       1.0  0.07096  0.51568  0.89990  1.0000 0.1183920077
H   H44       1.0  0.92408  0.50081  0.75139  1.0000 0.127356125
H   H45       1.0  0.91269  0.49954  0.84317  1.0000 0.2901221023
H   H46       1.0  0.87424  0.71608  0.38784  1.0000 0.1183920077
H   H47       1.0  0.02189  0.71321  0.51412  1.0000 0.127356125
H   H48       1.0  0.92904  0.82894  0.44472  1.0000 0.1183920077
H   H49       1.0  0.07592  0.82731  0.57673  1.0000 0.127356125
H   H50       1.0  0.08731  0.93048  0.58685  1.0000 0.2901221023
H   H51       1.0  0.32824  0.48640  0.61216  1.0000 0.1183920077
H   H52       1.0  0.19909  0.50777  0.48588  1.0000 0.127356125
H   H53       1.0  0.38422  0.48432  0.55528  1.0000 0.1183920077
H   H54       1.0  0.25058  0.49919  0.42327  1.0000 0.127356125
H   H55       1.0  0.34363  0.50046  0.41315  1.0000 0.2901221023
H   H56       1.0  0.67176  0.28392  0.15816  1.0000 0.1183920077
H   H57       1.0  0.80091  0.28679  0.30868  1.0000 0.127356125
H   H58       1.0  0.61578  0.17106  0.10010  1.0000 0.1183920077
H   H59       1.0  0.74942  0.17269  0.24861  1.0000 0.127356125
H   H60       1.0  0.65637  0.06952  0.15683  1.0000 0.2901221023
H   H61       1.0  0.51360  0.38784  0.67176  1.0000 0.1183920077
H   H62       1.0  0.49223  0.51412  0.80091  1.0000 0.127356125
H   H63       1.0  0.51568  0.44472  0.61578  1.0000 0.1183920077
H   H64       1.0  0.50081  0.57673  0.74942  1.0000 0.127356125
H   H65       1.0  0.49954  0.58685  0.65637  1.0000 0.2901221023
H   H66       1.0  0.71608  0.84184  0.32824  1.0000 0.1183920077
H   H67       1.0  0.71321  0.69132  0.19909  1.0000 0.127356125
H   H68       1.0  0.82894  0.89990  0.38422  1.0000 0.1183920077
H   H69       1.0  0.82731  0.75139  0.25058  1.0000 0.127356125
H   H70       1.0  0.93048  0.84317  0.34363  1.0000 0.2901221023
H   H71       1.0  0.48640  0.15816  0.87424  1.0000 0.1183920077
H   H72       1.0  0.50777  0.30868  0.02189  1.0000 0.127356125
H   H73       1.0  0.48432  0.10010  0.92904  1.0000 0.1183920077
H   H74       1.0  0.49919  0.24861  0.07592  1.0000 0.127356125
H   H75       1.0  0.50046  0.15683  0.08731  1.0000 0.2901221023
H   H76       1.0  0.28392  0.61216  0.12576  1.0000 0.1183920077
H   H77       1.0  0.28679  0.48588  0.97811  1.0000 0.127356125
H   H78       1.0  0.17106  0.55528  0.07096  1.0000 0.1183920077
H   H79       1.0  0.17269  0.42327  0.92408  1.0000 0.127356125
H   H80       1.0  0.06952  0.41315  0.91269  1.0000 0.2901221023
H   H81       1.0  0.61216  0.12576  0.28392  1.0000 0.1183920077
H   H82       1.0  0.48588  0.97811  0.28679  1.0000 0.127356125
H   H83       1.0  0.55528  0.07096  0.17106  1.0000 0.1183920077
H   H84       1.0  0.42327  0.92408  0.17269  1.0000 0.127356125
H   H85       1.0  0.41315  0.91269  0.06952  1.0000 0.2901221023
H   H86       1.0  0.15816  0.87424  0.48640  1.0000 0.1183920077
H   H87       1.0  0.30868  0.02189  0.50777  1.0000 0.127356125
H   H88       1.0  0.10010  0.92904  0.48432  1.0000 0.1183920077
H   H89       1.0  0.24861  0.07592  0.49919  1.0000 0.127356125
H   H90       1.0  0.15683  0.08731  0.50046  1.0000 0.2901221023
H   H91       1.0  0.84184  0.32824  0.71608  1.0000 0.1183920077
H   H92       1.0  0.69132  0.19909  0.71321  1.0000 0.127356125
H   H93       1.0  0.89990  0.38422  0.82894  1.0000 0.1183920077
H   H94       1.0  0.75139  0.25058  0.82731  1.0000 0.127356125
H   H95       1.0  0.84317  0.34363  0.93048  1.0000 0.2901221023
H   H96       1.0  0.38784  0.67176  0.51360  1.0000 0.1183920077
H   H97       1.0  0.51412  0.80091  0.49223  1.0000 0.127356125
H   H98       1.0  0.44472  0.61578  0.51568  1.0000 0.1183920077
H   H99       1.0  0.57673  0.74942  0.50081  1.0000 0.127356125
H   H100      1.0  0.58685  0.65637  0.49954  1.0000 0.2901221023
H   H101      1.0  0.87424  0.48640  0.15816  1.0000 0.1183920077
H   H102      1.0  0.02189  0.50777  0.30868  1.0000 0.127356125
H   H103      1.0  0.92904  0.48432  0.10010  1.0000 0.1183920077
H   H104      1.0  0.07592  0.49919  0.24861  1.0000 0.127356125
H   H105      1.0  0.08731  0.50046  0.15683  1.0000 0.2901221023
H   H106      1.0  0.12576  0.28392  0.61216  1.0000 0.1183920077
H   H107      1.0  0.97811  0.28679  0.48588  1.0000 0.127356125
H   H108      1.0  0.07096  0.17106  0.55528  1.0000 0.1183920077
H   H109      1.0  0.92408  0.17269  0.42327  1.0000 0.127356125
H   H110      1.0  0.91269  0.06952  0.41315  1.0000 0.2901221023
H   H111      1.0  0.67176  0.51360  0.38784  1.0000 0.1183920077
H   H112      1.0  0.80091  0.49223  0.51412  1.0000 0.127356125
H   H113      1.0  0.61578  0.51568  0.44472  1.0000 0.1183920077
H   H114      1.0  0.74942  0.50081  0.57673  1.0000 0.127356125
H   H115      1.0  0.65637  0.49954  0.58685  1.0000 0.2901221023
H   H116      1.0  0.32824  0.71608  0.84184  1.0000 0.1183920077
H   H117      1.0  0.19909  0.71321  0.69132  1.0000 0.127356125
H   H118      1.0  0.38422  0.82894  0.89990  1.0000 0.1183920077
H   H119      1.0  0.25058  0.82731  0.75139  1.0000 0.127356125
H   H120      1.0  0.34363  0.93048  0.84317  1.0000 0.2901221023
H   H121      1.0  0.53700  0.54440  0.08140  1.0000 0.3212121532
H   H122      1.0  0.46300  0.45560  0.91860  1.0000 0.3212121532
H   H123      1.0  0.46300  0.54440  0.00740  1.0000 0.3212121532
H   H124      1.0  0.53700  0.45560  0.99260  1.0000 0.3212121532
H   H125      1.0  0.45560  0.99260  0.53700  1.0000 0.3212121532
H   H126      1.0  0.54440  0.00740  0.46300  1.0000 0.3212121532
H   H127      1.0  0.45560  0.91860  0.46300  1.0000 0.3212121532
H   H128      1.0  0.54440  0.08140  0.53700  1.0000 0.3212121532
H   H129      1.0  0.00740  0.46300  0.54440  1.0000 0.3212121532
H   H130      1.0  0.99260  0.53700  0.45560  1.0000 0.3212121532
H   H131      1.0  0.08140  0.53700  0.54440  1.0000 0.3212121532
H   H132      1.0  0.91860  0.46300  0.45560  1.0000 0.3212121532
C   C1        1.0  0.49875  0.59326  0.22071  1.0000 0.5701138184
C   C2        1.0  0.49611  0.55448  0.25697  1.0000 -0.0464940016
C   C3        1.0  0.48920  0.57310  0.31210  1.0000 -0.0989679324
C   C4        1.0  0.50090  0.49930  0.23580  1.0000 -0.0989679324
C   C5        1.0  0.48620  0.53850  0.34470  1.0000 -0.1883602484
C   C6        1.0  0.49590  0.46200  0.26690  1.0000 -0.211267105
C   C7        1.0  0.48600  0.47910  0.32110  1.0000 0.2035522715
C   C8        1.0  0.45200  0.43230  0.38850  1.0000 0.5188291277
C   C9        1.0  0.37255  0.27804  0.77929  1.0000 0.5701138184
C   C10       1.0  0.29751  0.23914  0.74303  1.0000 -0.0464940016
C   C11       1.0  0.26100  0.17710  0.68790  1.0000 -0.0989679324
C   C12       1.0  0.26350  0.26510  0.76420  1.0000 -0.0989679324
C   C13       1.0  0.19380  0.14150  0.65530  1.0000 -0.1883602484
C   C14       1.0  0.19510  0.22900  0.73310  1.0000 -0.211267105
C   C15       1.0  0.15800  0.16490  0.67890  1.0000 0.2035522715
C   C16       1.0  0.04380  0.06350  0.61150  1.0000 0.5188291277
C   C17       1.0  0.50125  0.72196  0.09451  1.0000 0.5701138184
C   C18       1.0  0.50389  0.76086  0.05837  1.0000 -0.0464940016
C   C19       1.0  0.51080  0.82290  0.08390  1.0000 -0.0989679324
C   C20       1.0  0.49910  0.73490  0.99840  1.0000 -0.0989679324
C   C21       1.0  0.51380  0.85850  0.05230  1.0000 -0.1883602484
C   C22       1.0  0.50410  0.77100  0.96610  1.0000 -0.211267105
C   C23       1.0  0.51400  0.83510  0.99310  1.0000 0.2035522715
C   C24       1.0  0.54800  0.93650  0.98030  1.0000 0.5188291277
C   C25       1.0  0.62745  0.40674  0.90549  1.0000 0.5701138184
C   C26       1.0  0.70249  0.44552  0.94163  1.0000 -0.0464940016
C   C27       1.0  0.73900  0.42690  0.91610  1.0000 -0.0989679324
C   C28       1.0  0.73650  0.50070  0.00160  1.0000 -0.0989679324
C   C29       1.0  0.80620  0.46150  0.94770  1.0000 -0.1883602484
C   C30       1.0  0.80490  0.53800  0.03390  1.0000 -0.211267105
C   C31       1.0  0.84200  0.52090  0.00690  1.0000 0.2035522715
C   C32       1.0  0.95620  0.56770  0.01970  1.0000 0.5188291277
C   C33       1.0  0.40674  0.90549  0.62745  1.0000 0.5701138184
C   C34       1.0  0.44552  0.94163  0.70249  1.0000 -0.0464940016
C   C35       1.0  0.42690  0.91610  0.73900  1.0000 -0.0989679324
C   C36       1.0  0.50070  0.00160  0.73650  1.0000 -0.0989679324
C   C37       1.0  0.46150  0.94770  0.80620  1.0000 -0.1883602484
C   C38       1.0  0.53800  0.03390  0.80490  1.0000 -0.211267105
C   C39       1.0  0.52090  0.00690  0.84200  1.0000 0.2035522715
C   C40       1.0  0.56770  0.01970  0.95620  1.0000 0.5188291277
C   C41       1.0  0.72196  0.09451  0.50125  1.0000 0.5701138184
C   C42       1.0  0.76086  0.05837  0.50389  1.0000 -0.0464940016
C   C43       1.0  0.82290  0.08390  0.51080  1.0000 -0.0989679324
C   C44       1.0  0.73490  0.99840  0.49910  1.0000 -0.0989679324
C   C45       1.0  0.85850  0.05230  0.51380  1.0000 -0.1883602484
C   C46       1.0  0.77100  0.96610  0.50410  1.0000 -0.211267105
C   C47       1.0  0.83510  0.99310  0.51400  1.0000 0.2035522715
C   C48       1.0  0.93650  0.98030  0.54800  1.0000 0.5188291277
C   C49       1.0  0.27804  0.77929  0.37255  1.0000 0.5701138184
C   C50       1.0  0.23914  0.74303  0.29751  1.0000 -0.0464940016
C   C51       1.0  0.17710  0.68790  0.26100  1.0000 -0.0989679324
C   C52       1.0  0.26510  0.76420  0.26350  1.0000 -0.0989679324
C   C53       1.0  0.14150  0.65530  0.19380  1.0000 -0.1883602484
C   C54       1.0  0.22900  0.73310  0.19510  1.0000 -0.211267105
C   C55       1.0  0.16490  0.67890  0.15800  1.0000 0.2035522715
C   C56       1.0  0.06350  0.61150  0.04380  1.0000 0.5188291277
C   C57       1.0  0.59326  0.22071  0.49875  1.0000 0.5701138184
C   C58       1.0  0.55448  0.25697  0.49611  1.0000 -0.0464940016
C   C59       1.0  0.57310  0.31210  0.48920  1.0000 -0.0989679324
C   C60       1.0  0.49930  0.23580  0.50090  1.0000 -0.0989679324
C   C61       1.0  0.53850  0.34470  0.48620  1.0000 -0.1883602484
C   C62       1.0  0.46200  0.26690  0.49590  1.0000 -0.211267105
C   C63       1.0  0.47910  0.32110  0.48600  1.0000 0.2035522715
C   C64       1.0  0.43230  0.38850  0.45200  1.0000 0.5188291277
C   C65       1.0  0.09451  0.50125  0.72196  1.0000 0.5701138184
C   C66       1.0  0.05837  0.50389  0.76086  1.0000 -0.0464940016
C   C67       1.0  0.08390  0.51080  0.82290  1.0000 -0.0989679324
C   C68       1.0  0.99840  0.49910  0.73490  1.0000 -0.0989679324
C   C69       1.0  0.05230  0.51380  0.85850  1.0000 -0.1883602484
C   C70       1.0  0.96610  0.50410  0.77100  1.0000 -0.211267105
C   C71       1.0  0.99310  0.51400  0.83510  1.0000 0.2035522715
C   C72       1.0  0.98030  0.54800  0.93650  1.0000 0.5188291277
C   C73       1.0  0.90549  0.62745  0.40674  1.0000 0.5701138184
C   C74       1.0  0.94163  0.70249  0.44552  1.0000 -0.0464940016
C   C75       1.0  0.91610  0.73900  0.42690  1.0000 -0.0989679324
C   C76       1.0  0.00160  0.73650  0.50070  1.0000 -0.0989679324
C   C77       1.0  0.94770  0.80620  0.46150  1.0000 -0.1883602484
C   C78       1.0  0.03390  0.80490  0.53800  1.0000 -0.211267105
C   C79       1.0  0.00690  0.84200  0.52090  1.0000 0.2035522715
C   C80       1.0  0.01970  0.95620  0.56770  1.0000 0.5188291277
C   C81       1.0  0.22071  0.49875  0.59326  1.0000 0.5701138184
C   C82       1.0  0.25697  0.49611  0.55448  1.0000 -0.0464940016
C   C83       1.0  0.31210  0.48920  0.57310  1.0000 -0.0989679324
C   C84       1.0  0.23580  0.50090  0.49930  1.0000 -0.0989679324
C   C85       1.0  0.34470  0.48620  0.53850  1.0000 -0.1883602484
C   C86       1.0  0.26690  0.49590  0.46200  1.0000 -0.211267105
C   C87       1.0  0.32110  0.48600  0.47910  1.0000 0.2035522715
C   C88       1.0  0.38850  0.45200  0.43230  1.0000 0.5188291277
C   C89       1.0  0.77929  0.37255  0.27804  1.0000 0.5701138184
C   C90       1.0  0.74303  0.29751  0.23914  1.0000 -0.0464940016
C   C91       1.0  0.68790  0.26100  0.17710  1.0000 -0.0989679324
C   C92       1.0  0.76420  0.26350  0.26510  1.0000 -0.0989679324
C   C93       1.0  0.65530  0.19380  0.14150  1.0000 -0.1883602484
C   C94       1.0  0.73310  0.19510  0.22900  1.0000 -0.211267105
C   C95       1.0  0.67890  0.15800  0.16490  1.0000 0.2035522715
C   C96       1.0  0.61150  0.04380  0.06350  1.0000 0.5188291277
C   C97       1.0  0.50125  0.40674  0.77929  1.0000 0.5701138184
C   C98       1.0  0.50389  0.44552  0.74303  1.0000 -0.0464940016
C   C99       1.0  0.51080  0.42690  0.68790  1.0000 -0.0989679324
C   C100      1.0  0.49910  0.50070  0.76420  1.0000 -0.0989679324
C   C101      1.0  0.51380  0.46150  0.65530  1.0000 -0.1883602484
C   C102      1.0  0.50410  0.53800  0.73310  1.0000 -0.211267105
C   C103      1.0  0.51400  0.52090  0.67890  1.0000 0.2035522715
C   C104      1.0  0.54800  0.56770  0.61150  1.0000 0.5188291277
C   C105      1.0  0.62745  0.72196  0.22071  1.0000 0.5701138184
C   C106      1.0  0.70249  0.76086  0.25697  1.0000 -0.0464940016
C   C107      1.0  0.73900  0.82290  0.31210  1.0000 -0.0989679324
C   C108      1.0  0.73650  0.73490  0.23580  1.0000 -0.0989679324
C   C109      1.0  0.80620  0.85850  0.34470  1.0000 -0.1883602484
C   C110      1.0  0.80490  0.77100  0.26690  1.0000 -0.211267105
C   C111      1.0  0.84200  0.83510  0.32110  1.0000 0.2035522715
C   C112      1.0  0.95620  0.93650  0.38850  1.0000 0.5188291277
C   C113      1.0  0.49875  0.27804  0.90549  1.0000 0.5701138184
C   C114      1.0  0.49611  0.23914  0.94163  1.0000 -0.0464940016
C   C115      1.0  0.48920  0.17710  0.91610  1.0000 -0.0989679324
C   C116      1.0  0.50090  0.26510  0.00160  1.0000 -0.0989679324
C   C117      1.0  0.48620  0.14150  0.94770  1.0000 -0.1883602484
C   C118      1.0  0.49590  0.22900  0.03390  1.0000 -0.211267105
C   C119      1.0  0.48600  0.16490  0.00690  1.0000 0.2035522715
C   C120      1.0  0.45200  0.06350  0.01970  1.0000 0.5188291277
C   C121      1.0  0.37255  0.59326  0.09451  1.0000 0.5701138184
C   C122      1.0  0.29751  0.55448  0.05837  1.0000 -0.0464940016
C   C123      1.0  0.26100  0.57310  0.08390  1.0000 -0.0989679324
C   C124      1.0  0.26350  0.49930  0.99840  1.0000 -0.0989679324
C   C125      1.0  0.19380  0.53850  0.05230  1.0000 -0.1883602484
C   C126      1.0  0.19510  0.46200  0.96610  1.0000 -0.211267105
C   C127      1.0  0.15800  0.47910  0.99310  1.0000 0.2035522715
C   C128      1.0  0.04380  0.43230  0.98030  1.0000 0.5188291277
C   C129      1.0  0.59326  0.09451  0.37255  1.0000 0.5701138184
C   C130      1.0  0.55448  0.05837  0.29751  1.0000 -0.0464940016
C   C131      1.0  0.57310  0.08390  0.26100  1.0000 -0.0989679324
C   C132      1.0  0.49930  0.99840  0.26350  1.0000 -0.0989679324
C   C133      1.0  0.53850  0.05230  0.19380  1.0000 -0.1883602484
C   C134      1.0  0.46200  0.96610  0.19510  1.0000 -0.211267105
C   C135      1.0  0.47910  0.99310  0.15800  1.0000 0.2035522715
C   C136      1.0  0.43230  0.98030  0.04380  1.0000 0.5188291277
C   C137      1.0  0.27804  0.90549  0.49875  1.0000 0.5701138184
C   C138      1.0  0.23914  0.94163  0.49611  1.0000 -0.0464940016
C   C139      1.0  0.17710  0.91610  0.48920  1.0000 -0.0989679324
C   C140      1.0  0.26510  0.00160  0.50090  1.0000 -0.0989679324
C   C141      1.0  0.14150  0.94770  0.48620  1.0000 -0.1883602484
C   C142      1.0  0.22900  0.03390  0.49590  1.0000 -0.211267105
C   C143      1.0  0.16490  0.00690  0.48600  1.0000 0.2035522715
C   C144      1.0  0.06350  0.01970  0.45200  1.0000 0.5188291277
C   C145      1.0  0.72196  0.22071  0.62745  1.0000 0.5701138184
C   C146      1.0  0.76086  0.25697  0.70249  1.0000 -0.0464940016
C   C147      1.0  0.82290  0.31210  0.73900  1.0000 -0.0989679324
C   C148      1.0  0.73490  0.23580  0.73650  1.0000 -0.0989679324
C   C149      1.0  0.85850  0.34470  0.80620  1.0000 -0.1883602484
C   C150      1.0  0.77100  0.26690  0.80490  1.0000 -0.211267105
C   C151      1.0  0.83510  0.32110  0.84200  1.0000 0.2035522715
C   C152      1.0  0.93650  0.38850  0.95620  1.0000 0.5188291277
C   C153      1.0  0.40674  0.77929  0.50125  1.0000 0.5701138184
C   C154      1.0  0.44552  0.74303  0.50389  1.0000 -0.0464940016
C   C155      1.0  0.42690  0.68790  0.51080  1.0000 -0.0989679324
C   C156      1.0  0.50070  0.76420  0.49910  1.0000 -0.0989679324
C   C157      1.0  0.46150  0.65530  0.51380  1.0000 -0.1883602484
C   C158      1.0  0.53800  0.73310  0.50410  1.0000 -0.211267105
C   C159      1.0  0.52090  0.67890  0.51400  1.0000 0.2035522715
C   C160      1.0  0.56770  0.61150  0.54800  1.0000 0.5188291277
C   C161      1.0  0.90549  0.49875  0.27804  1.0000 0.5701138184
C   C162      1.0  0.94163  0.49611  0.23914  1.0000 -0.0464940016
C   C163      1.0  0.91610  0.48920  0.17710  1.0000 -0.0989679324
C   C164      1.0  0.00160  0.50090  0.26510  1.0000 -0.0989679324
C   C165      1.0  0.94770  0.48620  0.14150  1.0000 -0.1883602484
C   C166      1.0  0.03390  0.49590  0.22900  1.0000 -0.211267105
C   C167      1.0  0.00690  0.48600  0.16490  1.0000 0.2035522715
C   C168      1.0  0.01970  0.45200  0.06350  1.0000 0.5188291277
C   C169      1.0  0.09451  0.37255  0.59326  1.0000 0.5701138184
C   C170      1.0  0.05837  0.29751  0.55448  1.0000 -0.0464940016
C   C171      1.0  0.08390  0.26100  0.57310  1.0000 -0.0989679324
C   C172      1.0  0.99840  0.26350  0.49930  1.0000 -0.0989679324
C   C173      1.0  0.05230  0.19380  0.53850  1.0000 -0.1883602484
C   C174      1.0  0.96610  0.19510  0.46200  1.0000 -0.211267105
C   C175      1.0  0.99310  0.15800  0.47910  1.0000 0.2035522715
C   C176      1.0  0.98030  0.04380  0.43230  1.0000 0.5188291277
C   C177      1.0  0.77929  0.50125  0.40674  1.0000 0.5701138184
C   C178      1.0  0.74303  0.50389  0.44552  1.0000 -0.0464940016
C   C179      1.0  0.68790  0.51080  0.42690  1.0000 -0.0989679324
C   C180      1.0  0.76420  0.49910  0.50070  1.0000 -0.0989679324
C   C181      1.0  0.65530  0.51380  0.46150  1.0000 -0.1883602484
C   C182      1.0  0.73310  0.50410  0.53800  1.0000 -0.211267105
C   C183      1.0  0.67890  0.51400  0.52090  1.0000 0.2035522715
C   C184      1.0  0.61150  0.54800  0.56770  1.0000 0.5188291277
C   C185      1.0  0.22071  0.62745  0.72196  1.0000 0.5701138184
C   C186      1.0  0.25697  0.70249  0.76086  1.0000 -0.0464940016
C   C187      1.0  0.31210  0.73900  0.82290  1.0000 -0.0989679324
C   C188      1.0  0.23580  0.73650  0.73490  1.0000 -0.0989679324
C   C189      1.0  0.34470  0.80620  0.85850  1.0000 -0.1883602484
C   C190      1.0  0.26690  0.80490  0.77100  1.0000 -0.211267105
C   C191      1.0  0.32110  0.84200  0.83510  1.0000 0.2035522715
C   C192      1.0  0.38850  0.95620  0.93650  1.0000 0.5188291277
N   N1        1.0  0.48208  0.43780  0.35048  1.0000 -0.357063878
N   N2        1.0  0.46297  0.39516  0.41701  1.0000 -0.5251506371
N   N3        1.0  0.08732  0.13160  0.64952  1.0000 -0.357063878
N   N4        1.0  0.97815  0.04596  0.58299  1.0000 -0.5184653141
N   N5        1.0  0.51792  0.86840  0.95572  1.0000 -0.357063878
N   N6        1.0  0.53703  0.95404  0.93219  1.0000 -0.5251506371
N   N7        1.0  0.91268  0.56220  0.04428  1.0000 -0.357063878
N   N8        1.0  0.02185  0.60484  0.06781  1.0000 -0.5251506371
N   N9        1.0  0.56220  0.04428  0.91268  1.0000 -0.357063878
N   N10       1.0  0.60484  0.06781  0.02185  1.0000 -0.5251506371
N   N11       1.0  0.86840  0.95572  0.51792  1.0000 -0.357063878
N   N12       1.0  0.95404  0.93219  0.53703  1.0000 -0.5251506371
N   N13       1.0  0.13160  0.64952  0.08732  1.0000 -0.357063878
N   N14       1.0  0.04596  0.58299  0.97815  1.0000 -0.5251506371
N   N15       1.0  0.43780  0.35048  0.48208  1.0000 -0.357063878
N   N16       1.0  0.39516  0.41701  0.46297  1.0000 -0.5251506371
N   N17       1.0  0.95572  0.51792  0.86840  1.0000 -0.357063878
N   N18       1.0  0.93219  0.53703  0.95404  1.0000 -0.5251506371
N   N19       1.0  0.04428  0.91268  0.56220  1.0000 -0.357063878
N   N20       1.0  0.06781  0.02185  0.60484  1.0000 -0.5251506371
N   N21       1.0  0.35048  0.48208  0.43780  1.0000 -0.357063878
N   N22       1.0  0.41701  0.46297  0.39516  1.0000 -0.5251506371
N   N23       1.0  0.64952  0.08732  0.13160  1.0000 -0.357063878
N   N24       1.0  0.58299  0.97815  0.04596  1.0000 -0.5251506371
N   N25       1.0  0.51792  0.56220  0.64952  1.0000 -0.357063878
N   N26       1.0  0.53703  0.60484  0.58299  1.0000 -0.5251506371
N   N27       1.0  0.91268  0.86840  0.35048  1.0000 -0.357063878
N   N28       1.0  0.02185  0.95404  0.41701  1.0000 -0.5251506371
N   N29       1.0  0.48208  0.13160  0.04428  1.0000 -0.357063878
N   N30       1.0  0.46297  0.04596  0.06781  1.0000 -0.5251506371
N   N31       1.0  0.08732  0.43780  0.95572  1.0000 -0.357063878
N   N32       1.0  0.97815  0.39516  0.93219  1.0000 -0.5251506371
N   N33       1.0  0.43780  0.95572  0.08732  1.0000 -0.357063878
N   N34       1.0  0.39516  0.93219  0.97815  1.0000 -0.5251506371
N   N35       1.0  0.13160  0.04428  0.48208  1.0000 -0.357063878
N   N36       1.0  0.04596  0.06781  0.46297  1.0000 -0.5251506371
N   N37       1.0  0.86840  0.35048  0.91268  1.0000 -0.357063878
N   N38       1.0  0.95404  0.41701  0.02185  1.0000 -0.5251506371
N   N39       1.0  0.56220  0.64952  0.51792  1.0000 -0.357063878
N   N40       1.0  0.60484  0.58299  0.53703  1.0000 -0.5251506371
N   N41       1.0  0.04428  0.48208  0.13160  1.0000 -0.357063878
N   N42       1.0  0.06781  0.46297  0.04596  1.0000 -0.5251506371
N   N43       1.0  0.95572  0.08732  0.43780  1.0000 -0.357063878
N   N44       1.0  0.93219  0.97815  0.39516  1.0000 -0.5251506371
N   N45       1.0  0.64952  0.51792  0.56220  1.0000 -0.357063878
N   N46       1.0  0.58299  0.53703  0.60484  1.0000 -0.5251506371
N   N47       1.0  0.35048  0.91268  0.86840  1.0000 -0.357063878
N   N48       1.0  0.41701  0.02185  0.95404  1.0000 -0.5251506371
O   O1        1.0  0.49960  0.56952  0.16686  1.0000 -0.5184653141
O   O2        1.0  0.49874  0.64735  0.24639  1.0000 -0.500568788
O   O3        1.0  0.40266  0.33274  0.83314  1.0000 -0.5184653141
O   O4        1.0  0.40096  0.25235  0.75361  1.0000 -0.500568788
O   O5        1.0  0.50040  0.66726  0.06992  1.0000 -0.5184653141
O   O6        1.0  0.50126  0.74765  0.14861  1.0000 -0.500568788
O   O7        1.0  0.59734  0.43048  0.93008  1.0000 -0.5184653141
O   O8        1.0  0.59904  0.35265  0.85139  1.0000 -0.500568788
O   O9        1.0  0.43048  0.93008  0.59734  1.0000 -0.5184653141
O   O10       1.0  0.35265  0.85139  0.59904  1.0000 -0.500568788
O   O11       1.0  0.66726  0.06992  0.50040  1.0000 -0.5184653141
O   O12       1.0  0.74765  0.14861  0.50126  1.0000 -0.500568788
O   O13       1.0  0.33274  0.83314  0.40266  1.0000 -0.5184653141
O   O14       1.0  0.25235  0.75361  0.40096  1.0000 -0.500568788
O   O15       1.0  0.56952  0.16686  0.49960  1.0000 -0.5184653141
O   O16       1.0  0.64735  0.24639  0.49874  1.0000 -0.500568788
O   O17       1.0  0.06992  0.50040  0.66726  1.0000 -0.5184653141
O   O18       1.0  0.14861  0.50126  0.74765  1.0000 -0.500568788
O   O19       1.0  0.93008  0.59734  0.43048  1.0000 -0.5184653141
O   O20       1.0  0.85139  0.59904  0.35265  1.0000 -0.500568788
O   O21       1.0  0.16686  0.49960  0.56952  1.0000 -0.5184653141
O   O22       1.0  0.24639  0.49874  0.64735  1.0000 -0.500568788
O   O23       1.0  0.83314  0.40266  0.33274  1.0000 -0.5184653141
O   O24       1.0  0.75361  0.40096  0.25235  1.0000 -0.500568788
O   O25       1.0  0.50040  0.43048  0.83314  1.0000 -0.5184653141
O   O26       1.0  0.50126  0.35265  0.75361  1.0000 -0.500568788
O   O27       1.0  0.59734  0.66726  0.16686  1.0000 -0.5184653141
O   O28       1.0  0.59904  0.74765  0.24639  1.0000 -0.500568788
O   O29       1.0  0.49960  0.33274  0.93008  1.0000 -0.5184653141
O   O30       1.0  0.49874  0.25235  0.85139  1.0000 -0.500568788
O   O31       1.0  0.40266  0.56952  0.06992  1.0000 -0.5184653141
O   O32       1.0  0.40096  0.64735  0.14861  1.0000 -0.500568788
O   O33       1.0  0.56952  0.06992  0.40266  1.0000 -0.5184653141
O   O34       1.0  0.64735  0.14861  0.40096  1.0000 -0.500568788
O   O35       1.0  0.33274  0.93008  0.49960  1.0000 -0.5184653141
O   O36       1.0  0.25235  0.85139  0.49874  1.0000 -0.500568788
O   O37       1.0  0.66726  0.16686  0.59734  1.0000 -0.5184653141
O   O38       1.0  0.74765  0.24639  0.59904  1.0000 -0.500568788
O   O39       1.0  0.43048  0.83314  0.50040  1.0000 -0.5184653141
O   O40       1.0  0.35265  0.75361  0.50126  1.0000 -0.500568788
O   O41       1.0  0.93008  0.49960  0.33274  1.0000 -0.5184653141
O   O42       1.0  0.85139  0.49874  0.25235  1.0000 -0.500568788
O   O43       1.0  0.06992  0.40266  0.56952  1.0000 -0.5184653141
O   O44       1.0  0.14861  0.40096  0.64735  1.0000 -0.500568788
O   O45       1.0  0.83314  0.50040  0.43048  1.0000 -0.5184653141
O   O46       1.0  0.75361  0.50126  0.35265  1.0000 -0.500568788
O   O47       1.0  0.16686  0.59734  0.66726  1.0000 -0.5184653141
O   O48       1.0  0.24639  0.59904  0.74765  1.0000 -0.500568788
O   O49       1.0  0.50000  0.53040  0.03040  1.0000 -0.357063878
O   O50       1.0  0.50000  0.46960  0.96960  1.0000 -0.357063878
O   O51       1.0  0.46960  0.96960  0.50000  1.0000 -0.357063878
O   O52       1.0  0.53040  0.03040  0.50000  1.0000 -0.357063878
O   O53       1.0  0.03040  0.50000  0.53040  1.0000 -0.357063878
O   O54       1.0  0.96960  0.50000  0.46960  1.0000 -0.357063878
