# DDEC6 charges by PACMAN v1.1 (https://github.com/mtap-research/PACMAN-charge/)
data_2019[Tm][nan]2[ASR]1
_chemical_formula_sum              "Tm6 H82 C170 S20 O40"
_cell_length_a       18.0429
_cell_length_b       19.3054
_cell_length_c       20.1294
_cell_angle_alpha    75.469
_cell_angle_beta     72.705
_cell_angle_gamma    75.12

_symmetry_space_group_name_H-M    "P 1"
_symmetry_Int_Tables_number       1

loop_
  _symmetry_equiv_pos_as_xyz
  'x, y, z'

loop_
  _atom_site_type_symbol
  _atom_site_label
  _atom_site_symmetry_multiplicity
  _atom_site_fract_x
  _atom_site_fract_y
  _atom_site_fract_z
  _atom_site_occupancy
  _atom_site_charge
Tm  Tm1       1.0  0.61836  0.96743  0.60693  1.0000 2.0373020106
Tm  Tm2       1.0  0.26358  0.98927  0.25240  1.0000 2.0486855441
Tm  Tm3       1.0  0.08377  0.99167  0.06849  1.0000 2.0064687663
Tm  Tm4       1.0  0.38164  0.03257  0.39307  1.0000 2.0373020106
Tm  Tm5       1.0  0.73642  0.01073  0.74760  1.0000 2.0486855441
Tm  Tm6       1.0  0.91623  0.00833  0.93151  1.0000 2.0064687663
H   H1        1.0  0.64220  0.33811  0.87718  1.0000 0.1107792212
H   H2        1.0  0.75836  0.25081  0.87669  1.0000 0.1295957611
H   H3        1.0  0.63029  0.09134  0.96235  1.0000 0.1295957611
H   H4        1.0  0.51425  0.17753  0.96151  1.0000 0.1107792212
H   H5        1.0  0.31006  0.24885  0.03649  1.0000 0.1012986445
H   H6        1.0  0.28802  0.16274  0.14160  1.0000 0.1295957611
H   H7        1.0  0.48666  0.18472  0.18074  1.0000 0.119214733
H   H8        1.0  0.50939  0.27172  0.07654  1.0000 0.119214733
H   H9        1.0  0.51052  0.69049  0.75326  1.0000 0.1107792212
H   H10       1.0  0.54145  0.79950  0.67967  1.0000 0.119214733
H   H11       1.0  0.30899  0.87689  0.68455  1.0000 0.1107792212
H   H12       1.0  0.27949  0.76684  0.75552  1.0000 0.1107792212
H   H13       1.0  0.15106  0.67406  0.90561  1.0000 0.1012986445
H   H14       1.0  0.05990  0.77912  0.93134  1.0000 0.1295957611
H   H15       1.0  0.23724  0.86964  0.93582  1.0000 0.1295957611
H   H16       1.0  0.32928  0.76632  0.90447  1.0000 0.119214733
H   H17       1.0  0.92793  0.24633  0.18605  1.0000 0.1012986445
H   H18       1.0  0.04208  0.15550  0.17782  1.0000 0.1355887138
H   H19       1.0  0.03772  0.15403  0.38065  1.0000 0.1295957611
H   H20       1.0  0.92452  0.24467  0.38859  1.0000 0.119214733
H   H21       1.0  0.73004  0.31255  0.48381  1.0000 0.1107792212
H   H22       1.0  0.71929  0.21600  0.58124  1.0000 0.119214733
H   H23       1.0  0.77194  0.07268  0.44990  1.0000 0.1295957611
H   H24       1.0  0.78842  0.16777  0.35206  1.0000 0.119214733
H   H25       1.0  0.78578  0.66914  0.04208  1.0000 0.1012986445
H   H26       1.0  0.83675  0.76891  0.97022  1.0000 0.1295957611
H   H27       1.0  0.81474  0.84822  0.14496  1.0000 0.1295957611
H   H28       1.0  0.75710  0.75043  0.21646  1.0000 0.119214733
H   H29       1.0  0.60242  0.70011  0.35160  1.0000 0.119214733
H   H30       1.0  0.51697  0.81186  0.36814  1.0000 0.1295957611
H   H31       1.0  0.49167  0.84817  0.16803  1.0000 0.119214733
H   H32       1.0  0.58305  0.74138  0.14805  1.0000 0.1107792212
H   H33       1.0  0.35987  0.38169  0.41003  1.0000 0.119214733
H   H34       1.0  0.31580  0.32894  0.34189  1.0000 0.119214733
H   H35       1.0  0.31689  0.51394  0.19255  1.0000 0.1107792212
H   H36       1.0  0.36410  0.56423  0.25972  1.0000 0.1107792212
H   H37       1.0  0.24600  0.39500  0.14700  1.0000 0.337841981
H   H38       1.0  0.43063  0.69850  0.29509  1.0000 0.1107792212
H   H39       1.0  0.35332  0.80224  0.24467  1.0000 0.1107792212
H   H40       1.0  0.15681  0.71801  0.34573  1.0000 0.119214733
H   H41       1.0  0.23440  0.61536  0.40066  1.0000 0.119214733
H   H42       1.0  0.35780  0.66189  0.12282  1.0000 0.1107792212
H   H43       1.0  0.24164  0.74919  0.12331  1.0000 0.1295957611
H   H44       1.0  0.36971  0.90866  0.03765  1.0000 0.1295957611
H   H45       1.0  0.48575  0.82247  0.03849  1.0000 0.1107792212
H   H46       1.0  0.68994  0.75115  0.96351  1.0000 0.1012986445
H   H47       1.0  0.71198  0.83726  0.85840  1.0000 0.1295957611
H   H48       1.0  0.51334  0.81528  0.81926  1.0000 0.119214733
H   H49       1.0  0.49061  0.72828  0.92346  1.0000 0.119214733
H   H50       1.0  0.48948  0.30951  0.24674  1.0000 0.1107792212
H   H51       1.0  0.45855  0.20050  0.32033  1.0000 0.119214733
H   H52       1.0  0.69101  0.12311  0.31545  1.0000 0.1107792212
H   H53       1.0  0.72051  0.23316  0.24448  1.0000 0.1107792212
H   H54       1.0  0.84894  0.32594  0.09439  1.0000 0.1012986445
H   H55       1.0  0.94010  0.22088  0.06866  1.0000 0.1295957611
H   H56       1.0  0.76276  0.13036  0.06418  1.0000 0.1295957611
H   H57       1.0  0.67072  0.23368  0.09553  1.0000 0.119214733
H   H58       1.0  0.07207  0.75367  0.81395  1.0000 0.1012986445
H   H59       1.0  0.95792  0.84450  0.82218  1.0000 0.1355887138
H   H60       1.0  0.96228  0.84597  0.61935  1.0000 0.1295957611
H   H61       1.0  0.07548  0.75533  0.61141  1.0000 0.119214733
H   H62       1.0  0.26996  0.68745  0.51619  1.0000 0.1107792212
H   H63       1.0  0.28071  0.78400  0.41876  1.0000 0.119214733
H   H64       1.0  0.22806  0.92732  0.55010  1.0000 0.1295957611
H   H65       1.0  0.21158  0.83223  0.64794  1.0000 0.119214733
H   H66       1.0  0.21422  0.33086  0.95792  1.0000 0.1012986445
H   H67       1.0  0.16325  0.23109  0.02978  1.0000 0.1295957611
H   H68       1.0  0.18526  0.15178  0.85504  1.0000 0.1295957611
H   H69       1.0  0.24290  0.24957  0.78354  1.0000 0.119214733
H   H70       1.0  0.39758  0.29989  0.64840  1.0000 0.119214733
H   H71       1.0  0.48303  0.18814  0.63186  1.0000 0.1295957611
H   H72       1.0  0.50833  0.15183  0.83197  1.0000 0.119214733
H   H73       1.0  0.41695  0.25862  0.85195  1.0000 0.1107792212
H   H74       1.0  0.64013  0.61831  0.58997  1.0000 0.119214733
H   H75       1.0  0.68420  0.67106  0.65811  1.0000 0.119214733
H   H76       1.0  0.68311  0.48606  0.80745  1.0000 0.1107792212
H   H77       1.0  0.63590  0.43577  0.74028  1.0000 0.1107792212
H   H78       1.0  0.75400  0.60500  0.85300  1.0000 0.337841981
H   H79       1.0  0.56937  0.30150  0.70491  1.0000 0.1107792212
H   H80       1.0  0.64668  0.19776  0.75533  1.0000 0.1107792212
H   H81       1.0  0.84319  0.28199  0.65427  1.0000 0.119214733
H   H82       1.0  0.76560  0.38464  0.59934  1.0000 0.119214733
C   C1        1.0  0.40070  0.44405  0.89072  1.0000 -0.0983713373
C   C2        1.0  0.37540  0.51476  0.86798  1.0000 -0.0983713373
C   C3        1.0  0.49280  0.32162  0.92589  1.0000 -0.0308907249
C   C4        1.0  0.42550  0.32217  0.97851  1.0000 -0.0492732988
C   C5        1.0  0.37030  0.65182  0.81350  1.0000 -0.0308907249
C   C6        1.0  0.30690  0.64939  0.86965  1.0000 -0.0590222686
C   C7        1.0  0.56620  0.26648  0.92230  1.0000 0.0824260571
C   C8        1.0  0.63980  0.28810  0.89505  1.0000 -0.1670088927
C   C9        1.0  0.70870  0.23610  0.89440  1.0000 -0.0888895587
C   C10       1.0  0.70630  0.16296  0.91919  1.0000 -0.0204496867
C   C11       1.0  0.63250  0.14148  0.94505  1.0000 -0.0888895587
C   C12       1.0  0.56380  0.19261  0.94541  1.0000 -0.1400843496
C   C13       1.0  0.78050  0.10800  0.91987  1.0000 0.568184846
C   C14       1.0  0.41230  0.26800  0.04584  1.0000 0.0885736079
C   C15       1.0  0.34620  0.23580  0.06565  1.0000 -0.1593925841
C   C16       1.0  0.33320  0.18458  0.12807  1.0000 -0.0788914478
C   C17       1.0  0.38590  0.16533  0.17059  1.0000 -0.0204496867
C   C18       1.0  0.45090  0.19780  0.15125  1.0000 -0.0788914478
C   C19       1.0  0.46470  0.24937  0.08925  1.0000 -0.148625671
C   C20       1.0  0.37090  0.11190  0.23902  1.0000 0.6586052312
C   C21       1.0  0.39220  0.71856  0.76367  1.0000 0.0701031947
C   C22       1.0  0.46940  0.72847  0.73980  1.0000 -0.148625671
C   C23       1.0  0.48800  0.79351  0.69611  1.0000 -0.0888895587
C   C24       1.0  0.42760  0.84974  0.67668  1.0000 -0.0120370091
C   C25       1.0  0.35010  0.83930  0.69868  1.0000 -0.1062082379
C   C26       1.0  0.33250  0.77400  0.74130  1.0000 -0.148625671
C   C27       1.0  0.44430  0.92230  0.63235  1.0000 0.6339493328
C   C28       1.0  0.24930  0.71191  0.89667  1.0000 0.0885736079
C   C29       1.0  0.16900  0.71500  0.90870  1.0000 -0.1670088927
C   C30       1.0  0.11470  0.77690  0.92510  1.0000 -0.0888895587
C   C31       1.0  0.13990  0.83573  0.93237  1.0000 -0.0204496867
C   C32       1.0  0.22030  0.83090  0.92699  1.0000 -0.0888895587
C   C33       1.0  0.27470  0.76950  0.90880  1.0000 -0.1318563065
C   C34       1.0  0.08050  0.90460  0.94340  1.0000 0.6508063608
C   C35       1.0  0.74670  0.43352  0.26503  1.0000 -0.1062082379
C   C36       1.0  0.72280  0.50535  0.24235  1.0000 -0.0983713373
C   C37       1.0  0.84120  0.30969  0.29349  1.0000 -0.0590222686
C   C38       1.0  0.77380  0.30885  0.34660  1.0000 -0.0492732988
C   C39       1.0  0.72860  0.63929  0.18185  1.0000 -0.0590222686
C   C40       1.0  0.66090  0.64247  0.23389  1.0000 -0.0590222686
C   C41       1.0  0.91380  0.25406  0.28845  1.0000 0.0824260571
C   C42       1.0  0.95010  0.22730  0.22580  1.0000 -0.1593925841
C   C43       1.0  0.01820  0.17340  0.22070  1.0000 -0.0788914478
C   C44       1.0  0.05140  0.14557  0.27862  1.0000 -0.0120370091
C   C45       1.0  0.01540  0.17280  0.34098  1.0000 -0.0888895587
C   C46       1.0  0.94790  0.22640  0.34590  1.0000 -0.1400843496
C   C47       1.0  0.12320  0.08720  0.27344  1.0000 0.568184846
C   C48       1.0  0.76210  0.24865  0.40868  1.0000 0.1012986445
C   C49       1.0  0.74010  0.26370  0.47692  1.0000 -0.1593925841
C   C50       1.0  0.73300  0.20660  0.53453  1.0000 -0.0788914478
C   C51       1.0  0.74610  0.13504  0.52404  1.0000 -0.0308907249
C   C52       1.0  0.76500  0.12111  0.45669  1.0000 -0.0888895587
C   C53       1.0  0.77410  0.17760  0.39866  1.0000 -0.1400843496
C   C54       1.0  0.73790  0.07510  0.58755  1.0000 0.6586052312
C   C55       1.0  0.76370  0.70134  0.13590  1.0000 0.0885736079
C   C56       1.0  0.78980  0.70660  0.06290  1.0000 -0.1670088927
C   C57       1.0  0.82140  0.76510  0.02020  1.0000 -0.0888895587
C   C58       1.0  0.83060  0.81817  0.05016  1.0000 -0.0120370091
C   C59       1.0  0.80730  0.81230  0.12403  1.0000 -0.0888895587
C   C60       1.0  0.77350  0.75410  0.16650  1.0000 -0.1400843496
C   C61       1.0  0.86410  0.88290  0.00500  1.0000 0.568184846
C   C62       1.0  0.60400  0.71069  0.24745  1.0000 0.0885736079
C   C63       1.0  0.58200  0.73110  0.31365  1.0000 -0.1670088927
C   C64       1.0  0.53000  0.79700  0.32380  1.0000 -0.0888895587
C   C65       1.0  0.49680  0.84165  0.26899  1.0000 -0.0308907249
C   C66       1.0  0.51580  0.81920  0.20457  1.0000 -0.0888895587
C   C67       1.0  0.56940  0.75530  0.19287  1.0000 -0.1593925841
C   C68       1.0  0.43850  0.91130  0.28083  1.0000 0.6586052312
C   C69       1.0  0.48020  0.50980  0.47470  1.0000 -0.0983713373
C   C70       1.0  0.40000  0.51030  0.38490  1.0000 -0.0492732988
C   C71       1.0  0.39030  0.58080  0.38810  1.0000 -0.0590222686
C   C72       1.0  0.36720  0.47900  0.34250  1.0000 0.0885736079
C   C73       1.0  0.35170  0.40870  0.36550  1.0000 -0.148625671
C   C74       1.0  0.32480  0.37740  0.32520  1.0000 -0.0888895587
C   C75       1.0  0.31050  0.41580  0.26010  1.0000 -0.0308907249
C   C76       1.0  0.32580  0.48650  0.23670  1.0000 -0.1062082379
C   C77       1.0  0.35360  0.51630  0.27700  1.0000 -0.148625671
C   C78       1.0  0.27980  0.37930  0.21930  1.0000 0.5404269033
C   C79       1.0  0.34070  0.64600  0.35290  1.0000 0.0824260571
C   C80       1.0  0.37490  0.70250  0.30630  1.0000 -0.1593925841
C   C81       1.0  0.32880  0.76430  0.27621  1.0000 -0.0888895587
C   C82       1.0  0.24740  0.77180  0.29130  1.0000 -0.0204496867
C   C83       1.0  0.21230  0.71480  0.33650  1.0000 -0.0983713373
C   C84       1.0  0.25890  0.65300  0.36830  1.0000 -0.148625671
C   C85       1.0  0.19640  0.84120  0.26150  1.0000 0.6007175379
C   C86       1.0  0.59930  0.55595  0.10928  1.0000 -0.0983713373
C   C87       1.0  0.62460  0.48524  0.13202  1.0000 -0.0983713373
C   C88       1.0  0.50720  0.67838  0.07411  1.0000 -0.0308907249
C   C89       1.0  0.57450  0.67783  0.02149  1.0000 -0.0492732988
C   C90       1.0  0.62970  0.34818  0.18650  1.0000 -0.0308907249
C   C91       1.0  0.69310  0.35061  0.13035  1.0000 -0.0590222686
C   C92       1.0  0.43380  0.73352  0.07770  1.0000 0.0824260571
C   C93       1.0  0.36020  0.71190  0.10495  1.0000 -0.1670088927
C   C94       1.0  0.29130  0.76390  0.10560  1.0000 -0.0888895587
C   C95       1.0  0.29370  0.83704  0.08081  1.0000 -0.0204496867
C   C96       1.0  0.36750  0.85852  0.05495  1.0000 -0.0888895587
C   C97       1.0  0.43620  0.80739  0.05459  1.0000 -0.1400843496
C   C98       1.0  0.21950  0.89200  0.08013  1.0000 0.568184846
C   C99       1.0  0.58770  0.73200  0.95416  1.0000 0.0885736079
C   C100      1.0  0.65380  0.76420  0.93435  1.0000 -0.1593925841
C   C101      1.0  0.66680  0.81542  0.87193  1.0000 -0.0788914478
C   C102      1.0  0.61410  0.83467  0.82941  1.0000 -0.0204496867
C   C103      1.0  0.54910  0.80220  0.84875  1.0000 -0.0788914478
C   C104      1.0  0.53530  0.75063  0.91075  1.0000 -0.148625671
C   C105      1.0  0.62910  0.88810  0.76098  1.0000 0.6586052312
C   C106      1.0  0.60780  0.28144  0.23633  1.0000 0.0701031947
C   C107      1.0  0.53060  0.27153  0.26020  1.0000 -0.148625671
C   C108      1.0  0.51200  0.20649  0.30389  1.0000 -0.0888895587
C   C109      1.0  0.57240  0.15026  0.32332  1.0000 -0.0120370091
C   C110      1.0  0.64990  0.16070  0.30132  1.0000 -0.1062082379
C   C111      1.0  0.66750  0.22600  0.25870  1.0000 -0.148625671
C   C112      1.0  0.55570  0.07770  0.36765  1.0000 0.6339493328
C   C113      1.0  0.75070  0.28809  0.10333  1.0000 0.0885736079
C   C114      1.0  0.83100  0.28500  0.09130  1.0000 -0.1670088927
C   C115      1.0  0.88530  0.22310  0.07490  1.0000 -0.0888895587
C   C116      1.0  0.86010  0.16427  0.06763  1.0000 -0.0204496867
C   C117      1.0  0.77970  0.16910  0.07301  1.0000 -0.0888895587
C   C118      1.0  0.72530  0.23050  0.09120  1.0000 -0.1318563065
C   C119      1.0  0.91950  0.09540  0.05660  1.0000 0.6508063608
C   C120      1.0  0.25330  0.56648  0.73497  1.0000 -0.1062082379
C   C121      1.0  0.27720  0.49465  0.75765  1.0000 -0.0983713373
C   C122      1.0  0.15880  0.69031  0.70651  1.0000 -0.0590222686
C   C123      1.0  0.22620  0.69115  0.65340  1.0000 -0.0492732988
C   C124      1.0  0.27140  0.36071  0.81815  1.0000 -0.0590222686
C   C125      1.0  0.33910  0.35753  0.76611  1.0000 -0.0590222686
C   C126      1.0  0.08620  0.74594  0.71155  1.0000 0.0824260571
C   C127      1.0  0.04990  0.77270  0.77420  1.0000 -0.1593925841
C   C128      1.0  0.98180  0.82660  0.77930  1.0000 -0.0788914478
C   C129      1.0  0.94860  0.85443  0.72138  1.0000 -0.0204496867
C   C130      1.0  0.98460  0.82720  0.65902  1.0000 -0.0888895587
C   C131      1.0  0.05210  0.77360  0.65410  1.0000 -0.1400843496
C   C132      1.0  0.87680  0.91280  0.72656  1.0000 0.568184846
C   C133      1.0  0.23790  0.75135  0.59132  1.0000 0.1012986445
C   C134      1.0  0.25990  0.73630  0.52308  1.0000 -0.1593925841
C   C135      1.0  0.26700  0.79340  0.46547  1.0000 -0.0788914478
C   C136      1.0  0.25390  0.86496  0.47596  1.0000 -0.0308907249
C   C137      1.0  0.23500  0.87889  0.54331  1.0000 -0.0888895587
C   C138      1.0  0.22590  0.82240  0.60134  1.0000 -0.1400843496
C   C139      1.0  0.26210  0.92490  0.41245  1.0000 0.6586052312
C   C140      1.0  0.23630  0.29866  0.86410  1.0000 0.0885736079
C   C141      1.0  0.21020  0.29340  0.93710  1.0000 -0.1670088927
C   C142      1.0  0.17860  0.23490  0.97980  1.0000 -0.0888895587
C   C143      1.0  0.16940  0.18183  0.94984  1.0000 -0.0120370091
C   C144      1.0  0.19270  0.18770  0.87597  1.0000 -0.0888895587
C   C145      1.0  0.22650  0.24590  0.83350  1.0000 -0.1400843496
C   C146      1.0  0.13590  0.11710  0.99500  1.0000 0.568184846
C   C147      1.0  0.39600  0.28931  0.75255  1.0000 0.0885736079
C   C148      1.0  0.41800  0.26890  0.68635  1.0000 -0.1670088927
C   C149      1.0  0.47000  0.20300  0.67620  1.0000 -0.0888895587
C   C150      1.0  0.50320  0.15835  0.73101  1.0000 -0.0308907249
C   C151      1.0  0.48420  0.18080  0.79543  1.0000 -0.0888895587
C   C152      1.0  0.43060  0.24470  0.80713  1.0000 -0.1593925841
C   C153      1.0  0.56150  0.08870  0.71917  1.0000 0.6586052312
C   C154      1.0  0.51980  0.49020  0.52530  1.0000 -0.0983713373
C   C155      1.0  0.60000  0.48970  0.61510  1.0000 -0.0492732988
C   C156      1.0  0.60970  0.41920  0.61190  1.0000 -0.0590222686
C   C157      1.0  0.63280  0.52100  0.65750  1.0000 0.0885736079
C   C158      1.0  0.64830  0.59130  0.63450  1.0000 -0.148625671
C   C159      1.0  0.67520  0.62260  0.67480  1.0000 -0.0888895587
C   C160      1.0  0.68950  0.58420  0.73990  1.0000 -0.0308907249
C   C161      1.0  0.67420  0.51350  0.76330  1.0000 -0.1062082379
C   C162      1.0  0.64640  0.48370  0.72300  1.0000 -0.148625671
C   C163      1.0  0.72020  0.62070  0.78070  1.0000 0.5404269033
C   C164      1.0  0.65930  0.35400  0.64710  1.0000 0.0824260571
C   C165      1.0  0.62510  0.29750  0.69370  1.0000 -0.1593925841
C   C166      1.0  0.67120  0.23570  0.72379  1.0000 -0.0888895587
C   C167      1.0  0.75260  0.22820  0.70870  1.0000 -0.0204496867
C   C168      1.0  0.78770  0.28520  0.66350  1.0000 -0.0983713373
C   C169      1.0  0.74110  0.34700  0.63170  1.0000 -0.148625671
C   C170      1.0  0.80360  0.15880  0.73850  1.0000 0.6007175379
S   S1        1.0  0.49055  0.39277  0.85123  1.0000 0.0701031947
S   S2        1.0  0.34509  0.39368  0.96626  1.0000 0.0402246349
S   S3        1.0  0.42783  0.56752  0.79327  1.0000 0.0539081962
S   S4        1.0  0.28590  0.56308  0.91293  1.0000 0.0402246349
S   S5        1.0  0.83761  0.38468  0.22240  1.0000 0.0595621605
S   S6        1.0  0.69293  0.38090  0.33909  1.0000 0.0701031947
S   S7        1.0  0.78148  0.55213  0.16686  1.0000 0.0595621605
S   S8        1.0  0.63424  0.55893  0.28196  1.0000 0.0701031947
S   S9        1.0  0.46229  0.44660  0.43464  1.0000 0.0402246349
S   S10       1.0  0.44064  0.60104  0.44149  1.0000 0.0701031947
S   S11       1.0  0.50945  0.60723  0.14877  1.0000 0.0701031947
S   S12       1.0  0.65491  0.60632  0.03374  1.0000 0.0402246349
S   S13       1.0  0.57217  0.43248  0.20673  1.0000 0.0539081962
S   S14       1.0  0.71410  0.43692  0.08707  1.0000 0.0402246349
S   S15       1.0  0.16239  0.61532  0.77760  1.0000 0.0595621605
S   S16       1.0  0.30707  0.61910  0.66091  1.0000 0.0701031947
S   S17       1.0  0.21852  0.44787  0.83314  1.0000 0.0595621605
S   S18       1.0  0.36576  0.44107  0.71804  1.0000 0.0701031947
S   S19       1.0  0.53771  0.55340  0.56536  1.0000 0.0402246349
S   S20       1.0  0.55936  0.39896  0.55851  1.0000 0.0701031947
O   O1        1.0  0.84578  0.12841  0.90067  1.0000 -0.6349436111
O   O2        1.0  0.77725  0.04032  0.94159  1.0000 -0.6349436111
O   O3        1.0  0.31007  0.08384  0.25546  1.0000 -0.7343987293
O   O4        1.0  0.41754  0.09698  0.27788  1.0000 -0.6388756699
O   O5        1.0  0.51619  0.92762  0.60518  1.0000 -0.7468391574
O   O6        1.0  0.38677  0.97273  0.62445  1.0000 -0.5219749576
O   O7        1.0  0.09090  0.94512  0.97665  1.0000 -0.6685882575
O   O8        1.0  0.02396  0.91744  0.91660  1.0000 -0.6388756699
O   O9        1.0  0.15578  0.06547  0.21409  1.0000 -0.6685882575
O   O10       1.0  0.15327  0.05962  0.32521  1.0000 -0.6046949095
O   O11       1.0  0.72423  0.01620  0.58220  1.0000 -0.7468391574
O   O12       1.0  0.74636  0.08692  0.64257  1.0000 -0.6388756699
O   O13       1.0  0.87148  0.89654  0.93968  1.0000 -0.5862457818
O   O14       1.0  0.88280  0.92438  0.03527  1.0000 -0.6388756699
O   O15       1.0  0.44138  0.94105  0.32852  1.0000 -0.6778569884
O   O16       1.0  0.39179  0.93486  0.24158  1.0000 -0.6778569884
O   O17       1.0  0.26370  0.31880  0.24200  1.0000 -0.5066492624
O   O18       1.0  0.26860  0.42110  0.15970  1.0000 -0.4873216814
O   O19       1.0  0.22911  0.89630  0.23254  1.0000 -0.7144775457
O   O20       1.0  0.12600  0.84260  0.26720  1.0000 -0.4787742859
O   O21       1.0  0.15422  0.87159  0.09933  1.0000 -0.6349436111
O   O22       1.0  0.22275  0.95968  0.05841  1.0000 -0.6349436111
O   O23       1.0  0.68993  0.91616  0.74454  1.0000 -0.7343987293
O   O24       1.0  0.58246  0.90302  0.72212  1.0000 -0.6388756699
O   O25       1.0  0.48381  0.07238  0.39482  1.0000 -0.7468391574
O   O26       1.0  0.61323  0.02727  0.37555  1.0000 -0.5219749576
O   O27       1.0  0.90910  0.05488  0.02335  1.0000 -0.6685882575
O   O28       1.0  0.97604  0.08256  0.08340  1.0000 -0.6388756699
O   O29       1.0  0.84422  0.93453  0.78591  1.0000 -0.6685882575
O   O30       1.0  0.84673  0.94038  0.67479  1.0000 -0.6046949095
O   O31       1.0  0.27577  0.98380  0.41780  1.0000 -0.7468391574
O   O32       1.0  0.25364  0.91308  0.35743  1.0000 -0.6388756699
O   O33       1.0  0.12852  0.10346  0.06032  1.0000 -0.5862457818
O   O34       1.0  0.11720  0.07562  0.96473  1.0000 -0.6388756699
O   O35       1.0  0.55862  0.05895  0.67148  1.0000 -0.6778569884
O   O36       1.0  0.60821  0.06514  0.75842  1.0000 -0.6778569884
O   O37       1.0  0.73630  0.68120  0.75800  1.0000 -0.5066492624
O   O38       1.0  0.73140  0.57890  0.84030  1.0000 -0.4873216814
O   O39       1.0  0.77089  0.10370  0.76746  1.0000 -0.7144775457
O   O40       1.0  0.87400  0.15740  0.73280  1.0000 -0.4787742859
