# DDEC6 charges by PACMAN v1.1 (https://github.com/mtap-research/PACMAN-charge/)
data_2019[Cd][rtl]3[ASR]1
_chemical_formula_sum              "Cd4 H12 C36 O24"
_cell_length_a       10.1781
_cell_length_b       12.2779
_cell_length_c       14.9454
_cell_angle_alpha    90
_cell_angle_beta     105.826
_cell_angle_gamma    90

_symmetry_space_group_name_H-M    "P 1"
_symmetry_Int_Tables_number       1

loop_
  _symmetry_equiv_pos_as_xyz
  'x, y, z'

loop_
  _atom_site_type_symbol
  _atom_site_label
  _atom_site_symmetry_multiplicity
  _atom_site_fract_x
  _atom_site_fract_y
  _atom_site_fract_z
  _atom_site_occupancy
  _atom_site_charge
Cd  Cd1       1.0  0.31946  0.93056  0.93701  1.0000 1.013085365
Cd  Cd2       1.0  0.68054  0.43056  0.56299  1.0000 1.013085365
Cd  Cd3       1.0  0.68054  0.06944  0.06299  1.0000 1.013085365
Cd  Cd4       1.0  0.31946  0.56944  0.43701  1.0000 1.013085365
H   H1        1.0  0.57110  0.67440  0.80650  1.0000 0.1298162238
H   H2        1.0  0.83660  0.88800  0.96240  1.0000 0.1298162238
H   H3        1.0  0.96800  0.68400  0.79000  1.0000 0.1298162238
H   H4        1.0  0.42890  0.17440  0.69350  1.0000 0.1298162238
H   H5        1.0  0.16340  0.38800  0.53760  1.0000 0.1298162238
H   H6        1.0  0.03200  0.18400  0.71000  1.0000 0.1298162238
H   H7        1.0  0.42890  0.32560  0.19350  1.0000 0.1298162238
H   H8        1.0  0.16340  0.11200  0.03760  1.0000 0.1298162238
H   H9        1.0  0.03200  0.31600  0.21000  1.0000 0.1298162238
H   H10       1.0  0.57110  0.82560  0.30650  1.0000 0.1298162238
H   H11       1.0  0.83660  0.61200  0.46240  1.0000 0.1298162238
H   H12       1.0  0.96800  0.81600  0.29000  1.0000 0.1298162238
C   C1        1.0  0.65820  0.70459  0.82468  1.0000 -0.0962059363
C   C2        1.0  0.56970  0.83740  0.92164  1.0000 0.5641514059
C   C3        1.0  0.72700  0.57869  0.71226  1.0000 0.5269762274
C   C4        1.0  0.06210  0.84071  0.90688  1.0000 0.5269762274
C   C5        1.0  0.91960  0.79301  0.88086  1.0000 0.0093408246
C   C6        1.0  0.68540  0.78884  0.88903  1.0000 -0.0035614875
C   C7        1.0  0.75950  0.66463  0.78700  1.0000 -0.0035614875
C   C8        1.0  0.88970  0.70946  0.81501  1.0000 -0.1082558636
C   C9        1.0  0.81720  0.83268  0.91827  1.0000 -0.0962059363
C   C10       1.0  0.34180  0.20459  0.67532  1.0000 -0.0945670981
C   C11       1.0  0.43030  0.33740  0.57836  1.0000 0.5641514059
C   C12       1.0  0.27300  0.07869  0.78774  1.0000 0.5269762274
C   C13       1.0  0.93790  0.34071  0.59312  1.0000 0.5269762274
C   C14       1.0  0.08040  0.29301  0.61914  1.0000 0.0093408246
C   C15       1.0  0.31460  0.28884  0.61097  1.0000 -0.0035614875
C   C16       1.0  0.24050  0.16463  0.71300  1.0000 -0.0035614875
C   C17       1.0  0.11030  0.20946  0.68499  1.0000 -0.1082558636
C   C18       1.0  0.18280  0.33268  0.58173  1.0000 -0.0962059363
C   C19       1.0  0.34180  0.29541  0.17532  1.0000 -0.0962059363
C   C20       1.0  0.43030  0.16260  0.07836  1.0000 0.5641514059
C   C21       1.0  0.27300  0.42131  0.28774  1.0000 0.5269762274
C   C22       1.0  0.93790  0.15929  0.09312  1.0000 0.5269762274
C   C23       1.0  0.08040  0.20699  0.11914  1.0000 0.0093408246
C   C24       1.0  0.31460  0.21116  0.11097  1.0000 -0.0035614875
C   C25       1.0  0.24050  0.33537  0.21300  1.0000 -0.0035614875
C   C26       1.0  0.11030  0.29054  0.18499  1.0000 -0.1082558636
C   C27       1.0  0.18280  0.16732  0.08173  1.0000 -0.0962059363
C   C28       1.0  0.65820  0.79541  0.32468  1.0000 -0.0962059363
C   C29       1.0  0.56970  0.66260  0.42164  1.0000 0.5641514059
C   C30       1.0  0.72700  0.92131  0.21226  1.0000 0.5269762274
C   C31       1.0  0.06210  0.65929  0.40688  1.0000 0.5269762274
C   C32       1.0  0.91960  0.70699  0.38086  1.0000 0.0093408246
C   C33       1.0  0.68540  0.71116  0.38903  1.0000 -0.0035614875
C   C34       1.0  0.75950  0.83537  0.28700  1.0000 -0.0035614875
C   C35       1.0  0.88970  0.79054  0.31501  1.0000 -0.1082558636
C   C36       1.0  0.81720  0.66732  0.41827  1.0000 -0.0962059363
O   O1        1.0  0.59260  0.91361  0.97847  1.0000 -0.5224082026
O   O2        1.0  0.14184  0.81055  0.86107  1.0000 -0.4425556842
O   O3        1.0  0.61050  0.53639  0.69019  1.0000 -0.4425556842
O   O4        1.0  0.45143  0.79924  0.88766  1.0000 -0.4425556842
O   O5        1.0  0.09500  0.90819  0.97126  1.0000 -0.4425556842
O   O6        1.0  0.81600  0.55250  0.67348  1.0000 -0.4291400317
O   O7        1.0  0.40740  0.41361  0.52153  1.0000 -0.5224082026
O   O8        1.0  0.85816  0.31055  0.63893  1.0000 -0.445862681
O   O9        1.0  0.38950  0.03639  0.80981  1.0000 -0.4425556842
O   O10       1.0  0.54857  0.29924  0.61234  1.0000 -0.4425556842
O   O11       1.0  0.90500  0.40819  0.52874  1.0000 -0.4425556842
O   O12       1.0  0.18400  0.05250  0.82652  1.0000 -0.4291400317
O   O13       1.0  0.40740  0.08639  0.02153  1.0000 -0.5224082026
O   O14       1.0  0.85816  0.18945  0.13893  1.0000 -0.4425556842
O   O15       1.0  0.38950  0.46361  0.30981  1.0000 -0.4425556842
O   O16       1.0  0.54857  0.20076  0.11234  1.0000 -0.4425556842
O   O17       1.0  0.90500  0.09181  0.02874  1.0000 -0.4425556842
O   O18       1.0  0.18400  0.44750  0.32652  1.0000 -0.4291400317
O   O19       1.0  0.59260  0.58639  0.47847  1.0000 -0.5224082026
O   O20       1.0  0.14184  0.68945  0.36107  1.0000 -0.4425556842
O   O21       1.0  0.61050  0.96361  0.19019  1.0000 -0.4425556842
O   O22       1.0  0.45143  0.70076  0.38766  1.0000 -0.4425556842
O   O23       1.0  0.09500  0.59181  0.47126  1.0000 -0.4425556842
O   O24       1.0  0.81600  0.94750  0.17348  1.0000 -0.4291400317
