# DDEC6 charges by PACMAN v1.1 (https://github.com/mtap-research/PACMAN-charge/)
data_2019[Ag][sra]3[ASR]1
_chemical_formula_sum              "Ag4 H48 C68 N24"
_cell_length_a       9.3666
_cell_length_b       23.7024
_cell_length_c       12.6894
_cell_angle_alpha    90
_cell_angle_beta     119.236
_cell_angle_gamma    90

_symmetry_space_group_name_H-M    "P 1"
_symmetry_Int_Tables_number       1

loop_
  _symmetry_equiv_pos_as_xyz
  'x, y, z'

loop_
  _atom_site_type_symbol
  _atom_site_label
  _atom_site_symmetry_multiplicity
  _atom_site_fract_x
  _atom_site_fract_y
  _atom_site_fract_z
  _atom_site_occupancy
  _atom_site_charge
Ag  Ag1       1.0  0.41433  0.12199  0.63333  1.0000 0.2317818169
Ag  Ag2       1.0  0.58567  0.62199  0.86667  1.0000 0.2317818169
Ag  Ag3       1.0  0.58567  0.87801  0.36667  1.0000 0.2317818169
Ag  Ag4       1.0  0.41433  0.37801  0.13333  1.0000 0.2317818169
H   H1        1.0  0.13730  0.15540  0.70650  1.0000 0.1117802438
H   H2        1.0  0.09710  0.03520  0.91670  1.0000 0.1282472675
H   H3        1.0  0.33690  0.99320  0.93550  1.0000 0.1117802438
H   H4        1.0  0.46920  0.03530  0.84210  1.0000 0.0911097175
H   H5        1.0  0.05660  0.35210  0.93820  1.0000 0.0911097175
H   H6        1.0  0.87510  0.28210  0.82230  1.0000 0.139256074
H   H7        1.0  0.23060  0.16660  0.00960  1.0000 0.1233505522
H   H8        1.0  0.40130  0.24040  0.12090  1.0000 0.0992174958
H   H9        1.0  0.83690  0.07760  0.53300  1.0000 0.1282472675
H   H10       1.0  0.77750  0.99560  0.41980  1.0000 0.0911097175
H   H11       1.0  0.62050  0.92080  0.62060  1.0000 0.0992174958
H   H12       1.0  0.67800  0.00020  0.74220  1.0000 0.1282472675
H   H13       1.0  0.86270  0.65540  0.79350  1.0000 0.1117802438
H   H14       1.0  0.90290  0.53520  0.58330  1.0000 0.1282472675
H   H15       1.0  0.66310  0.49320  0.56450  1.0000 0.1117802438
H   H16       1.0  0.53080  0.53530  0.65790  1.0000 0.0911097175
H   H17       1.0  0.94340  0.85210  0.56180  1.0000 0.0911097175
H   H18       1.0  0.12490  0.78210  0.67770  1.0000 0.139256074
H   H19       1.0  0.76940  0.66667  0.49040  1.0000 0.1233505522
H   H20       1.0  0.59870  0.74040  0.37910  1.0000 0.0992174958
H   H21       1.0  0.16310  0.57760  0.96700  1.0000 0.1282472675
H   H22       1.0  0.22250  0.49560  0.08020  1.0000 0.0911097175
H   H23       1.0  0.37950  0.42080  0.87940  1.0000 0.0992174958
H   H24       1.0  0.32200  0.50020  0.75780  1.0000 0.1282472675
H   H25       1.0  0.86270  0.84460  0.29350  1.0000 0.1117802438
H   H26       1.0  0.90290  0.96480  0.08330  1.0000 0.1282472675
H   H27       1.0  0.66310  0.00680  0.06450  1.0000 0.1117802438
H   H28       1.0  0.53080  0.96470  0.15790  1.0000 0.0911097175
H   H29       1.0  0.94340  0.64790  0.06180  1.0000 0.0911097175
H   H30       1.0  0.12490  0.71790  0.17770  1.0000 0.139256074
H   H31       1.0  0.76940  0.83340  0.99040  1.0000 0.1233505522
H   H32       1.0  0.59870  0.75960  0.87910  1.0000 0.0992174958
H   H33       1.0  0.16310  0.92240  0.46700  1.0000 0.1282472675
H   H34       1.0  0.22250  0.00440  0.58020  1.0000 0.0911097175
H   H35       1.0  0.37950  0.07920  0.37940  1.0000 0.0992174958
H   H36       1.0  0.32200  0.99980  0.25780  1.0000 0.1282472675
H   H37       1.0  0.13730  0.34460  0.20650  1.0000 0.1117802438
H   H38       1.0  0.09710  0.46480  0.41670  1.0000 0.1282472675
H   H39       1.0  0.33690  0.50680  0.43550  1.0000 0.1117802438
H   H40       1.0  0.46920  0.46470  0.34210  1.0000 0.0911097175
H   H41       1.0  0.05660  0.14790  0.43820  1.0000 0.0911097175
H   H42       1.0  0.87510  0.21790  0.32230  1.0000 0.139256074
H   H43       1.0  0.23060  0.33340  0.50960  1.0000 0.1233505522
H   H44       1.0  0.40130  0.25960  0.62090  1.0000 0.0992174958
H   H45       1.0  0.83690  0.42240  0.03300  1.0000 0.1282472675
H   H46       1.0  0.77750  0.50440  0.91980  1.0000 0.0911097175
H   H47       1.0  0.62050  0.57920  0.12060  1.0000 0.0992174958
H   H48       1.0  0.67800  0.49980  0.24220  1.0000 0.1282472675
C   C1        1.0  0.17870  0.12230  0.75400  1.0000 -0.0494305716
C   C2        1.0  0.09600  0.09946  0.80880  1.0000 0.1117802438
C   C3        1.0  0.15290  0.05108  0.87820  1.0000 -0.1580396231
C   C4        1.0  0.29410  0.02675  0.88960  1.0000 -0.1464867863
C   C5        1.0  0.37170  0.05200  0.83310  1.0000 -0.0052844876
C   C6        1.0  0.91400  0.17360  0.82990  1.0000 0.2006630738
C   C7        1.0  0.79430  0.10002  0.72050  1.0000 0.1740008247
C   C8        1.0  0.09190  0.31390  0.95220  1.0000 0.023825488
C   C9        1.0  0.98290  0.27259  0.88280  1.0000 -0.1858527708
C   C10       1.0  0.03410  0.21654  0.90330  1.0000 0.0699544092
C   C11       1.0  0.19250  0.20442  0.99330  1.0000 -0.2108190591
C   C12       1.0  0.29350  0.24871  0.05880  1.0000 0.0510256954
C   C13       1.0  0.76360  0.04752  0.65010  1.0000 0.0510256954
C   C14       1.0  0.79290  0.04582  0.55290  1.0000 -0.2108190591
C   C15       1.0  0.75630  0.99679  0.48570  1.0000 0.0336068598
C   C16       1.0  0.66520  0.95312  0.60310  1.0000 0.0510256954
C   C17       1.0  0.69880  0.00022  0.67610  1.0000 -0.2108190591
C   C18       1.0  0.82130  0.62230  0.74600  1.0000 -0.0494305716
C   C19       1.0  0.90400  0.59946  0.69120  1.0000 0.1117802438
C   C20       1.0  0.84710  0.55108  0.62180  1.0000 -0.1580396231
C   C21       1.0  0.70590  0.52675  0.61040  1.0000 -0.1464867863
C   C22       1.0  0.62830  0.55200  0.66690  1.0000 -0.0052844876
C   C23       1.0  0.08600  0.67360  0.67010  1.0000 0.2006630738
C   C24       1.0  0.20570  0.60002  0.77950  1.0000 0.1740008247
C   C25       1.0  0.90810  0.81390  0.54780  1.0000 0.023825488
C   C26       1.0  0.01710  0.77259  0.61720  1.0000 -0.1858527708
C   C27       1.0  0.96590  0.71654  0.59670  1.0000 0.0699544092
C   C28       1.0  0.80750  0.70442  0.50670  1.0000 -0.2108190591
C   C29       1.0  0.70650  0.74871  0.44120  1.0000 0.0510256954
C   C30       1.0  0.23640  0.54752  0.84990  1.0000 0.0510256954
C   C31       1.0  0.20710  0.54582  0.94710  1.0000 -0.2108190591
C   C32       1.0  0.24370  0.49679  0.01430  1.0000 0.0336068598
C   C33       1.0  0.33480  0.45312  0.89690  1.0000 0.0510256954
C   C34       1.0  0.30120  0.50022  0.82390  1.0000 -0.2108190591
C   C35       1.0  0.82130  0.87770  0.24600  1.0000 -0.0494305716
C   C36       1.0  0.90400  0.90054  0.19120  1.0000 0.1117802438
C   C37       1.0  0.84710  0.94892  0.12180  1.0000 -0.1580396231
C   C38       1.0  0.70590  0.97325  0.11040  1.0000 -0.1464867863
C   C39       1.0  0.62830  0.94800  0.16690  1.0000 -0.0052844876
C   C40       1.0  0.08600  0.82640  0.17010  1.0000 0.2006630738
C   C41       1.0  0.20570  0.89998  0.27950  1.0000 0.1740008247
C   C42       1.0  0.90810  0.68610  0.04780  1.0000 0.023825488
C   C43       1.0  0.01710  0.72741  0.11720  1.0000 -0.1858527708
C   C44       1.0  0.96590  0.78346  0.09670  1.0000 0.0699544092
C   C45       1.0  0.80750  0.79558  0.00670  1.0000 -0.2108190591
C   C46       1.0  0.70650  0.75129  0.94120  1.0000 0.0510256954
C   C47       1.0  0.23640  0.95248  0.34990  1.0000 0.0510256954
C   C48       1.0  0.20710  0.95418  0.44710  1.0000 -0.2108190591
C   C49       1.0  0.24370  0.00321  0.51430  1.0000 0.0336068598
C   C50       1.0  0.33480  0.04688  0.39690  1.0000 0.0510256954
C   C51       1.0  0.30120  0.99978  0.32390  1.0000 -0.2108190591
C   C52       1.0  0.17870  0.37770  0.25400  1.0000 -0.0494305716
C   C53       1.0  0.09600  0.40054  0.30880  1.0000 0.1117802438
C   C54       1.0  0.15290  0.44892  0.37820  1.0000 -0.1580396231
C   C55       1.0  0.29410  0.47325  0.38960  1.0000 -0.1464867863
C   C56       1.0  0.37170  0.44800  0.33310  1.0000 -0.0052844876
C   C57       1.0  0.91400  0.32640  0.32990  1.0000 0.2006630738
C   C58       1.0  0.79430  0.39998  0.22050  1.0000 0.1740008247
C   C59       1.0  0.09190  0.18610  0.45220  1.0000 0.023825488
C   C60       1.0  0.98290  0.22741  0.38280  1.0000 -0.1858527708
C   C61       1.0  0.03410  0.28346  0.40330  1.0000 0.0699544092
C   C62       1.0  0.19250  0.29558  0.49330  1.0000 -0.2108190591
C   C63       1.0  0.29350  0.25129  0.55880  1.0000 0.0510256954
C   C64       1.0  0.76360  0.45248  0.15010  1.0000 0.0510256954
C   C65       1.0  0.79290  0.45418  0.05290  1.0000 -0.2108190591
C   C66       1.0  0.75630  0.50321  0.98570  1.0000 0.0336068598
C   C67       1.0  0.66520  0.54688  0.10310  1.0000 0.0510256954
C   C68       1.0  0.69880  0.49978  0.17610  1.0000 -0.2108190591
N   N1        1.0  0.31630  0.09886  0.76630  1.0000 -0.1802719618
N   N2        1.0  0.94420  0.12408  0.78804  1.0000 -0.0954122721
N   N3        1.0  0.75710  0.17912  0.79150  1.0000 -0.2625290986
N   N4        1.0  0.68170  0.13217  0.72170  1.0000 -0.1965921904
N   N5        1.0  0.24570  0.30285  0.03850  1.0000 -0.2108190591
N   N6        1.0  0.69270  0.95097  0.50870  1.0000 -0.2181868638
N   N7        1.0  0.68370  0.59886  0.73370  1.0000 -0.1802719618
N   N8        1.0  0.05580  0.62408  0.71196  1.0000 -0.0954122721
N   N9        1.0  0.24290  0.67912  0.70850  1.0000 -0.2625290986
N   N10       1.0  0.31830  0.63217  0.77830  1.0000 -0.1965921904
N   N11       1.0  0.75430  0.80285  0.46150  1.0000 -0.2108190591
N   N12       1.0  0.30730  0.45097  0.99130  1.0000 -0.2181868638
N   N13       1.0  0.68370  0.90114  0.23370  1.0000 -0.1802719618
N   N14       1.0  0.05580  0.87592  0.21196  1.0000 -0.0954122721
N   N15       1.0  0.24290  0.82088  0.20850  1.0000 -0.2625290986
N   N16       1.0  0.31830  0.86783  0.27830  1.0000 -0.1965921904
N   N17       1.0  0.75430  0.69715  0.96150  1.0000 -0.2108190591
N   N18       1.0  0.30730  0.04903  0.49130  1.0000 -0.2181868638
N   N19       1.0  0.31630  0.40114  0.26630  1.0000 -0.1802719618
N   N20       1.0  0.94420  0.37592  0.28804  1.0000 -0.0954122721
N   N21       1.0  0.75710  0.32088  0.29150  1.0000 -0.2625290986
N   N22       1.0  0.68170  0.36783  0.22170  1.0000 -0.1965921904
N   N23       1.0  0.24570  0.19715  0.53850  1.0000 -0.2108190591
N   N24       1.0  0.69270  0.54903  0.00870  1.0000 -0.2181868638
