# DDEC6 charges by PACMAN v1.1 (https://github.com/mtap-research/PACMAN-charge/)
data_2019[Eu][nan]3[ASR]2
_chemical_formula_sum              "Eu16 H60 C92 S12 O92"
_cell_length_a       13.4515
_cell_length_b       13.4515
_cell_length_c       30.071
_cell_angle_alpha    72.8719
_cell_angle_beta     107.128
_cell_angle_gamma    119.943

_symmetry_space_group_name_H-M    "P 1"
_symmetry_Int_Tables_number       1

loop_
  _symmetry_equiv_pos_as_xyz
  'x, y, z'

loop_
  _atom_site_type_symbol
  _atom_site_label
  _atom_site_symmetry_multiplicity
  _atom_site_fract_x
  _atom_site_fract_y
  _atom_site_fract_z
  _atom_site_occupancy
  _atom_site_charge
Eu  Eu1       1.0  0.47991  0.00069  0.65177  1.0000 2.1314432412
Eu  Eu2       1.0  0.49769  0.71939  0.65843  1.0000 2.1913749026
Eu  Eu3       1.0  0.20681  0.71487  0.66025  1.0000 2.2228315519
Eu  Eu4       1.0  0.33431  0.83839  0.54364  1.0000 2.1314432412
Eu  Eu5       1.0  0.00069  0.47991  0.84823  1.0000 2.1314432412
Eu  Eu6       1.0  0.71939  0.49769  0.84157  1.0000 2.1913749026
Eu  Eu7       1.0  0.71487  0.20681  0.83975  1.0000 2.2228315519
Eu  Eu8       1.0  0.83839  0.33431  0.95636  1.0000 2.1314432412
Eu  Eu9       1.0  0.52009  0.99931  0.34823  1.0000 2.1314432412
Eu  Eu10      1.0  0.50231  0.28061  0.34157  1.0000 2.1913749026
Eu  Eu11      1.0  0.79319  0.28513  0.33975  1.0000 2.2228315519
Eu  Eu12      1.0  0.66569  0.16161  0.45636  1.0000 2.1367866443
Eu  Eu13      1.0  0.99931  0.52009  0.15177  1.0000 2.1314432412
Eu  Eu14      1.0  0.28061  0.50231  0.15843  1.0000 2.1913749026
Eu  Eu15      1.0  0.28513  0.79319  0.16025  1.0000 2.2228315519
Eu  Eu16      1.0  0.16161  0.66569  0.04364  1.0000 2.1314432412
H   H1        1.0  0.57313  0.94151  0.59326  1.0000 0.4272894756
H   H2        1.0  0.26302  0.93818  0.59549  1.0000 0.4187459694
H   H3        1.0  0.27161  0.61153  0.60576  1.0000 0.4272894756
H   H4        1.0  0.41566  0.78554  0.72153  1.0000 0.4187459694
H   H5        1.0  0.73195  0.79043  0.80185  1.0000 0.1310079102
H   H6        1.0  0.02568  0.01312  0.87329  1.0000 0.1310079102
H   H7        1.0  0.03457  0.16171  0.80984  1.0000 0.1108064567
H   H8        1.0  0.88455  0.07093  0.68161  1.0000 0.1018453315
H   H9        1.0  0.93197  0.21657  0.61673  1.0000 0.1310079102
H   H10       1.0  0.97857  0.44393  0.69186  1.0000 0.1247454928
H   H11       1.0  0.24137  0.48529  0.80856  1.0000 0.145203338
H   H12       1.0  0.27955  0.19865  0.88091  1.0000 0.1352700339
H   H13       1.0  0.31598  0.18096  0.81407  1.0000 0.1108064567
H   H14       1.0  0.71349  0.30797  0.62116  1.0000 0.1018453315
H   H15       1.0  0.41895  0.18379  0.50618  1.0000 0.1108064567
H   H16       1.0  0.94151  0.57313  0.90674  1.0000 0.4272894756
H   H17       1.0  0.93818  0.26302  0.90451  1.0000 0.4187459694
H   H18       1.0  0.61153  0.27161  0.89424  1.0000 0.4272894756
H   H19       1.0  0.78554  0.41566  0.77847  1.0000 0.4187459694
H   H20       1.0  0.79043  0.73195  0.69815  1.0000 0.1310079102
H   H21       1.0  0.01312  0.02568  0.62671  1.0000 0.1310079102
H   H22       1.0  0.16171  0.03457  0.69016  1.0000 0.1108064567
H   H23       1.0  0.07093  0.88455  0.81839  1.0000 0.1018453315
H   H24       1.0  0.21657  0.93197  0.88327  1.0000 0.1310079102
H   H25       1.0  0.44393  0.97857  0.80814  1.0000 0.1247454928
H   H26       1.0  0.48529  0.24137  0.69144  1.0000 0.145203338
H   H27       1.0  0.19865  0.27955  0.61909  1.0000 0.1352700339
H   H28       1.0  0.18096  0.31598  0.68593  1.0000 0.1108064567
H   H29       1.0  0.30797  0.71349  0.87884  1.0000 0.1018453315
H   H30       1.0  0.18379  0.41895  0.99382  1.0000 0.1108064567
H   H31       1.0  0.42687  0.05849  0.40674  1.0000 0.4272894756
H   H32       1.0  0.73698  0.06182  0.40451  1.0000 0.4187459694
H   H33       1.0  0.72839  0.38847  0.39424  1.0000 0.4272894756
H   H34       1.0  0.58434  0.21446  0.27847  1.0000 0.4187459694
H   H35       1.0  0.26805  0.20957  0.19815  1.0000 0.1310079102
H   H36       1.0  0.97432  0.98688  0.12671  1.0000 0.1310079102
H   H37       1.0  0.96543  0.83829  0.19016  1.0000 0.1108064567
H   H38       1.0  0.11545  0.92907  0.31839  1.0000 0.1018453315
H   H39       1.0  0.06803  0.78343  0.38327  1.0000 0.1310079102
H   H40       1.0  0.02143  0.55607  0.30814  1.0000 0.1247454928
H   H41       1.0  0.75863  0.51471  0.19144  1.0000 0.145203338
H   H42       1.0  0.72045  0.80135  0.11909  1.0000 0.1310079102
H   H43       1.0  0.68402  0.81904  0.18593  1.0000 0.1108064567
H   H44       1.0  0.28651  0.69203  0.37884  1.0000 0.1018453315
H   H45       1.0  0.58105  0.81621  0.49382  1.0000 0.1108064567
H   H46       1.0  0.05849  0.42687  0.09326  1.0000 0.4272894756
H   H47       1.0  0.06182  0.73698  0.09549  1.0000 0.4187459694
H   H48       1.0  0.38847  0.72839  0.10576  1.0000 0.4272894756
H   H49       1.0  0.21446  0.58434  0.22153  1.0000 0.4187459694
H   H50       1.0  0.20957  0.26805  0.30185  1.0000 0.1310079102
H   H51       1.0  0.98688  0.97432  0.37329  1.0000 0.1310079102
H   H52       1.0  0.83829  0.96543  0.30984  1.0000 0.1108064567
H   H53       1.0  0.92907  0.11545  0.18161  1.0000 0.1018453315
H   H54       1.0  0.78343  0.06803  0.11673  1.0000 0.1310079102
H   H55       1.0  0.55607  0.02143  0.19186  1.0000 0.1247454928
H   H56       1.0  0.51471  0.75863  0.30856  1.0000 0.145203338
H   H57       1.0  0.80135  0.72045  0.38091  1.0000 0.1310079102
H   H58       1.0  0.81904  0.68402  0.31407  1.0000 0.1108064567
H   H59       1.0  0.69203  0.28651  0.12116  1.0000 0.1018453315
H   H60       1.0  0.81621  0.58105  0.00618  1.0000 0.1108064567
C   C1        1.0  0.69120  0.92700  0.72522  1.0000 0.6357093947
C   C2        1.0  0.79370  0.95670  0.76580  1.0000 -0.0624483858
C   C3        1.0  0.79150  0.86570  0.80354  1.0000 -0.1060358761
C   C4        1.0  0.87730  0.88690  0.84323  1.0000 -0.0993046465
C   C5        1.0  0.96860  0.99880  0.84624  1.0000 -0.0993046465
C   C6        1.0  0.97250  0.08770  0.80847  1.0000 -0.1221128507
C   C7        1.0  0.88550  0.06930  0.76799  1.0000 0.0593315707
C   C8        1.0  0.90380  0.16680  0.72665  1.0000 0.0593315707
C   C9        1.0  0.90410  0.14630  0.68383  1.0000 -0.1221128507
C   C10       1.0  0.93210  0.23270  0.64477  1.0000 -0.0818558746
C   C11       1.0  0.96070  0.34490  0.64840  1.0000 -0.1221128507
C   C12       1.0  0.95990  0.36850  0.69019  1.0000 -0.0993046465
C   C13       1.0  0.93170  0.28070  0.72973  1.0000 -0.0624483858
C   C14       1.0  0.92920  0.31340  0.77305  1.0000 0.628866856
C   C15       1.0  0.30470  0.51690  0.72910  1.0000 0.6473190086
C   C16       1.0  0.28490  0.41790  0.77037  1.0000 -0.0624483858
C   C17       1.0  0.25750  0.42490  0.80955  1.0000 -0.0993046465
C   C18       1.0  0.25370  0.34230  0.85074  1.0000 -0.0818558746
C   C19       1.0  0.27880  0.25200  0.85303  1.0000 -0.094837954
C   C20       1.0  0.30250  0.24310  0.81314  1.0000 -0.1365250005
C   C21       1.0  0.30700  0.32420  0.77166  1.0000 0.0476510981
C   C22       1.0  0.65740  0.23280  0.63050  1.0000 0.4716342361
C   C23       1.0  0.45350  0.14330  0.50165  1.0000 0.6173621612
C   C24       1.0  0.92700  0.69120  0.77478  1.0000 0.6357093947
C   C25       1.0  0.95670  0.79370  0.73420  1.0000 -0.0624483858
C   C26       1.0  0.86570  0.79150  0.69646  1.0000 -0.0993046465
C   C27       1.0  0.88690  0.87730  0.65677  1.0000 -0.0993046465
C   C28       1.0  0.99880  0.96860  0.65376  1.0000 -0.094837954
C   C29       1.0  0.08770  0.97250  0.69153  1.0000 -0.1221128507
C   C30       1.0  0.06930  0.88550  0.73201  1.0000 0.0593315707
C   C31       1.0  0.16680  0.90380  0.77335  1.0000 0.0593315707
C   C32       1.0  0.14630  0.90410  0.81617  1.0000 -0.1221128507
C   C33       1.0  0.23270  0.93210  0.85523  1.0000 -0.0818558746
C   C34       1.0  0.34490  0.96070  0.85160  1.0000 -0.1259726612
C   C35       1.0  0.36850  0.95990  0.80981  1.0000 -0.0993046465
C   C36       1.0  0.28070  0.93170  0.77027  1.0000 -0.0624483858
C   C37       1.0  0.31340  0.92920  0.72695  1.0000 0.628866856
C   C38       1.0  0.51690  0.30470  0.77090  1.0000 0.6473190086
C   C39       1.0  0.41790  0.28490  0.72963  1.0000 -0.0624483858
C   C40       1.0  0.42490  0.25750  0.69045  1.0000 -0.0993046465
C   C41       1.0  0.34230  0.25370  0.64926  1.0000 -0.0818558746
C   C42       1.0  0.25200  0.27880  0.64697  1.0000 -0.094837954
C   C43       1.0  0.24310  0.30250  0.68686  1.0000 -0.1365250005
C   C44       1.0  0.32420  0.30700  0.72834  1.0000 0.0476510981
C   C45       1.0  0.23280  0.65740  0.86950  1.0000 0.4716342361
C   C46       1.0  0.14330  0.45350  0.99835  1.0000 0.6173621612
C   C47       1.0  0.30880  0.07300  0.27478  1.0000 0.6357093947
C   C48       1.0  0.20630  0.04330  0.23420  1.0000 -0.0624483858
C   C49       1.0  0.20850  0.13430  0.19646  1.0000 -0.0993046465
C   C50       1.0  0.12270  0.11310  0.15677  1.0000 -0.0993046465
C   C51       1.0  0.03140  0.00120  0.15376  1.0000 -0.0993046465
C   C52       1.0  0.02750  0.91230  0.19153  1.0000 -0.1221128507
C   C53       1.0  0.11450  0.93070  0.23201  1.0000 0.0593315707
C   C54       1.0  0.09620  0.83320  0.27335  1.0000 0.0593315707
C   C55       1.0  0.09590  0.85370  0.31617  1.0000 -0.1221128507
C   C56       1.0  0.06790  0.76730  0.35523  1.0000 -0.0818558746
C   C57       1.0  0.03930  0.65510  0.35160  1.0000 -0.1221128507
C   C58       1.0  0.04010  0.63150  0.30981  1.0000 -0.0993046465
C   C59       1.0  0.06830  0.71930  0.27027  1.0000 -0.0624483858
C   C60       1.0  0.07080  0.68660  0.22695  1.0000 0.628866856
C   C61       1.0  0.69530  0.48310  0.27090  1.0000 0.6473190086
C   C62       1.0  0.71510  0.58210  0.22963  1.0000 -0.0624483858
C   C63       1.0  0.74250  0.57510  0.19045  1.0000 -0.0993046465
C   C64       1.0  0.74630  0.65770  0.14926  1.0000 -0.0818558746
C   C65       1.0  0.72120  0.74800  0.14697  1.0000 -0.094837954
C   C66       1.0  0.69750  0.75690  0.18686  1.0000 -0.1365250005
C   C67       1.0  0.69300  0.67580  0.22834  1.0000 0.0476510981
C   C68       1.0  0.34260  0.76720  0.36950  1.0000 0.4716342361
C   C69       1.0  0.54650  0.85670  0.49835  1.0000 0.6173621612
C   C70       1.0  0.07300  0.30880  0.22522  1.0000 0.6357093947
C   C71       1.0  0.04330  0.20630  0.26580  1.0000 -0.0624483858
C   C72       1.0  0.13430  0.20850  0.30354  1.0000 -0.0993046465
C   C73       1.0  0.11310  0.12270  0.34323  1.0000 -0.0993046465
C   C74       1.0  0.00120  0.03140  0.34624  1.0000 -0.094837954
C   C75       1.0  0.91230  0.02750  0.30847  1.0000 -0.1221128507
C   C76       1.0  0.93070  0.11450  0.26799  1.0000 0.0593315707
C   C77       1.0  0.83320  0.09620  0.22665  1.0000 0.0593315707
C   C78       1.0  0.85370  0.09590  0.18383  1.0000 -0.1221128507
C   C79       1.0  0.76730  0.06790  0.14477  1.0000 -0.0818558746
C   C80       1.0  0.65510  0.03930  0.14840  1.0000 -0.1221128507
C   C81       1.0  0.63150  0.04010  0.19019  1.0000 -0.0993046465
C   C82       1.0  0.71930  0.06830  0.22973  1.0000 -0.0624483858
C   C83       1.0  0.68660  0.07080  0.27305  1.0000 0.628866856
C   C84       1.0  0.48310  0.69530  0.22910  1.0000 0.6473190086
C   C85       1.0  0.58210  0.71510  0.27037  1.0000 -0.0624483858
C   C86       1.0  0.57510  0.74250  0.30955  1.0000 -0.0993046465
C   C87       1.0  0.65770  0.74630  0.35074  1.0000 -0.0818558746
C   C88       1.0  0.74800  0.72120  0.35303  1.0000 -0.094837954
C   C89       1.0  0.75690  0.69750  0.31314  1.0000 -0.1365250005
C   C90       1.0  0.67580  0.69300  0.27166  1.0000 0.0476510981
C   C91       1.0  0.76720  0.34260  0.13050  1.0000 0.4716342361
C   C92       1.0  0.85670  0.54650  0.00165  1.0000 0.6173621612
S   S1        1.0  0.87561  0.77281  0.89177  1.0000 1.209331234
S   S2        1.0  0.99984  0.45920  0.59970  1.0000 1.209331234
S   S3        1.0  0.22120  0.35658  0.90102  1.0000 1.1999179171
S   S4        1.0  0.77281  0.87561  0.60823  1.0000 1.209331234
S   S5        1.0  0.45920  0.99984  0.90030  1.0000 1.209331234
S   S6        1.0  0.35658  0.22120  0.59898  1.0000 1.1999179171
S   S7        1.0  0.12439  0.22719  0.10823  1.0000 1.209331234
S   S8        1.0  0.00016  0.54080  0.40030  1.0000 1.209331234
S   S9        1.0  0.77880  0.64342  0.09898  1.0000 1.1999179171
S   S10       1.0  0.22719  0.12439  0.39177  1.0000 1.209331234
S   S11       1.0  0.54080  0.00016  0.09970  1.0000 1.209331234
S   S12       1.0  0.64342  0.77880  0.40102  1.0000 1.1999179171
O   O1        1.0  0.78211  0.66489  0.87691  1.0000 -0.7691850914
O   O2        1.0  0.85610  0.79590  0.93075  1.0000 -0.5514418139
O   O3        1.0  0.98760  0.77400  0.89930  1.0000 -0.5998551427
O   O4        1.0  0.89440  0.43980  0.56511  1.0000 -0.5605567052
O   O5        1.0  0.08850  0.45350  0.58368  1.0000 -0.573230709
O   O6        1.0  0.04671  0.56689  0.61720  1.0000 -0.7826483055
O   O7        1.0  0.64993  0.99867  0.70751  1.0000 -0.6365427329
O   O8        1.0  0.65277  0.83163  0.71252  1.0000 -0.6782993479
O   O9        1.0  0.99738  0.41662  0.78042  1.0000 -0.6344001396
O   O10       1.0  0.85920  0.23780  0.79946  1.0000 -0.6921485914
O   O11       1.0  0.32020  0.45900  0.91812  1.0000 -0.5902080341
O   O12       1.0  0.20448  0.25152  0.93493  1.0000 -0.5807988225
O   O13       1.0  0.11706  0.37374  0.88413  1.0000 -0.722167234
O   O14       1.0  0.22542  0.54578  0.70929  1.0000 -0.6663702084
O   O15       1.0  0.40425  0.56655  0.71836  1.0000 -0.6782993479
O   O16       1.0  0.61961  0.15879  0.60468  1.0000 -0.5998551427
O   O17       1.0  0.62289  0.21011  0.66817  1.0000 -0.5807988225
O   O18       1.0  0.53103  0.19977  0.47698  1.0000 -0.6510864599
O   O19       1.0  0.41723  0.04017  0.52074  1.0000 -0.6510864599
O   O20       1.0  0.50702  0.89638  0.60717  1.0000 -1.1676697089
O   O21       1.0  0.29783  0.88857  0.60607  1.0000 -1.2179339333
O   O22       1.0  0.30525  0.68555  0.61311  1.0000 -1.2430072083
O   O23       1.0  0.41070  0.79970  0.68894  1.0000 -1.2179339333
O   O24       1.0  0.66489  0.78211  0.62309  1.0000 -0.7691850914
O   O25       1.0  0.79590  0.85610  0.56925  1.0000 -0.5514418139
O   O26       1.0  0.77400  0.98760  0.60070  1.0000 -0.5998551427
O   O27       1.0  0.43980  0.89440  0.93489  1.0000 -0.5605567052
O   O28       1.0  0.45350  0.08850  0.91632  1.0000 -0.573230709
O   O29       1.0  0.56689  0.04671  0.88280  1.0000 -0.7826483055
O   O30       1.0  0.99867  0.64993  0.79249  1.0000 -0.6365427329
O   O31       1.0  0.83163  0.65277  0.78748  1.0000 -0.6782993479
O   O32       1.0  0.41662  0.99738  0.71958  1.0000 -0.6344001396
O   O33       1.0  0.23780  0.85920  0.70054  1.0000 -0.6921485914
O   O34       1.0  0.45900  0.32020  0.58188  1.0000 -0.5902080341
O   O35       1.0  0.25152  0.20448  0.56507  1.0000 -0.5807988225
O   O36       1.0  0.37374  0.11706  0.61587  1.0000 -0.722167234
O   O37       1.0  0.54578  0.22542  0.79071  1.0000 -0.6663702084
O   O38       1.0  0.56655  0.40425  0.78164  1.0000 -0.6782993479
O   O39       1.0  0.15879  0.61961  0.89532  1.0000 -0.5998551427
O   O40       1.0  0.21011  0.62289  0.83183  1.0000 -0.5807988225
O   O41       1.0  0.19977  0.53103  0.02302  1.0000 -0.6510864599
O   O42       1.0  0.04017  0.41723  0.97926  1.0000 -0.6510864599
O   O43       1.0  0.89638  0.50702  0.89283  1.0000 -1.1622448517
O   O44       1.0  0.88857  0.29783  0.89393  1.0000 -1.2179339333
O   O45       1.0  0.68555  0.30525  0.88689  1.0000 -1.2430072083
O   O46       1.0  0.79970  0.41070  0.81106  1.0000 -1.2179339333
O   O47       1.0  0.21789  0.33511  0.12309  1.0000 -0.7691850914
O   O48       1.0  0.14390  0.20410  0.06925  1.0000 -0.5514418139
O   O49       1.0  0.01240  0.22600  0.10070  1.0000 -0.5998551427
O   O50       1.0  0.10560  0.56020  0.43489  1.0000 -0.5605567052
O   O51       1.0  0.91150  0.54650  0.41632  1.0000 -0.573230709
O   O52       1.0  0.95329  0.43311  0.38280  1.0000 -0.7826483055
O   O53       1.0  0.35007  0.00133  0.29249  1.0000 -0.6365427329
O   O54       1.0  0.34723  0.16837  0.28748  1.0000 -0.6782993479
O   O55       1.0  0.00262  0.58338  0.21958  1.0000 -0.6344001396
O   O56       1.0  0.14080  0.76220  0.20054  1.0000 -0.6921485914
O   O57       1.0  0.67980  0.54100  0.08188  1.0000 -0.5902080341
O   O58       1.0  0.79552  0.74848  0.06507  1.0000 -0.5807988225
O   O59       1.0  0.88294  0.62626  0.11587  1.0000 -0.722167234
O   O60       1.0  0.77458  0.45422  0.29071  1.0000 -0.6663702084
O   O61       1.0  0.59575  0.43345  0.28164  1.0000 -0.6782993479
O   O62       1.0  0.38039  0.84121  0.39532  1.0000 -0.5998551427
O   O63       1.0  0.37711  0.78989  0.33183  1.0000 -0.5807988225
O   O64       1.0  0.46897  0.80023  0.52302  1.0000 -0.6510864599
O   O65       1.0  0.58277  0.95983  0.47926  1.0000 -0.6510864599
O   O66       1.0  0.49298  0.10362  0.39283  1.0000 -1.1676697089
O   O67       1.0  0.70217  0.11143  0.39393  1.0000 -1.2179339333
O   O68       1.0  0.69475  0.31445  0.38689  1.0000 -1.2430072083
O   O69       1.0  0.58930  0.20030  0.31106  1.0000 -1.2179339333
O   O70       1.0  0.33511  0.21789  0.37691  1.0000 -0.7691850914
O   O71       1.0  0.20410  0.14390  0.43075  1.0000 -0.5514418139
O   O72       1.0  0.22600  0.01240  0.39930  1.0000 -0.5998551427
O   O73       1.0  0.56020  0.10560  0.06511  1.0000 -0.5605567052
O   O74       1.0  0.54650  0.91150  0.08368  1.0000 -0.573230709
O   O75       1.0  0.43311  0.95329  0.11720  1.0000 -0.7826483055
O   O76       1.0  0.00133  0.35007  0.20751  1.0000 -0.6365427329
O   O77       1.0  0.16837  0.34723  0.21252  1.0000 -0.6782993479
O   O78       1.0  0.58338  0.00262  0.28042  1.0000 -0.6344001396
O   O79       1.0  0.76220  0.14080  0.29946  1.0000 -0.6921485914
O   O80       1.0  0.54100  0.67980  0.41812  1.0000 -0.5902080341
O   O81       1.0  0.74848  0.79552  0.43493  1.0000 -0.5807988225
O   O82       1.0  0.62626  0.88294  0.38413  1.0000 -0.722167234
O   O83       1.0  0.45422  0.77458  0.20929  1.0000 -0.6663702084
O   O84       1.0  0.43345  0.59575  0.21836  1.0000 -0.6782993479
O   O85       1.0  0.84121  0.38039  0.10468  1.0000 -0.5998551427
O   O86       1.0  0.78989  0.37711  0.16817  1.0000 -0.5807988225
O   O87       1.0  0.80023  0.46897  0.97698  1.0000 -0.6510864599
O   O88       1.0  0.95983  0.58277  0.02074  1.0000 -0.6510864599
O   O89       1.0  0.10362  0.49298  0.10717  1.0000 -1.1622448517
O   O90       1.0  0.11143  0.70217  0.10607  1.0000 -1.2179339333
O   O91       1.0  0.31445  0.69475  0.11311  1.0000 -1.2430072083
O   O92       1.0  0.20030  0.58930  0.18894  1.0000 -1.2179339333
