# DDEC6 charges by PACMAN v1.1 (https://github.com/mtap-research/PACMAN-charge/)
data_2019[La][nan]3[ASR]5
_chemical_formula_sum              "La8 H192 C264 N24 O96"
_cell_length_a       8.6108
_cell_length_b       37.205
_cell_length_c       22.388
_cell_angle_alpha    90
_cell_angle_beta     96.308
_cell_angle_gamma    90

_symmetry_space_group_name_H-M    "P 1"
_symmetry_Int_Tables_number       1

loop_
  _symmetry_equiv_pos_as_xyz
  'x, y, z'

loop_
  _atom_site_type_symbol
  _atom_site_label
  _atom_site_symmetry_multiplicity
  _atom_site_fract_x
  _atom_site_fract_y
  _atom_site_fract_z
  _atom_site_occupancy
  _atom_site_charge
La  La1       1.0  0.18172  0.25377  0.14098  1.0000 1.8480099658
La  La2       1.0  0.03691  0.75606  0.42057  1.0000 1.8480099658
La  La3       1.0  0.31828  0.75377  0.85902  1.0000 1.8480099658
La  La4       1.0  0.46309  0.25606  0.57943  1.0000 1.8480099658
La  La5       1.0  0.81828  0.74623  0.85902  1.0000 1.8480099658
La  La6       1.0  0.96309  0.24394  0.57943  1.0000 1.8480099658
La  La7       1.0  0.68172  0.24623  0.14098  1.0000 1.8480099658
La  La8       1.0  0.53691  0.74394  0.42057  1.0000 1.8480099658
H   H1        1.0  0.35430  0.58460  0.18990  1.0000 0.1308241199
H   H2        1.0  0.47100  0.53250  0.15490  1.0000 0.1308241199
H   H3        1.0  0.23620  0.39120  0.07000  1.0000 0.109296282
H   H4        1.0  0.38320  0.41330  0.05570  1.0000 0.109296282
H   H5        1.0  0.35750  0.38100  0.16840  1.0000 0.109296282
H   H6        1.0  0.50640  0.40160  0.15170  1.0000 0.0990789987
H   H7        1.0  0.47660  0.35360  0.06430  1.0000 0.1387116043
H   H8        1.0  0.58810  0.34670  0.12350  1.0000 0.1387116043
H   H9        1.0  0.93380  0.30670  0.94700  1.0000 0.1308241199
H   H10       1.0  0.75620  0.30790  0.95730  1.0000 0.1308241199
H   H11       1.0  0.98620  0.35280  0.01100  1.0000 0.1200614615
H   H12       1.0  0.81340  0.35280  0.02710  1.0000 0.1200614615
H   H13       1.0  0.87630  0.36640  0.90700  1.0000 0.0990789987
H   H14       1.0  0.71870  0.37470  0.93350  1.0000 0.109296282
H   H15       1.0  0.62000  0.48750  0.02470  1.0000 0.1308241199
H   H16       1.0  0.30540  0.45600  0.94660  1.0000 0.1387116043
H   H17       1.0  0.81450  0.45030  0.15460  1.0000 0.1308241199
H   H18       1.0  0.70810  0.50000  0.19400  1.0000 0.1200614615
H   H19       1.0  0.89410  0.64950  0.23000  1.0000 0.109296282
H   H20       1.0  0.73220  0.63000  0.22950  1.0000 0.109296282
H   H21       1.0  0.96440  0.63380  0.32730  1.0000 0.109296282
H   H22       1.0  0.82060  0.60790  0.32730  1.0000 0.0990789987
H   H23       1.0  0.67540  0.66910  0.30190  1.0000 0.1387116043
H   H24       1.0  0.70100  0.65390  0.36740  1.0000 0.1387116043
H   H25       1.0  0.54170  0.16510  0.25410  1.0000 0.1387116043
H   H26       1.0  0.54100  0.15790  0.18520  1.0000 0.1513438257
H   H27       1.0  0.28500  0.12370  0.19270  1.0000 0.109296282
H   H28       1.0  0.43790  0.10360  0.22020  1.0000 0.0943322252
H   H29       1.0  0.46310  0.83050  0.57200  1.0000 0.1308241199
H   H30       1.0  0.31230  0.81880  0.60040  1.0000 0.1387116043
H   H31       1.0  0.31540  0.86820  0.50180  1.0000 0.109296282
H   H32       1.0  0.15770  0.85350  0.52150  1.0000 0.1200614615
H   H33       1.0  0.21500  0.88060  0.61760  1.0000 0.109296282
H   H34       1.0  0.37580  0.89430  0.59970  1.0000 0.109296282
H   H35       1.0  0.73270  0.93830  0.53580  1.0000 0.1308241199
H   H36       1.0  0.60830  0.98850  0.49220  1.0000 0.1200614615
H   H37       1.0  0.67700  0.84650  0.48150  1.0000 0.1513438257
H   H38       1.0  0.62530  0.84350  0.41260  1.0000 0.1387116043
H   H39       1.0  0.69970  0.90360  0.43910  1.0000 0.0990789987
H   H40       1.0  0.86880  0.89040  0.46220  1.0000 0.0990789987
H   H41       1.0  0.90440  0.87180  0.36350  1.0000 0.109296282
H   H42       1.0  0.73690  0.88610  0.34070  1.0000 0.109296282
H   H43       1.0  0.35130  0.95150  0.38750  1.0000 0.1308241199
H   H44       1.0  0.46540  0.00470  0.35910  1.0000 0.1200614615
H   H45       1.0  0.78190  0.06930  0.27860  1.0000 0.1308241199
H   H46       1.0  0.66420  0.01450  0.29720  1.0000 0.1200614615
H   H47       1.0  0.24900  0.14720  0.28610  1.0000 0.1200614615
H   H48       1.0  0.40850  0.13050  0.31430  1.0000 0.0990789987
H   H49       1.0  0.14570  0.08460  0.81010  1.0000 0.1308241199
H   H50       1.0  0.02900  0.03250  0.84510  1.0000 0.1308241199
H   H51       1.0  0.26380  0.89120  0.93000  1.0000 0.109296282
H   H52       1.0  0.11680  0.91330  0.94430  1.0000 0.109296282
H   H53       1.0  0.14250  0.88100  0.83160  1.0000 0.109296282
H   H54       1.0  0.99360  0.90160  0.84830  1.0000 0.0990789987
H   H55       1.0  0.02340  0.85360  0.93570  1.0000 0.1387116043
H   H56       1.0  0.91190  0.84670  0.87650  1.0000 0.1387116043
H   H57       1.0  0.56620  0.80670  0.05300  1.0000 0.1308241199
H   H58       1.0  0.74380  0.80790  0.04270  1.0000 0.1308241199
H   H59       1.0  0.51380  0.85280  0.98900  1.0000 0.1200614615
H   H60       1.0  0.68660  0.85280  0.97290  1.0000 0.1200614615
H   H61       1.0  0.62370  0.86640  0.09300  1.0000 0.0990789987
H   H62       1.0  0.78130  0.87470  0.06650  1.0000 0.109296282
H   H63       1.0  0.88000  0.98750  0.97530  1.0000 0.1308241199
H   H64       1.0  0.19460  0.95600  0.05340  1.0000 0.1387116043
H   H65       1.0  0.68550  0.95030  0.84540  1.0000 0.1308241199
H   H66       1.0  0.79190  0.00000  0.80600  1.0000 0.1200614615
H   H67       1.0  0.60590  0.14950  0.77000  1.0000 0.109296282
H   H68       1.0  0.76780  0.13000  0.77050  1.0000 0.109296282
H   H69       1.0  0.53560  0.13380  0.67270  1.0000 0.109296282
H   H70       1.0  0.67940  0.10790  0.67270  1.0000 0.0990789987
H   H71       1.0  0.82460  0.16910  0.69810  1.0000 0.1387116043
H   H72       1.0  0.79900  0.15390  0.63260  1.0000 0.1387116043
H   H73       1.0  0.95830  0.66510  0.74590  1.0000 0.1387116043
H   H74       1.0  0.95900  0.65790  0.81480  1.0000 0.1513438257
H   H75       1.0  0.21500  0.62370  0.80730  1.0000 0.109296282
H   H76       1.0  0.06210  0.60360  0.77980  1.0000 0.0943322252
H   H77       1.0  0.03690  0.33050  0.42800  1.0000 0.1308241199
H   H78       1.0  0.18770  0.31880  0.39960  1.0000 0.1387116043
H   H79       1.0  0.18460  0.36820  0.49820  1.0000 0.109296282
H   H80       1.0  0.34230  0.35350  0.47850  1.0000 0.1200614615
H   H81       1.0  0.28500  0.38060  0.38240  1.0000 0.109296282
H   H82       1.0  0.12420  0.39430  0.40030  1.0000 0.109296282
H   H83       1.0  0.76730  0.43830  0.46420  1.0000 0.1308241199
H   H84       1.0  0.89170  0.48850  0.50780  1.0000 0.1200614615
H   H85       1.0  0.82300  0.34650  0.51850  1.0000 0.1513438257
H   H86       1.0  0.87470  0.34350  0.58740  1.0000 0.1387116043
H   H87       1.0  0.80030  0.40360  0.56090  1.0000 0.0990789987
H   H88       1.0  0.63120  0.39040  0.53780  1.0000 0.0990789987
H   H89       1.0  0.59560  0.37180  0.63650  1.0000 0.109296282
H   H90       1.0  0.76310  0.38610  0.65930  1.0000 0.109296282
H   H91       1.0  0.14870  0.45150  0.61250  1.0000 0.1308241199
H   H92       1.0  0.03460  0.50470  0.64090  1.0000 0.1200614615
H   H93       1.0  0.71810  0.56930  0.72140  1.0000 0.1308241199
H   H94       1.0  0.83580  0.51450  0.70280  1.0000 0.1200614615
H   H95       1.0  0.25100  0.64720  0.71390  1.0000 0.1200614615
H   H96       1.0  0.09150  0.63050  0.68570  1.0000 0.0990789987
H   H97       1.0  0.64570  0.41540  0.81010  1.0000 0.1308241199
H   H98       1.0  0.52900  0.46750  0.84510  1.0000 0.1308241199
H   H99       1.0  0.76380  0.60880  0.93000  1.0000 0.109296282
H   H100      1.0  0.61680  0.58670  0.94430  1.0000 0.109296282
H   H101      1.0  0.64250  0.61900  0.83160  1.0000 0.109296282
H   H102      1.0  0.49360  0.59840  0.84830  1.0000 0.0990789987
H   H103      1.0  0.52340  0.64640  0.93570  1.0000 0.1387116043
H   H104      1.0  0.41190  0.65330  0.87650  1.0000 0.1387116043
H   H105      1.0  0.06620  0.69330  0.05300  1.0000 0.1308241199
H   H106      1.0  0.24380  0.69210  0.04270  1.0000 0.1308241199
H   H107      1.0  0.01380  0.64720  0.98900  1.0000 0.1200614615
H   H108      1.0  0.18660  0.64720  0.97290  1.0000 0.1200614615
H   H109      1.0  0.12370  0.63360  0.09300  1.0000 0.0990789987
H   H110      1.0  0.28130  0.62530  0.06650  1.0000 0.109296282
H   H111      1.0  0.38000  0.51250  0.97530  1.0000 0.1308241199
H   H112      1.0  0.69460  0.54400  0.05340  1.0000 0.1387116043
H   H113      1.0  0.18550  0.54970  0.84540  1.0000 0.1308241199
H   H114      1.0  0.29190  0.50000  0.80600  1.0000 0.1200614615
H   H115      1.0  0.10590  0.35050  0.77000  1.0000 0.109296282
H   H116      1.0  0.26780  0.37000  0.77050  1.0000 0.109296282
H   H117      1.0  0.03560  0.36620  0.67270  1.0000 0.109296282
H   H118      1.0  0.17940  0.39210  0.67270  1.0000 0.0990789987
H   H119      1.0  0.32460  0.33090  0.69810  1.0000 0.1387116043
H   H120      1.0  0.29900  0.34610  0.63260  1.0000 0.1387116043
H   H121      1.0  0.45830  0.83490  0.74590  1.0000 0.1387116043
H   H122      1.0  0.45900  0.84210  0.81480  1.0000 0.1513438257
H   H123      1.0  0.71500  0.87630  0.80730  1.0000 0.109296282
H   H124      1.0  0.56210  0.89640  0.77980  1.0000 0.0943322252
H   H125      1.0  0.53690  0.16950  0.42800  1.0000 0.1308241199
H   H126      1.0  0.68770  0.18120  0.39960  1.0000 0.1387116043
H   H127      1.0  0.68460  0.13180  0.49820  1.0000 0.109296282
H   H128      1.0  0.84230  0.14650  0.47850  1.0000 0.1200614615
H   H129      1.0  0.78500  0.11940  0.38240  1.0000 0.109296282
H   H130      1.0  0.62420  0.10570  0.40030  1.0000 0.109296282
H   H131      1.0  0.26730  0.06170  0.46420  1.0000 0.1308241199
H   H132      1.0  0.39170  0.01150  0.50780  1.0000 0.1200614615
H   H133      1.0  0.32300  0.15350  0.51850  1.0000 0.1513438257
H   H134      1.0  0.37470  0.15650  0.58740  1.0000 0.1387116043
H   H135      1.0  0.30030  0.09640  0.56090  1.0000 0.0990789987
H   H136      1.0  0.13120  0.10960  0.53780  1.0000 0.0990789987
H   H137      1.0  0.09560  0.12820  0.63650  1.0000 0.109296282
H   H138      1.0  0.26310  0.11390  0.65930  1.0000 0.109296282
H   H139      1.0  0.64870  0.04850  0.61250  1.0000 0.1308241199
H   H140      1.0  0.53460  0.99530  0.64090  1.0000 0.1200614615
H   H141      1.0  0.21810  0.93070  0.72140  1.0000 0.1308241199
H   H142      1.0  0.33580  0.98550  0.70280  1.0000 0.1200614615
H   H143      1.0  0.75100  0.85280  0.71390  1.0000 0.1200614615
H   H144      1.0  0.59150  0.86950  0.68570  1.0000 0.0990789987
H   H145      1.0  0.85430  0.91540  0.18990  1.0000 0.1308241199
H   H146      1.0  0.97100  0.96750  0.15490  1.0000 0.1308241199
H   H147      1.0  0.73620  0.10880  0.07000  1.0000 0.109296282
H   H148      1.0  0.88320  0.08670  0.05570  1.0000 0.109296282
H   H149      1.0  0.85750  0.11900  0.16840  1.0000 0.109296282
H   H150      1.0  0.00640  0.09840  0.15170  1.0000 0.0990789987
H   H151      1.0  0.97660  0.14640  0.06430  1.0000 0.1387116043
H   H152      1.0  0.08810  0.15330  0.12350  1.0000 0.1387116043
H   H153      1.0  0.43380  0.19330  0.94700  1.0000 0.1308241199
H   H154      1.0  0.25620  0.19210  0.95730  1.0000 0.1308241199
H   H155      1.0  0.48620  0.14720  0.01100  1.0000 0.1200614615
H   H156      1.0  0.31340  0.14720  0.02710  1.0000 0.1200614615
H   H157      1.0  0.37630  0.13360  0.90700  1.0000 0.0990789987
H   H158      1.0  0.21870  0.12530  0.93350  1.0000 0.109296282
H   H159      1.0  0.12000  0.01250  0.02470  1.0000 0.1308241199
H   H160      1.0  0.80540  0.04400  0.94660  1.0000 0.1387116043
H   H161      1.0  0.31450  0.04970  0.15460  1.0000 0.1308241199
H   H162      1.0  0.20810  0.00000  0.19400  1.0000 0.1200614615
H   H163      1.0  0.39410  0.85050  0.23000  1.0000 0.109296282
H   H164      1.0  0.23220  0.87000  0.22950  1.0000 0.109296282
H   H165      1.0  0.46440  0.86620  0.32730  1.0000 0.109296282
H   H166      1.0  0.32060  0.89210  0.32730  1.0000 0.0990789987
H   H167      1.0  0.17540  0.83090  0.30190  1.0000 0.1387116043
H   H168      1.0  0.20100  0.84610  0.36740  1.0000 0.1387116043
H   H169      1.0  0.04170  0.33490  0.25410  1.0000 0.1387116043
H   H170      1.0  0.04100  0.34210  0.18520  1.0000 0.1513438257
H   H171      1.0  0.78500  0.37630  0.19270  1.0000 0.109296282
H   H172      1.0  0.93790  0.39640  0.22020  1.0000 0.0943322252
H   H173      1.0  0.96310  0.66950  0.57200  1.0000 0.1308241199
H   H174      1.0  0.81230  0.68120  0.60040  1.0000 0.1387116043
H   H175      1.0  0.81540  0.63180  0.50180  1.0000 0.109296282
H   H176      1.0  0.65770  0.64650  0.52150  1.0000 0.1200614615
H   H177      1.0  0.71500  0.61940  0.61760  1.0000 0.109296282
H   H178      1.0  0.87580  0.60570  0.59970  1.0000 0.109296282
H   H179      1.0  0.23270  0.56170  0.53580  1.0000 0.1308241199
H   H180      1.0  0.10830  0.51150  0.49220  1.0000 0.1200614615
H   H181      1.0  0.17700  0.65350  0.48150  1.0000 0.1513438257
H   H182      1.0  0.12530  0.65650  0.41260  1.0000 0.1387116043
H   H183      1.0  0.19970  0.59640  0.43910  1.0000 0.0990789987
H   H184      1.0  0.36880  0.60960  0.46220  1.0000 0.0990789987
H   H185      1.0  0.40440  0.62820  0.36350  1.0000 0.109296282
H   H186      1.0  0.23690  0.61390  0.34070  1.0000 0.109296282
H   H187      1.0  0.85130  0.54850  0.38750  1.0000 0.1308241199
H   H188      1.0  0.96540  0.49530  0.35910  1.0000 0.1200614615
H   H189      1.0  0.28190  0.43070  0.27860  1.0000 0.1308241199
H   H190      1.0  0.16420  0.48550  0.29720  1.0000 0.1200614615
H   H191      1.0  0.74900  0.35280  0.28610  1.0000 0.1200614615
H   H192      1.0  0.90850  0.36950  0.31430  1.0000 0.0990789987
C   C1        1.0  0.06700  0.59600  0.21630  1.0000 0.4286697865
C   C2        1.0  0.14230  0.56260  0.19370  1.0000 -0.0508429422
C   C3        1.0  0.29640  0.56370  0.18290  1.0000 -0.0801213273
C   C4        1.0  0.36590  0.53250  0.16110  1.0000 -0.0614564675
C   C5        1.0  0.27950  0.50310  0.14950  1.0000 -0.0702334646
C   C6        1.0  0.11810  0.50050  0.16140  1.0000 0.0084736652
C   C7        1.0  0.05280  0.53170  0.18340  1.0000 0.0209411
C   C8        1.0  0.02820  0.47020  0.14990  1.0000 -0.0614564675
C   C9        1.0  0.09700  0.43810  0.12250  1.0000 0.4286697865
C   C10       1.0  0.34600  0.46930  0.12600  1.0000 0.4286697865
C   C11       1.0  0.32020  0.40660  0.08730  1.0000 -0.0973326568
C   C12       1.0  0.41900  0.38680  0.13580  1.0000 -0.143062022
C   C13       1.0  0.48000  0.35080  0.10750  1.0000 -0.3096583155
C   C14       1.0  0.38100  0.31830  0.12170  1.0000 0.6412139654
C   C15       1.0  0.89500  0.28740  0.03090  1.0000 0.6652650605
C   C16       1.0  0.86200  0.31200  0.97620  1.0000 -0.2979856883
C   C17       1.0  0.87800  0.34840  0.99520  1.0000 -0.1489503488
C   C18       1.0  0.83100  0.37460  0.94260  1.0000 -0.0973326568
C   C19       1.0  0.04200  0.42110  0.94910  1.0000 0.4211366563
C   C20       1.0  0.08700  0.45860  0.96640  1.0000 -0.0702334646
C   C21       1.0  0.97400  0.48260  0.99040  1.0000 0.0084736652
C   C22       1.0  0.82300  0.47010  0.99830  1.0000 -0.0614564675
C   C23       1.0  0.77000  0.43300  0.97710  1.0000 0.4286697865
C   C24       1.0  0.72200  0.49470  0.02100  1.0000 -0.0801213273
C   C25       1.0  0.23300  0.47110  0.96180  1.0000 -0.0702334646
C   C26       1.0  0.87580  0.47070  0.16220  1.0000 -0.0702334646
C   C27       1.0  0.81120  0.50060  0.18530  1.0000 -0.089675554
C   C28       1.0  0.89850  0.53140  0.19570  1.0000 -0.0508429422
C   C29       1.0  0.82400  0.56480  0.21800  1.0000 0.4286697865
C   C30       1.0  0.84100  0.62900  0.24540  1.0000 -0.089675554
C   C31       1.0  0.85600  0.63040  0.31180  1.0000 -0.143062022
C   C32       1.0  0.75400  0.66240  0.33420  1.0000 -0.3096583155
C   C33       1.0  0.85100  0.69680  0.35510  1.0000 0.6412139654
C   C34       1.0  0.37900  0.19480  0.20330  1.0000 0.6485294769
C   C35       1.0  0.47430  0.16140  0.21690  1.0000 -0.3283226867
C   C36       1.0  0.37300  0.12480  0.22350  1.0000 -0.1489503488
C   C37       1.0  0.33320  0.79400  0.52110  1.0000 0.6627996932
C   C38       1.0  0.35270  0.82510  0.56300  1.0000 -0.3283226867
C   C39       1.0  0.26510  0.85950  0.53570  1.0000 -0.1489503488
C   C40       1.0  0.26820  0.88930  0.58440  1.0000 -0.089675554
C   C41       1.0  0.27800  0.94890  0.54140  1.0000 0.4286697865
C   C42       1.0  0.19910  0.98310  0.52010  1.0000 -0.0614564675
C   C43       1.0  0.03970  0.98440  0.51260  1.0000 0.0209411
C   C44       1.0  0.94900  0.95530  0.52970  1.0000 -0.0614564675
C   C45       1.0  0.03100  0.92300  0.55850  1.0000 0.4286697865
C   C46       1.0  0.79150  0.95720  0.52320  1.0000 -0.0702334646
C   C47       1.0  0.71690  0.98770  0.49750  1.0000 -0.0801213273
C   C48       1.0  0.82420  0.81760  0.43820  1.0000 0.6412139654
C   C49       1.0  0.71460  0.84740  0.44230  1.0000 -0.3411766519
C   C50       1.0  0.77930  0.88600  0.43290  1.0000 -0.143062022
C   C51       1.0  0.82730  0.88990  0.36990  1.0000 -0.089675554
C   C52       1.0  0.05520  0.93000  0.37700  1.0000 0.4286697865
C   C53       1.0  0.12700  0.96430  0.36130  1.0000 -0.0801213273
C   C54       1.0  0.02850  0.99310  0.33510  1.0000 0.0209411
C   C55       1.0  0.86400  0.98890  0.32620  1.0000 -0.0702334646
C   C56       1.0  0.79410  0.95350  0.33990  1.0000 0.4211366563
C   C57       1.0  0.28780  0.96970  0.37010  1.0000 -0.0702334646
C   C58       1.0  0.35750  0.00190  0.35360  1.0000 -0.0702334646
C   C59       1.0  0.26240  0.02940  0.32890  1.0000 -0.0702334646
C   C60       1.0  0.09890  0.02630  0.32140  1.0000 0.0209411
C   C61       1.0  0.00380  0.05450  0.29980  1.0000 -0.0702334646
C   C62       1.0  0.84450  0.04990  0.29220  1.0000 -0.0702334646
C   C63       1.0  0.77210  0.01710  0.30420  1.0000 -0.0801213273
C   C64       1.0  0.07650  0.08920  0.29010  1.0000 0.4211366563
C   C65       1.0  0.33300  0.06310  0.31170  1.0000 0.4211366563
C   C66       1.0  0.32000  0.12710  0.28410  1.0000 -0.089675554
C   C67       1.0  0.43300  0.09600  0.78370  1.0000 0.4286697865
C   C68       1.0  0.35770  0.06260  0.80630  1.0000 -0.0508429422
C   C69       1.0  0.20360  0.06370  0.81710  1.0000 -0.0801213273
C   C70       1.0  0.13410  0.03250  0.83890  1.0000 -0.0614564675
C   C71       1.0  0.22050  0.00310  0.85050  1.0000 -0.0702334646
C   C72       1.0  0.38190  0.00050  0.83860  1.0000 0.0084736652
C   C73       1.0  0.44720  0.03170  0.81660  1.0000 0.0209411
C   C74       1.0  0.47180  0.97020  0.85010  1.0000 -0.0614564675
C   C75       1.0  0.40300  0.93810  0.87750  1.0000 0.4286697865
C   C76       1.0  0.15400  0.96930  0.87400  1.0000 0.4286697865
C   C77       1.0  0.17980  0.90660  0.91270  1.0000 -0.0973326568
C   C78       1.0  0.08100  0.88680  0.86420  1.0000 -0.143062022
C   C79       1.0  0.02000  0.85080  0.89250  1.0000 -0.3096583155
C   C80       1.0  0.11900  0.81830  0.87830  1.0000 0.6412139654
C   C81       1.0  0.60500  0.78740  0.96910  1.0000 0.6652650605
C   C82       1.0  0.63800  0.81200  0.02380  1.0000 -0.2979856883
C   C83       1.0  0.62200  0.84840  0.00480  1.0000 -0.1489503488
C   C84       1.0  0.66900  0.87460  0.05740  1.0000 -0.0973326568
C   C85       1.0  0.45800  0.92110  0.05090  1.0000 0.4211366563
C   C86       1.0  0.41300  0.95860  0.03360  1.0000 -0.0702334646
C   C87       1.0  0.52600  0.98260  0.00960  1.0000 0.0084736652
C   C88       1.0  0.67700  0.97010  0.00170  1.0000 -0.0614564675
C   C89       1.0  0.73000  0.93300  0.02290  1.0000 0.4286697865
C   C90       1.0  0.77800  0.99470  0.97900  1.0000 -0.0801213273
C   C91       1.0  0.26700  0.97110  0.03820  1.0000 -0.0702334646
C   C92       1.0  0.62420  0.97070  0.83780  1.0000 -0.0702334646
C   C93       1.0  0.68880  0.00060  0.81470  1.0000 -0.089675554
C   C94       1.0  0.60150  0.03140  0.80430  1.0000 -0.0508429422
C   C95       1.0  0.67600  0.06480  0.78200  1.0000 0.4286697865
C   C96       1.0  0.65900  0.12900  0.75460  1.0000 -0.089675554
C   C97       1.0  0.64400  0.13040  0.68820  1.0000 -0.143062022
C   C98       1.0  0.74600  0.16240  0.66580  1.0000 -0.3096583155
C   C99       1.0  0.64900  0.19680  0.64490  1.0000 0.6412139654
C   C100      1.0  0.12100  0.69480  0.79670  1.0000 0.6485294769
C   C101      1.0  0.02570  0.66140  0.78310  1.0000 -0.3283226867
C   C102      1.0  0.12700  0.62480  0.77650  1.0000 -0.1489503488
C   C103      1.0  0.16680  0.29400  0.47890  1.0000 0.6627996932
C   C104      1.0  0.14730  0.32510  0.43700  1.0000 -0.3283226867
C   C105      1.0  0.23490  0.35950  0.46430  1.0000 -0.1489503488
C   C106      1.0  0.23180  0.38930  0.41560  1.0000 -0.089675554
C   C107      1.0  0.22200  0.44890  0.45860  1.0000 0.4286697865
C   C108      1.0  0.30090  0.48310  0.47990  1.0000 -0.0614564675
C   C109      1.0  0.46030  0.48440  0.48740  1.0000 0.0209411
C   C110      1.0  0.55100  0.45530  0.47030  1.0000 -0.0614564675
C   C111      1.0  0.46900  0.42300  0.44150  1.0000 0.4286697865
C   C112      1.0  0.70850  0.45720  0.47680  1.0000 -0.0702334646
C   C113      1.0  0.78310  0.48770  0.50250  1.0000 -0.0801213273
C   C114      1.0  0.67580  0.31760  0.56180  1.0000 0.6412139654
C   C115      1.0  0.78540  0.34740  0.55770  1.0000 -0.3411766519
C   C116      1.0  0.72070  0.38600  0.56710  1.0000 -0.143062022
C   C117      1.0  0.67270  0.38990  0.63010  1.0000 -0.089675554
C   C118      1.0  0.44480  0.43000  0.62300  1.0000 0.4286697865
C   C119      1.0  0.37300  0.46430  0.63870  1.0000 -0.0801213273
C   C120      1.0  0.47150  0.49310  0.66490  1.0000 0.0209411
C   C121      1.0  0.63600  0.48890  0.67380  1.0000 -0.0702334646
C   C122      1.0  0.70590  0.45350  0.66010  1.0000 0.4211366563
C   C123      1.0  0.21220  0.46970  0.62990  1.0000 -0.0702334646
C   C124      1.0  0.14250  0.50190  0.64640  1.0000 -0.0702334646
C   C125      1.0  0.23760  0.52940  0.67110  1.0000 -0.0702334646
C   C126      1.0  0.40110  0.52630  0.67860  1.0000 0.0209411
C   C127      1.0  0.49620  0.55450  0.70020  1.0000 -0.0702334646
C   C128      1.0  0.65550  0.54990  0.70780  1.0000 -0.0702334646
C   C129      1.0  0.72790  0.51710  0.69580  1.0000 -0.0801213273
C   C130      1.0  0.42350  0.58920  0.70990  1.0000 0.4211366563
C   C131      1.0  0.16700  0.56310  0.68830  1.0000 0.4211366563
C   C132      1.0  0.18000  0.62710  0.71590  1.0000 -0.089675554
C   C133      1.0  0.93300  0.40400  0.78370  1.0000 0.4286697865
C   C134      1.0  0.85770  0.43740  0.80630  1.0000 -0.0508429422
C   C135      1.0  0.70360  0.43630  0.81710  1.0000 -0.0801213273
C   C136      1.0  0.63410  0.46750  0.83890  1.0000 -0.0614564675
C   C137      1.0  0.72050  0.49690  0.85050  1.0000 -0.0702334646
C   C138      1.0  0.88190  0.49950  0.83860  1.0000 0.0084736652
C   C139      1.0  0.94720  0.46830  0.81660  1.0000 0.0209411
C   C140      1.0  0.97180  0.52980  0.85010  1.0000 -0.0614564675
C   C141      1.0  0.90300  0.56190  0.87750  1.0000 0.4286697865
C   C142      1.0  0.65400  0.53070  0.87400  1.0000 0.4286697865
C   C143      1.0  0.67980  0.59340  0.91270  1.0000 -0.0973326568
C   C144      1.0  0.58100  0.61320  0.86420  1.0000 -0.143062022
C   C145      1.0  0.52000  0.64920  0.89250  1.0000 -0.3096583155
C   C146      1.0  0.61900  0.68170  0.87830  1.0000 0.6412139654
C   C147      1.0  0.10500  0.71260  0.96910  1.0000 0.6652650605
C   C148      1.0  0.13800  0.68800  0.02380  1.0000 -0.2979856883
C   C149      1.0  0.12200  0.65160  0.00480  1.0000 -0.1489503488
C   C150      1.0  0.16900  0.62540  0.05740  1.0000 -0.0973326568
C   C151      1.0  0.95800  0.57890  0.05090  1.0000 0.4211366563
C   C152      1.0  0.91300  0.54140  0.03360  1.0000 -0.0702334646
C   C153      1.0  0.02600  0.51740  0.00960  1.0000 0.0084736652
C   C154      1.0  0.17700  0.52990  0.00170  1.0000 -0.0614564675
C   C155      1.0  0.23000  0.56700  0.02290  1.0000 0.4286697865
C   C156      1.0  0.27800  0.50530  0.97900  1.0000 -0.0801213273
C   C157      1.0  0.76700  0.52890  0.03820  1.0000 -0.0702334646
C   C158      1.0  0.12420  0.52930  0.83780  1.0000 -0.0702334646
C   C159      1.0  0.18880  0.49940  0.81470  1.0000 -0.089675554
C   C160      1.0  0.10150  0.46860  0.80430  1.0000 -0.0508429422
C   C161      1.0  0.17600  0.43520  0.78200  1.0000 0.4286697865
C   C162      1.0  0.15900  0.37100  0.75460  1.0000 -0.089675554
C   C163      1.0  0.14400  0.36960  0.68820  1.0000 -0.143062022
C   C164      1.0  0.24600  0.33760  0.66580  1.0000 -0.3096583155
C   C165      1.0  0.14900  0.30320  0.64490  1.0000 0.6412139654
C   C166      1.0  0.62100  0.80520  0.79670  1.0000 0.6485294769
C   C167      1.0  0.52570  0.83860  0.78310  1.0000 -0.3283226867
C   C168      1.0  0.62700  0.87520  0.77650  1.0000 -0.1489503488
C   C169      1.0  0.66680  0.20600  0.47890  1.0000 0.6627996932
C   C170      1.0  0.64730  0.17490  0.43700  1.0000 -0.3283226867
C   C171      1.0  0.73490  0.14050  0.46430  1.0000 -0.1489503488
C   C172      1.0  0.73180  0.11070  0.41560  1.0000 -0.089675554
C   C173      1.0  0.72200  0.05110  0.45860  1.0000 0.4286697865
C   C174      1.0  0.80090  0.01690  0.47990  1.0000 -0.0614564675
C   C175      1.0  0.96030  0.01560  0.48740  1.0000 0.0209411
C   C176      1.0  0.05100  0.04470  0.47030  1.0000 -0.0614564675
C   C177      1.0  0.96900  0.07700  0.44150  1.0000 0.4286697865
C   C178      1.0  0.20850  0.04280  0.47680  1.0000 -0.0702334646
C   C179      1.0  0.28310  0.01230  0.50250  1.0000 -0.0801213273
C   C180      1.0  0.17580  0.18240  0.56180  1.0000 0.6412139654
C   C181      1.0  0.28540  0.15260  0.55770  1.0000 -0.3411766519
C   C182      1.0  0.22070  0.11400  0.56710  1.0000 -0.143062022
C   C183      1.0  0.17270  0.11010  0.63010  1.0000 -0.089675554
C   C184      1.0  0.94480  0.07000  0.62300  1.0000 0.4286697865
C   C185      1.0  0.87300  0.03570  0.63870  1.0000 -0.0801213273
C   C186      1.0  0.97150  0.00690  0.66490  1.0000 0.0209411
C   C187      1.0  0.13600  0.01110  0.67380  1.0000 -0.0702334646
C   C188      1.0  0.20590  0.04650  0.66010  1.0000 0.4211366563
C   C189      1.0  0.71220  0.03030  0.62990  1.0000 -0.0702334646
C   C190      1.0  0.64250  0.99810  0.64640  1.0000 -0.0702334646
C   C191      1.0  0.73760  0.97060  0.67110  1.0000 -0.0702334646
C   C192      1.0  0.90110  0.97370  0.67860  1.0000 0.0209411
C   C193      1.0  0.99620  0.94550  0.70020  1.0000 -0.0702334646
C   C194      1.0  0.15550  0.95010  0.70780  1.0000 -0.0702334646
C   C195      1.0  0.22790  0.98290  0.69580  1.0000 -0.0801213273
C   C196      1.0  0.92350  0.91080  0.70990  1.0000 0.4211366563
C   C197      1.0  0.66700  0.93690  0.68830  1.0000 0.4211366563
C   C198      1.0  0.68000  0.87290  0.71590  1.0000 -0.089675554
C   C199      1.0  0.56700  0.90400  0.21630  1.0000 0.4286697865
C   C200      1.0  0.64230  0.93740  0.19370  1.0000 -0.0508429422
C   C201      1.0  0.79640  0.93630  0.18290  1.0000 -0.0801213273
C   C202      1.0  0.86590  0.96750  0.16110  1.0000 -0.0614564675
C   C203      1.0  0.77950  0.99690  0.14950  1.0000 -0.0702334646
C   C204      1.0  0.61810  0.99950  0.16140  1.0000 0.0084736652
C   C205      1.0  0.55280  0.96830  0.18340  1.0000 0.0209411
C   C206      1.0  0.52820  0.02980  0.14990  1.0000 -0.0614564675
C   C207      1.0  0.59700  0.06190  0.12250  1.0000 0.4286697865
C   C208      1.0  0.84600  0.03070  0.12600  1.0000 0.4286697865
C   C209      1.0  0.82020  0.09340  0.08730  1.0000 -0.0973326568
C   C210      1.0  0.91900  0.11320  0.13580  1.0000 -0.143062022
C   C211      1.0  0.98000  0.14920  0.10750  1.0000 -0.3096583155
C   C212      1.0  0.88100  0.18170  0.12170  1.0000 0.6412139654
C   C213      1.0  0.39500  0.21260  0.03090  1.0000 0.6652650605
C   C214      1.0  0.36200  0.18800  0.97620  1.0000 -0.2979856883
C   C215      1.0  0.37800  0.15160  0.99520  1.0000 -0.1489503488
C   C216      1.0  0.33100  0.12540  0.94260  1.0000 -0.0973326568
C   C217      1.0  0.54200  0.07890  0.94910  1.0000 0.4211366563
C   C218      1.0  0.58700  0.04140  0.96640  1.0000 -0.0702334646
C   C219      1.0  0.47400  0.01740  0.99040  1.0000 0.0084736652
C   C220      1.0  0.32300  0.02990  0.99830  1.0000 -0.0614564675
C   C221      1.0  0.27000  0.06700  0.97710  1.0000 0.4286697865
C   C222      1.0  0.22200  0.00530  0.02100  1.0000 -0.0801213273
C   C223      1.0  0.73300  0.02890  0.96180  1.0000 -0.0702334646
C   C224      1.0  0.37580  0.02930  0.16220  1.0000 -0.0702334646
C   C225      1.0  0.31120  0.99940  0.18530  1.0000 -0.089675554
C   C226      1.0  0.39850  0.96860  0.19570  1.0000 -0.0508429422
C   C227      1.0  0.32400  0.93520  0.21800  1.0000 0.4286697865
C   C228      1.0  0.34100  0.87100  0.24540  1.0000 -0.089675554
C   C229      1.0  0.35600  0.86960  0.31180  1.0000 -0.143062022
C   C230      1.0  0.25400  0.83760  0.33420  1.0000 -0.3096583155
C   C231      1.0  0.35100  0.80320  0.35510  1.0000 0.6412139654
C   C232      1.0  0.87900  0.30520  0.20330  1.0000 0.6485294769
C   C233      1.0  0.97430  0.33860  0.21690  1.0000 -0.3283226867
C   C234      1.0  0.87300  0.37520  0.22350  1.0000 -0.1489503488
C   C235      1.0  0.83320  0.70600  0.52110  1.0000 0.6627996932
C   C236      1.0  0.85270  0.67490  0.56300  1.0000 -0.3283226867
C   C237      1.0  0.76510  0.64050  0.53570  1.0000 -0.1489503488
C   C238      1.0  0.76820  0.61070  0.58440  1.0000 -0.089675554
C   C239      1.0  0.77800  0.55110  0.54140  1.0000 0.4286697865
C   C240      1.0  0.69910  0.51690  0.52010  1.0000 -0.0614564675
C   C241      1.0  0.53970  0.51560  0.51260  1.0000 0.0209411
C   C242      1.0  0.44900  0.54470  0.52970  1.0000 -0.0614564675
C   C243      1.0  0.53100  0.57700  0.55850  1.0000 0.4286697865
C   C244      1.0  0.29150  0.54280  0.52320  1.0000 -0.0702334646
C   C245      1.0  0.21690  0.51230  0.49750  1.0000 -0.0801213273
C   C246      1.0  0.32420  0.68240  0.43820  1.0000 0.6412139654
C   C247      1.0  0.21460  0.65260  0.44230  1.0000 -0.3411766519
C   C248      1.0  0.27930  0.61400  0.43290  1.0000 -0.143062022
C   C249      1.0  0.32730  0.61010  0.36990  1.0000 -0.089675554
C   C250      1.0  0.55520  0.57000  0.37700  1.0000 0.4286697865
C   C251      1.0  0.62700  0.53570  0.36130  1.0000 -0.0801213273
C   C252      1.0  0.52850  0.50690  0.33510  1.0000 0.0209411
C   C253      1.0  0.36400  0.51110  0.32620  1.0000 -0.0702334646
C   C254      1.0  0.29410  0.54650  0.33990  1.0000 0.4211366563
C   C255      1.0  0.78780  0.53030  0.37010  1.0000 -0.0702334646
C   C256      1.0  0.85750  0.49810  0.35360  1.0000 -0.0702334646
C   C257      1.0  0.76240  0.47060  0.32890  1.0000 -0.0702334646
C   C258      1.0  0.59890  0.47370  0.32140  1.0000 0.0209411
C   C259      1.0  0.50380  0.44550  0.29980  1.0000 -0.0702334646
C   C260      1.0  0.34450  0.45010  0.29220  1.0000 -0.0702334646
C   C261      1.0  0.27210  0.48290  0.30420  1.0000 -0.0801213273
C   C262      1.0  0.57650  0.41080  0.29010  1.0000 0.4211366563
C   C263      1.0  0.83300  0.43690  0.31170  1.0000 0.4211366563
C   C264      1.0  0.82000  0.37290  0.28410  1.0000 -0.089675554
N   N1        1.0  0.25350  0.43960  0.11300  1.0000 -0.1805550511
N   N2        1.0  0.88800  0.41190  0.95830  1.0000 -0.1805550511
N   N3        1.0  0.91300  0.59500  0.22590  1.0000 -0.1727058184
N   N4        1.0  0.19370  0.92240  0.56110  1.0000 -0.1727058184
N   N5        1.0  0.89490  0.92690  0.36070  1.0000 -0.1805550511
N   N6        1.0  0.23720  0.09190  0.29490  1.0000 -0.1600536001
N   N7        1.0  0.24650  0.93960  0.88700  1.0000 -0.1805550511
N   N8        1.0  0.61200  0.91190  0.04170  1.0000 -0.1805550511
N   N9        1.0  0.58700  0.09500  0.77410  1.0000 -0.1727058184
N   N10       1.0  0.30630  0.42240  0.43890  1.0000 -0.1727058184
N   N11       1.0  0.60510  0.42690  0.63930  1.0000 -0.1805550511
N   N12       1.0  0.26280  0.59190  0.70510  1.0000 -0.1600536001
N   N13       1.0  0.74650  0.56040  0.88700  1.0000 -0.1805550511
N   N14       1.0  0.11200  0.58810  0.04170  1.0000 -0.1805550511
N   N15       1.0  0.08700  0.40500  0.77410  1.0000 -0.1727058184
N   N16       1.0  0.80630  0.07760  0.43890  1.0000 -0.1727058184
N   N17       1.0  0.10510  0.07310  0.63930  1.0000 -0.1805550511
N   N18       1.0  0.76280  0.90810  0.70510  1.0000 -0.1600536001
N   N19       1.0  0.75350  0.06040  0.11300  1.0000 -0.1805550511
N   N20       1.0  0.38800  0.08810  0.95830  1.0000 -0.1805550511
N   N21       1.0  0.41300  0.90500  0.22590  1.0000 -0.1727058184
N   N22       1.0  0.69370  0.57760  0.56110  1.0000 -0.1727058184
N   N23       1.0  0.39490  0.57310  0.36070  1.0000 -0.1805550511
N   N24       1.0  0.73720  0.40810  0.29490  1.0000 -0.1600536001
O   O1        1.0  0.14750  0.62380  0.22400  1.0000 -0.448195828
O   O2        1.0  0.01830  0.41260  0.10700  1.0000 -0.4064514418
O   O3        1.0  0.48300  0.46800  0.11780  1.0000 -0.4294813844
O   O4        1.0  0.63960  0.42240  0.98430  1.0000 -0.4294813844
O   O5        1.0  0.12710  0.40100  0.92640  1.0000 -0.4196430375
O   O6        1.0  0.02500  0.27760  0.04830  1.0000 -0.5580357276
O   O7        1.0  0.44150  0.28730  0.12000  1.0000 -0.6624926259
O   O8        1.0  0.77390  0.28250  0.05820  1.0000 -0.6624926259
O   O9        1.0  0.24360  0.32230  0.13050  1.0000 -0.5692366774
O   O10       1.0  0.77300  0.71980  0.37740  1.0000 -0.6415369739
O   O11       1.0  0.99110  0.70000  0.34680  1.0000 -0.5692366774
O   O12       1.0  0.68660  0.56540  0.22720  1.0000 -0.448195828
O   O13       1.0  0.23510  0.19510  0.20370  1.0000 -0.5580357276
O   O14       1.0  0.44840  0.22080  0.18380  1.0000 -0.6534059872
O   O15       1.0  0.47670  0.06690  0.31580  1.0000 -0.4576961967
O   O16       1.0  0.99540  0.11640  0.27690  1.0000 -0.448195828
O   O17       1.0  0.41900  0.94540  0.54180  1.0000 -0.4398265114
O   O18       1.0  0.95320  0.89800  0.57710  1.0000 -0.4398265114
O   O19       1.0  0.12920  0.90780  0.40640  1.0000 -0.4196430375
O   O20       1.0  0.65480  0.94910  0.33240  1.0000 -0.4294813844
O   O21       1.0  0.20420  0.78050  0.50890  1.0000 -0.5692366774
O   O22       1.0  0.45590  0.78290  0.50060  1.0000 -0.6319202711
O   O23       1.0  0.77050  0.78550  0.43640  1.0000 -0.6746634771
O   O24       1.0  0.96470  0.82260  0.43420  1.0000 -0.5580357276
O   O25       1.0  0.35250  0.12380  0.77600  1.0000 -0.4576961967
O   O26       1.0  0.48170  0.91260  0.89300  1.0000 -0.4064514418
O   O27       1.0  0.01700  0.96800  0.88220  1.0000 -0.4294813844
O   O28       1.0  0.86040  0.92240  0.01570  1.0000 -0.4294813844
O   O29       1.0  0.37290  0.90100  0.07360  1.0000 -0.4196430375
O   O30       1.0  0.47500  0.77760  0.95170  1.0000 -0.5692366774
O   O31       1.0  0.05850  0.78730  0.88000  1.0000 -0.6624926259
O   O32       1.0  0.72610  0.78250  0.94180  1.0000 -0.6624926259
O   O33       1.0  0.25640  0.82230  0.86950  1.0000 -0.5692366774
O   O34       1.0  0.72700  0.21980  0.62260  1.0000 -0.6415369739
O   O35       1.0  0.50890  0.20000  0.65320  1.0000 -0.5759668579
O   O36       1.0  0.81340  0.06540  0.77280  1.0000 -0.448195828
O   O37       1.0  0.26490  0.69510  0.79630  1.0000 -0.5580357276
O   O38       1.0  0.05160  0.72080  0.81620  1.0000 -0.6534059872
O   O39       1.0  0.02330  0.56690  0.68420  1.0000 -0.4576961967
O   O40       1.0  0.50460  0.61640  0.72310  1.0000 -0.448195828
O   O41       1.0  0.08100  0.44540  0.45820  1.0000 -0.4398265114
O   O42       1.0  0.54680  0.39800  0.42290  1.0000 -0.4398265114
O   O43       1.0  0.37080  0.40780  0.59360  1.0000 -0.4196430375
O   O44       1.0  0.84520  0.44910  0.66760  1.0000 -0.4294813844
O   O45       1.0  0.29580  0.28050  0.49110  1.0000 -0.5759668579
O   O46       1.0  0.04410  0.28290  0.49940  1.0000 -0.6319202711
O   O47       1.0  0.72950  0.28550  0.56360  1.0000 -0.6746634771
O   O48       1.0  0.53530  0.32260  0.56580  1.0000 -0.5580357276
O   O49       1.0  0.85250  0.37620  0.77600  1.0000 -0.4576961967
O   O50       1.0  0.98170  0.58740  0.89300  1.0000 -0.4064514418
O   O51       1.0  0.51700  0.53200  0.88220  1.0000 -0.4294813844
O   O52       1.0  0.36040  0.57760  0.01570  1.0000 -0.4294813844
O   O53       1.0  0.87290  0.59900  0.07360  1.0000 -0.4196430375
O   O54       1.0  0.97500  0.72240  0.95170  1.0000 -0.5692366774
O   O55       1.0  0.55850  0.71270  0.88000  1.0000 -0.6624926259
O   O56       1.0  0.22610  0.71750  0.94180  1.0000 -0.6624926259
O   O57       1.0  0.75640  0.67770  0.86950  1.0000 -0.5692366774
O   O58       1.0  0.22700  0.28020  0.62260  1.0000 -0.6415369739
O   O59       1.0  0.00890  0.30000  0.65320  1.0000 -0.5692366774
O   O60       1.0  0.31340  0.43460  0.77280  1.0000 -0.448195828
O   O61       1.0  0.76490  0.80490  0.79630  1.0000 -0.5580357276
O   O62       1.0  0.55160  0.77920  0.81620  1.0000 -0.6534059872
O   O63       1.0  0.52330  0.93310  0.68420  1.0000 -0.4576961967
O   O64       1.0  0.00460  0.88360  0.72310  1.0000 -0.448195828
O   O65       1.0  0.58100  0.05460  0.45820  1.0000 -0.4294813844
O   O66       1.0  0.04680  0.10200  0.42290  1.0000 -0.4398265114
O   O67       1.0  0.87080  0.09220  0.59360  1.0000 -0.4196430375
O   O68       1.0  0.34520  0.05090  0.66760  1.0000 -0.4294813844
O   O69       1.0  0.79580  0.21950  0.49110  1.0000 -0.5692366774
O   O70       1.0  0.54410  0.21710  0.49940  1.0000 -0.6319202711
O   O71       1.0  0.22950  0.21450  0.56360  1.0000 -0.6746634771
O   O72       1.0  0.03530  0.17740  0.56580  1.0000 -0.5580357276
O   O73       1.0  0.64750  0.87620  0.22400  1.0000 -0.4576961967
O   O74       1.0  0.51830  0.08740  0.10700  1.0000 -0.4064514418
O   O75       1.0  0.98300  0.03200  0.11780  1.0000 -0.4294813844
O   O76       1.0  0.13960  0.07760  0.98430  1.0000 -0.4294813844
O   O77       1.0  0.62710  0.09900  0.92640  1.0000 -0.4196430375
O   O78       1.0  0.52500  0.22240  0.04830  1.0000 -0.5692366774
O   O79       1.0  0.94150  0.21270  0.12000  1.0000 -0.6624926259
O   O80       1.0  0.27390  0.21750  0.05820  1.0000 -0.6624926259
O   O81       1.0  0.74360  0.17770  0.13050  1.0000 -0.5692366774
O   O82       1.0  0.27300  0.78020  0.37740  1.0000 -0.6415369739
O   O83       1.0  0.49110  0.80000  0.34680  1.0000 -0.5692366774
O   O84       1.0  0.18660  0.93460  0.22720  1.0000 -0.448195828
O   O85       1.0  0.73510  0.30490  0.20370  1.0000 -0.5580357276
O   O86       1.0  0.94840  0.27920  0.18380  1.0000 -0.6534059872
O   O87       1.0  0.97670  0.43310  0.31580  1.0000 -0.4576961967
O   O88       1.0  0.49540  0.38360  0.27690  1.0000 -0.448195828
O   O89       1.0  0.91900  0.55460  0.54180  1.0000 -0.4294813844
O   O90       1.0  0.45320  0.60200  0.57710  1.0000 -0.4398265114
O   O91       1.0  0.62920  0.59220  0.40640  1.0000 -0.4196430375
O   O92       1.0  0.15480  0.55090  0.33240  1.0000 -0.4294813844
O   O93       1.0  0.70420  0.71950  0.50890  1.0000 -0.5692366774
O   O94       1.0  0.95590  0.71710  0.50060  1.0000 -0.6319202711
O   O95       1.0  0.27050  0.71450  0.43640  1.0000 -0.6746634771
O   O96       1.0  0.46470  0.67740  0.43420  1.0000 -0.5580357276
