# DDEC6 charges by PACMAN v1.1 (https://github.com/mtap-research/PACMAN-charge/)
data_2019[Eu][nan]3[ASR]10
_chemical_formula_sum              "Eu16 H128 C336 S24 N32 O216"
_cell_length_a       19.407
_cell_length_b       20.148
_cell_length_c       31.8226
_cell_angle_alpha    90
_cell_angle_beta     112.858
_cell_angle_gamma    90

_symmetry_space_group_name_H-M    "P 1"
_symmetry_Int_Tables_number       1

loop_
  _symmetry_equiv_pos_as_xyz
  'x, y, z'

loop_
  _atom_site_type_symbol
  _atom_site_label
  _atom_site_symmetry_multiplicity
  _atom_site_fract_x
  _atom_site_fract_y
  _atom_site_fract_z
  _atom_site_occupancy
  _atom_site_charge
Eu  Eu1       1.0  0.02548  0.18091  0.88796  1.0000 2.1803775055
Eu  Eu2       1.0  0.19845  0.30118  0.86170  1.0000 2.1339529378
Eu  Eu3       1.0  0.51400  0.18889  0.37679  1.0000 2.1854079587
Eu  Eu4       1.0  0.71270  0.30228  0.37500  1.0000 2.0369995458
Eu  Eu5       1.0  0.97452  0.68091  0.61204  1.0000 2.1803775055
Eu  Eu6       1.0  0.80155  0.80118  0.63830  1.0000 2.1339529378
Eu  Eu7       1.0  0.48600  0.68889  0.12321  1.0000 2.1854079587
Eu  Eu8       1.0  0.28730  0.80228  0.12500  1.0000 2.0369995458
Eu  Eu9       1.0  0.97452  0.81909  0.11204  1.0000 2.1803775055
Eu  Eu10      1.0  0.80155  0.69882  0.13830  1.0000 2.1339529378
Eu  Eu11      1.0  0.48600  0.81111  0.62321  1.0000 2.1854079587
Eu  Eu12      1.0  0.28730  0.69772  0.62500  1.0000 2.0369995458
Eu  Eu13      1.0  0.02548  0.31909  0.38796  1.0000 2.1803775055
Eu  Eu14      1.0  0.19845  0.19882  0.36170  1.0000 2.1339529378
Eu  Eu15      1.0  0.51400  0.31111  0.87679  1.0000 2.1854079587
Eu  Eu16      1.0  0.71270  0.19772  0.87500  1.0000 2.0369995458
H   H1        1.0  0.15260  0.43650  0.94190  1.0000 0.1396110036
H   H2        1.0  0.93110  0.40540  0.89400  1.0000 0.1209154065
H   H3        1.0  0.91300  0.50440  0.92460  1.0000 0.1209154065
H   H4        1.0  0.17360  0.67960  0.04450  1.0000 0.1396110036
H   H5        1.0  0.95530  0.72180  0.00990  1.0000 0.1396110036
H   H6        1.0  0.91220  0.18770  0.76610  1.0000 0.1286719991
H   H7        1.0  0.03320  0.26860  0.70160  1.0000 0.1515422618
H   H8        1.0  0.63490  0.19450  0.53260  1.0000 0.1286719991
H   H9        1.0  0.81410  0.26690  0.51470  1.0000 0.1396110036
H   H10       1.0  0.07840  0.04490  0.80410  1.0000 0.1396110036
H   H11       1.0  0.29750  0.08780  0.85500  1.0000 0.1209154065
H   H12       1.0  0.32220  0.99610  0.81960  1.0000 0.1209154065
H   H13       1.0  0.07490  0.81480  0.69200  1.0000 0.1396110036
H   H14       1.0  0.29510  0.78640  0.72720  1.0000 0.1286719991
H   H15       1.0  0.41370  0.18490  0.79860  1.0000 0.1396110036
H   H16       1.0  0.19310  0.22110  0.75450  1.0000 0.1396110036
H   H17       1.0  0.16780  0.01510  0.65960  1.0000 0.1209154065
H   H18       1.0  0.41360  0.94690  0.69430  1.0000 0.1396110036
H   H19       1.0  0.19250  0.91950  0.62740  1.0000 0.1209154065
H   H20       1.0  0.31590  0.16810  0.94240  1.0000 0.1396110036
H   H21       1.0  0.53230  0.22240  0.98070  1.0000 0.1286719991
H   H22       1.0  0.58490  0.01830  0.08050  1.0000 0.1209154065
H   H23       1.0  0.34900  0.92970  0.05290  1.0000 0.1396110036
H   H24       1.0  0.57220  0.91930  0.11450  1.0000 0.1209154065
H   H25       1.0  0.12680  0.43470  0.80840  1.0000 0.3655843658
H   H26       1.0  0.19500  0.40900  0.82100  1.0000 0.26669576
H   H27       1.0  0.71620  0.38000  0.33920  1.0000 0.280140273
H   H28       1.0  0.66390  0.40100  0.29940  1.0000 0.3655843658
H   H29       1.0  0.31560  0.29440  0.98520  1.0000 0.1286719991
H   H30       1.0  0.19620  0.20540  0.04830  1.0000 0.1515422618
H   H31       1.0  0.59160  0.28960  0.21840  1.0000 0.1209154065
H   H32       1.0  0.41360  0.21480  0.23700  1.0000 0.1396110036
H   H33       1.0  0.84740  0.93650  0.55810  1.0000 0.1396110036
H   H34       1.0  0.06890  0.90540  0.60600  1.0000 0.1209154065
H   H35       1.0  0.08700  0.00440  0.57540  1.0000 0.1209154065
H   H36       1.0  0.82640  0.17960  0.45550  1.0000 0.1396110036
H   H37       1.0  0.04470  0.22180  0.49010  1.0000 0.1396110036
H   H38       1.0  0.08780  0.68770  0.73390  1.0000 0.1286719991
H   H39       1.0  0.96680  0.76860  0.79840  1.0000 0.1515422618
H   H40       1.0  0.36510  0.69450  0.96740  1.0000 0.1286719991
H   H41       1.0  0.18590  0.76690  0.98530  1.0000 0.1396110036
H   H42       1.0  0.92160  0.54490  0.69590  1.0000 0.1396110036
H   H43       1.0  0.70250  0.58780  0.64500  1.0000 0.1209154065
H   H44       1.0  0.67780  0.49610  0.68040  1.0000 0.1209154065
H   H45       1.0  0.92510  0.31480  0.80800  1.0000 0.1396110036
H   H46       1.0  0.70490  0.28640  0.77280  1.0000 0.1286719991
H   H47       1.0  0.58630  0.68490  0.70140  1.0000 0.1396110036
H   H48       1.0  0.80690  0.72110  0.74550  1.0000 0.1396110036
H   H49       1.0  0.83220  0.51510  0.84040  1.0000 0.1209154065
H   H50       1.0  0.58640  0.44690  0.80570  1.0000 0.1396110036
H   H51       1.0  0.80750  0.41950  0.87260  1.0000 0.1209154065
H   H52       1.0  0.68410  0.66810  0.55760  1.0000 0.1396110036
H   H53       1.0  0.46770  0.72240  0.51930  1.0000 0.1286719991
H   H54       1.0  0.41510  0.51830  0.41950  1.0000 0.1209154065
H   H55       1.0  0.65100  0.42970  0.44710  1.0000 0.1396110036
H   H56       1.0  0.42780  0.41930  0.38550  1.0000 0.1209154065
H   H57       1.0  0.87320  0.93470  0.69160  1.0000 0.3655843658
H   H58       1.0  0.80500  0.90900  0.67900  1.0000 0.26669576
H   H59       1.0  0.28380  0.88000  0.16080  1.0000 0.280140273
H   H60       1.0  0.33610  0.90100  0.20060  1.0000 0.3655843658
H   H61       1.0  0.68440  0.79440  0.51480  1.0000 0.1286719991
H   H62       1.0  0.80380  0.70540  0.45170  1.0000 0.1515422618
H   H63       1.0  0.40840  0.78960  0.28160  1.0000 0.1209154065
H   H64       1.0  0.58640  0.71480  0.26300  1.0000 0.1396110036
H   H65       1.0  0.84740  0.56350  0.05810  1.0000 0.1396110036
H   H66       1.0  0.06890  0.59460  0.10600  1.0000 0.1209154065
H   H67       1.0  0.08700  0.49560  0.07540  1.0000 0.1209154065
H   H68       1.0  0.82640  0.32040  0.95550  1.0000 0.1396110036
H   H69       1.0  0.04470  0.27820  0.99010  1.0000 0.1396110036
H   H70       1.0  0.08780  0.81230  0.23390  1.0000 0.1286719991
H   H71       1.0  0.96680  0.73140  0.29840  1.0000 0.1515422618
H   H72       1.0  0.36510  0.80550  0.46740  1.0000 0.1286719991
H   H73       1.0  0.18590  0.73310  0.48530  1.0000 0.1396110036
H   H74       1.0  0.92160  0.95510  0.19590  1.0000 0.1396110036
H   H75       1.0  0.70250  0.91220  0.14500  1.0000 0.1209154065
H   H76       1.0  0.67780  0.00390  0.18040  1.0000 0.1209154065
H   H77       1.0  0.92510  0.18520  0.30800  1.0000 0.1396110036
H   H78       1.0  0.70490  0.21360  0.27280  1.0000 0.1286719991
H   H79       1.0  0.58630  0.81510  0.20140  1.0000 0.1396110036
H   H80       1.0  0.80690  0.77890  0.24550  1.0000 0.1396110036
H   H81       1.0  0.83220  0.98490  0.34040  1.0000 0.1209154065
H   H82       1.0  0.58640  0.05310  0.30570  1.0000 0.1396110036
H   H83       1.0  0.80750  0.08050  0.37260  1.0000 0.1209154065
H   H84       1.0  0.68410  0.83190  0.05760  1.0000 0.1396110036
H   H85       1.0  0.46770  0.77760  0.01930  1.0000 0.1286719991
H   H86       1.0  0.41510  0.98170  0.91950  1.0000 0.1209154065
H   H87       1.0  0.65100  0.07030  0.94710  1.0000 0.1396110036
H   H88       1.0  0.42780  0.08070  0.88550  1.0000 0.1209154065
H   H89       1.0  0.87320  0.56530  0.19160  1.0000 0.3655843658
H   H90       1.0  0.80500  0.59100  0.17900  1.0000 0.26669576
H   H91       1.0  0.28380  0.62000  0.66080  1.0000 0.280140273
H   H92       1.0  0.33610  0.59900  0.70060  1.0000 0.3655843658
H   H93       1.0  0.68440  0.70560  0.01480  1.0000 0.1286719991
H   H94       1.0  0.80380  0.79460  0.95170  1.0000 0.1515422618
H   H95       1.0  0.40840  0.71040  0.78160  1.0000 0.1209154065
H   H96       1.0  0.58640  0.78520  0.76300  1.0000 0.1396110036
H   H97       1.0  0.15260  0.06350  0.44190  1.0000 0.1396110036
H   H98       1.0  0.93110  0.09460  0.39400  1.0000 0.1209154065
H   H99       1.0  0.91300  0.99560  0.42460  1.0000 0.1209154065
H   H100      1.0  0.17360  0.82040  0.54450  1.0000 0.1396110036
H   H101      1.0  0.95530  0.77820  0.50990  1.0000 0.1396110036
H   H102      1.0  0.91220  0.31230  0.26610  1.0000 0.1286719991
H   H103      1.0  0.03320  0.23140  0.20160  1.0000 0.1515422618
H   H104      1.0  0.63490  0.30550  0.03260  1.0000 0.1286719991
H   H105      1.0  0.81410  0.23310  0.01470  1.0000 0.1396110036
H   H106      1.0  0.07840  0.45510  0.30410  1.0000 0.1396110036
H   H107      1.0  0.29750  0.41220  0.35500  1.0000 0.1209154065
H   H108      1.0  0.32220  0.50390  0.31960  1.0000 0.1209154065
H   H109      1.0  0.07490  0.68520  0.19200  1.0000 0.1396110036
H   H110      1.0  0.29510  0.71360  0.22720  1.0000 0.1286719991
H   H111      1.0  0.41370  0.31510  0.29860  1.0000 0.1396110036
H   H112      1.0  0.19310  0.27890  0.25450  1.0000 0.1396110036
H   H113      1.0  0.16780  0.48490  0.15960  1.0000 0.1209154065
H   H114      1.0  0.41360  0.55310  0.19430  1.0000 0.1396110036
H   H115      1.0  0.19250  0.58050  0.12740  1.0000 0.1209154065
H   H116      1.0  0.31590  0.33190  0.44240  1.0000 0.1396110036
H   H117      1.0  0.53230  0.27760  0.48070  1.0000 0.1286719991
H   H118      1.0  0.58490  0.48170  0.58050  1.0000 0.1209154065
H   H119      1.0  0.34900  0.57030  0.55290  1.0000 0.1396110036
H   H120      1.0  0.57220  0.58070  0.61450  1.0000 0.1209154065
H   H121      1.0  0.12680  0.06530  0.30840  1.0000 0.3655843658
H   H122      1.0  0.19500  0.09100  0.32100  1.0000 0.26669576
H   H123      1.0  0.71620  0.12000  0.83920  1.0000 0.280140273
H   H124      1.0  0.66390  0.09900  0.79940  1.0000 0.3655843658
H   H125      1.0  0.31560  0.20560  0.48520  1.0000 0.1286719991
H   H126      1.0  0.19620  0.29460  0.54830  1.0000 0.1515422618
H   H127      1.0  0.59160  0.21040  0.71840  1.0000 0.1209154065
H   H128      1.0  0.41360  0.28520  0.73700  1.0000 0.1396110036
C   C1        1.0  0.05243  0.34970  0.88983  1.0000 0.6486664188
C   C2        1.0  0.04174  0.41140  0.91214  1.0000 -0.0088959346
C   C3        1.0  0.10467  0.44940  0.93837  1.0000 -0.0992554153
C   C4        1.0  0.97224  0.43220  0.90934  1.0000 -0.0799141678
C   C5        1.0  0.09284  0.50610  0.95854  1.0000 -0.119680866
C   C6        1.0  0.96099  0.49120  0.92839  1.0000 -0.1288264764
C   C7        1.0  0.02244  0.53010  0.95314  1.0000 0.0576068896
C   C8        1.0  0.02699  0.59510  0.97719  1.0000 0.0101986657
C   C9        1.0  0.10124  0.61400  0.00244  1.0000 -0.119680866
C   C10       1.0  0.97350  0.63800  0.98060  1.0000 0.0294934891
C   C11       1.0  0.12320  0.66970  0.02890  1.0000 -0.088466387
C   C12       1.0  0.99265  0.69480  0.00775  1.0000 -0.119680866
C   C13       1.0  0.06767  0.71130  0.03167  1.0000 0.0101986657
C   C14       1.0  0.08937  0.77390  0.06037  1.0000 0.6585370523
C   C15       1.0  0.04598  0.24000  0.78708  1.0000 0.6322244031
C   C16       1.0  0.98206  0.23080  0.74166  1.0000 0.0101986657
C   C17       1.0  0.91547  0.20370  0.73947  1.0000 -0.1483332927
C   C18       1.0  0.98868  0.25130  0.70138  1.0000 -0.0462135992
C   C19       1.0  0.85310  0.19950  0.69880  1.0000 0.0294934891
C   C20       1.0  0.92659  0.24460  0.66139  1.0000 -0.0992554153
C   C21       1.0  0.85650  0.22140  0.65750  1.0000 -0.0462135992
C   C22       1.0  0.80032  0.22220  0.61022  1.0000 -0.0199515764
C   C23       1.0  0.72477  0.20510  0.59157  1.0000 0.0294934891
C   C24       1.0  0.82975  0.24500  0.57935  1.0000 -0.1086190053
C   C25       1.0  0.68460  0.20810  0.54460  1.0000 -0.1405272337
C   C26       1.0  0.79130  0.25040  0.53340  1.0000 -0.0715934972
C   C27       1.0  0.71660  0.23050  0.51550  1.0000 0.0175351662
C   C28       1.0  0.67397  0.23520  0.46457  1.0000 0.6486664188
C   C29       1.0  0.17326  0.13260  0.86016  1.0000 0.6585370523
C   C30       1.0  0.18673  0.07470  0.83493  1.0000 -0.0088959346
C   C31       1.0  0.12705  0.03560  0.80725  1.0000 -0.0992554153
C   C32       1.0  0.25823  0.06000  0.83793  1.0000 -0.0799141678
C   C33       1.0  0.14224  0.98280  0.78464  1.0000 -0.119680866
C   C34       1.0  0.27346  0.00520  0.81636  1.0000 -0.1288264764
C   C35       1.0  0.21461  0.96410  0.78971  1.0000 0.0576068896
C   C36       1.0  0.21470  0.90290  0.76320  1.0000 -0.0199515764
C   C37       1.0  0.14185  0.88140  0.73675  1.0000 -0.119680866
C   C38       1.0  0.27161  0.86500  0.75881  1.0000 0.0175351662
C   C39       1.0  0.12432  0.82700  0.70832  1.0000 -0.088466387
C   C40       1.0  0.25590  0.81020  0.72980  1.0000 -0.1673921274
C   C41       1.0  0.18301  0.79070  0.70481  1.0000 -0.0199515764
C   C42       1.0  0.16756  0.72800  0.67686  1.0000 0.6411404533
C   C43       1.0  0.32007  0.27440  0.81027  1.0000 0.6585370523
C   C44       1.0  0.30554  0.21270  0.78104  1.0000 -0.0019462464
C   C45       1.0  0.36438  0.17400  0.78068  1.0000 -0.088466387
C   C46       1.0  0.23258  0.19530  0.75408  1.0000 -0.119680866
C   C47       1.0  0.34734  0.11890  0.75284  1.0000 -0.119680866
C   C48       1.0  0.21834  0.13900  0.72624  1.0000 0.0294934891
C   C49       1.0  0.27469  0.09850  0.72459  1.0000 0.0011261772
C   C50       1.0  0.27588  0.03740  0.69848  1.0000 0.0525821669
C   C51       1.0  0.34825  0.01430  0.70755  1.0000 -0.1288264764
C   C52       1.0  0.21699  0.00130  0.66729  1.0000 -0.1288264764
C   C53       1.0  0.36433  0.95930  0.68763  1.0000 -0.0992554153
C   C54       1.0  0.23214  0.94410  0.64754  1.0000 -0.0799141678
C   C55       1.0  0.30522  0.92250  0.65712  1.0000 -0.0088959346
C   C56       1.0  0.31883  0.85860  0.63723  1.0000 0.6411404533
C   C57       1.0  0.39551  0.26800  0.92771  1.0000 0.6411404533
C   C58       1.0  0.42006  0.20620  0.95716  1.0000 -0.0088959346
C   C59       1.0  0.36648  0.16180  0.95978  1.0000 -0.088466387
C   C60       1.0  0.49608  0.19450  0.98338  1.0000 -0.1754984336
C   C61       1.0  0.39089  0.10890  0.98879  1.0000 -0.1288264764
C   C62       1.0  0.51687  0.14100  0.01337  1.0000 0.0175351662
C   C63       1.0  0.46648  0.09600  0.01748  1.0000 -0.0289449706
C   C64       1.0  0.47391  0.03400  0.04511  1.0000 0.0525821669
C   C65       1.0  0.40493  0.00470  0.03753  1.0000 -0.1288264764
C   C66       1.0  0.53762  0.00110  0.07462  1.0000 -0.1405272337
C   C67       1.0  0.39628  0.94690  0.05848  1.0000 -0.0992554153
C   C68       1.0  0.52966  0.94160  0.09536  1.0000 -0.0799141678
C   C69       1.0  0.46026  0.91550  0.08806  1.0000 -0.0088959346
C   C70       1.0  0.45321  0.85000  0.10931  1.0000 0.6486664188
C   C71       1.0  0.18235  0.24010  0.96305  1.0000 0.6411404533
C   C72       1.0  0.24579  0.24760  0.00919  1.0000 0.0175351662
C   C73       1.0  0.31230  0.27710  0.01150  1.0000 -0.1288264764
C   C74       1.0  0.23986  0.22490  0.04886  1.0000 -0.0596128555
C   C75       1.0  0.37327  0.28090  0.05267  1.0000 0.0101986657
C   C76       1.0  0.30129  0.23250  0.08919  1.0000 -0.1086190053
C   C77       1.0  0.37003  0.25820  0.09283  1.0000 -0.0289449706
C   C78       1.0  0.42637  0.25850  0.14077  1.0000 -0.0088959346
C   C79       1.0  0.50138  0.27700  0.15928  1.0000 -0.0088959346
C   C80       1.0  0.39602  0.23650  0.17162  1.0000 -0.1086190053
C   C81       1.0  0.54211  0.27540  0.20651  1.0000 -0.1483332927
C   C82       1.0  0.43564  0.23170  0.21804  1.0000 -0.0715934972
C   C83       1.0  0.50961  0.25280  0.23571  1.0000 0.0175351662
C   C84       1.0  0.55368  0.25120  0.28678  1.0000 0.6486664188
C   C85       1.0  0.94757  0.84970  0.61017  1.0000 0.6486664188
C   C86       1.0  0.95826  0.91140  0.58786  1.0000 -0.0088959346
C   C87       1.0  0.89533  0.94940  0.56163  1.0000 -0.0992554153
C   C88       1.0  0.02776  0.93220  0.59066  1.0000 -0.0799141678
C   C89       1.0  0.90716  0.00610  0.54146  1.0000 -0.119680866
C   C90       1.0  0.03901  0.99120  0.57161  1.0000 -0.1288264764
C   C91       1.0  0.97756  0.03010  0.54686  1.0000 0.0576068896
C   C92       1.0  0.97301  0.09510  0.52281  1.0000 0.0101986657
C   C93       1.0  0.89876  0.11400  0.49756  1.0000 -0.119680866
C   C94       1.0  0.02650  0.13800  0.51940  1.0000 0.0294934891
C   C95       1.0  0.87680  0.16970  0.47110  1.0000 -0.088466387
C   C96       1.0  0.00735  0.19480  0.49225  1.0000 -0.119680866
C   C97       1.0  0.93233  0.21130  0.46833  1.0000 0.0101986657
C   C98       1.0  0.91063  0.27390  0.43963  1.0000 0.6585370523
C   C99       1.0  0.95402  0.74000  0.71292  1.0000 0.6322244031
C   C100      1.0  0.01794  0.73080  0.75834  1.0000 0.0101986657
C   C101      1.0  0.08453  0.70370  0.76053  1.0000 -0.1483332927
C   C102      1.0  0.01132  0.75130  0.79862  1.0000 -0.0462135992
C   C103      1.0  0.14690  0.69950  0.80120  1.0000 0.0294934891
C   C104      1.0  0.07341  0.74460  0.83861  1.0000 -0.0992554153
C   C105      1.0  0.14350  0.72140  0.84250  1.0000 -0.0462135992
C   C106      1.0  0.19968  0.72220  0.88978  1.0000 -0.0199515764
C   C107      1.0  0.27523  0.70510  0.90843  1.0000 0.0294934891
C   C108      1.0  0.17025  0.74500  0.92065  1.0000 -0.1086190053
C   C109      1.0  0.31540  0.70810  0.95540  1.0000 -0.1405272337
C   C110      1.0  0.20870  0.75040  0.96660  1.0000 -0.0715934972
C   C111      1.0  0.28340  0.73050  0.98450  1.0000 0.0175351662
C   C112      1.0  0.32603  0.73520  0.03543  1.0000 0.6486664188
C   C113      1.0  0.82674  0.63260  0.63984  1.0000 0.6585370523
C   C114      1.0  0.81327  0.57470  0.66507  1.0000 -0.0088959346
C   C115      1.0  0.87295  0.53560  0.69275  1.0000 -0.0992554153
C   C116      1.0  0.74177  0.56000  0.66207  1.0000 -0.0799141678
C   C117      1.0  0.85776  0.48280  0.71536  1.0000 -0.119680866
C   C118      1.0  0.72654  0.50520  0.68364  1.0000 -0.1288264764
C   C119      1.0  0.78539  0.46410  0.71029  1.0000 0.0576068896
C   C120      1.0  0.78530  0.40290  0.73680  1.0000 -0.0199515764
C   C121      1.0  0.85815  0.38140  0.76325  1.0000 -0.119680866
C   C122      1.0  0.72839  0.36500  0.74119  1.0000 0.0175351662
C   C123      1.0  0.87568  0.32700  0.79168  1.0000 -0.088466387
C   C124      1.0  0.74410  0.31020  0.77020  1.0000 -0.1673921274
C   C125      1.0  0.81699  0.29070  0.79519  1.0000 -0.0199515764
C   C126      1.0  0.83244  0.22800  0.82314  1.0000 0.6411404533
C   C127      1.0  0.67993  0.77440  0.68973  1.0000 0.6585370523
C   C128      1.0  0.69446  0.71270  0.71896  1.0000 -0.0019462464
C   C129      1.0  0.63562  0.67400  0.71932  1.0000 -0.088466387
C   C130      1.0  0.76742  0.69530  0.74592  1.0000 -0.119680866
C   C131      1.0  0.65266  0.61890  0.74716  1.0000 -0.119680866
C   C132      1.0  0.78166  0.63900  0.77376  1.0000 0.0294934891
C   C133      1.0  0.72531  0.59850  0.77541  1.0000 0.0011261772
C   C134      1.0  0.72412  0.53740  0.80152  1.0000 0.0525821669
C   C135      1.0  0.65175  0.51430  0.79245  1.0000 -0.1288264764
C   C136      1.0  0.78301  0.50130  0.83271  1.0000 -0.1288264764
C   C137      1.0  0.63567  0.45930  0.81237  1.0000 -0.0992554153
C   C138      1.0  0.76786  0.44410  0.85246  1.0000 -0.0799141678
C   C139      1.0  0.69478  0.42250  0.84288  1.0000 -0.0088959346
C   C140      1.0  0.68117  0.35860  0.86277  1.0000 0.6411404533
C   C141      1.0  0.60449  0.76800  0.57229  1.0000 0.6411404533
C   C142      1.0  0.57994  0.70620  0.54284  1.0000 -0.0088959346
C   C143      1.0  0.63352  0.66180  0.54022  1.0000 -0.088466387
C   C144      1.0  0.50392  0.69450  0.51662  1.0000 -0.1754984336
C   C145      1.0  0.60911  0.60890  0.51121  1.0000 -0.1288264764
C   C146      1.0  0.48313  0.64100  0.48663  1.0000 0.0175351662
C   C147      1.0  0.53352  0.59600  0.48252  1.0000 -0.0289449706
C   C148      1.0  0.52609  0.53400  0.45489  1.0000 0.0525821669
C   C149      1.0  0.59507  0.50470  0.46247  1.0000 -0.1288264764
C   C150      1.0  0.46238  0.50110  0.42538  1.0000 -0.1405272337
C   C151      1.0  0.60372  0.44690  0.44152  1.0000 -0.0992554153
C   C152      1.0  0.47034  0.44160  0.40464  1.0000 -0.0799141678
C   C153      1.0  0.53974  0.41550  0.41194  1.0000 -0.0088959346
C   C154      1.0  0.54679  0.35000  0.39069  1.0000 0.6486664188
C   C155      1.0  0.81765  0.74010  0.53695  1.0000 0.6411404533
C   C156      1.0  0.75421  0.74760  0.49081  1.0000 0.0175351662
C   C157      1.0  0.68770  0.77710  0.48850  1.0000 -0.1288264764
C   C158      1.0  0.76014  0.72490  0.45114  1.0000 -0.0596128555
C   C159      1.0  0.62673  0.78090  0.44733  1.0000 0.0101986657
C   C160      1.0  0.69871  0.73250  0.41081  1.0000 -0.1086190053
C   C161      1.0  0.62997  0.75820  0.40717  1.0000 -0.0289449706
C   C162      1.0  0.57363  0.75850  0.35923  1.0000 -0.0088959346
C   C163      1.0  0.49862  0.77700  0.34072  1.0000 -0.0088959346
C   C164      1.0  0.60398  0.73650  0.32838  1.0000 -0.1086190053
C   C165      1.0  0.45789  0.77540  0.29349  1.0000 -0.1483332927
C   C166      1.0  0.56436  0.73170  0.28196  1.0000 -0.0715934972
C   C167      1.0  0.49039  0.75280  0.26429  1.0000 0.0175351662
C   C168      1.0  0.44632  0.75120  0.21322  1.0000 0.6486664188
C   C169      1.0  0.94757  0.65030  0.11017  1.0000 0.6486664188
C   C170      1.0  0.95826  0.58860  0.08786  1.0000 -0.0088959346
C   C171      1.0  0.89533  0.55060  0.06163  1.0000 -0.0992554153
C   C172      1.0  0.02776  0.56780  0.09066  1.0000 -0.0799141678
C   C173      1.0  0.90716  0.49390  0.04146  1.0000 -0.119680866
C   C174      1.0  0.03901  0.50880  0.07161  1.0000 -0.1288264764
C   C175      1.0  0.97756  0.46990  0.04686  1.0000 0.0576068896
C   C176      1.0  0.97301  0.40490  0.02281  1.0000 0.0101986657
C   C177      1.0  0.89876  0.38600  0.99756  1.0000 -0.119680866
C   C178      1.0  0.02650  0.36200  0.01940  1.0000 0.0294934891
C   C179      1.0  0.87680  0.33030  0.97110  1.0000 -0.088466387
C   C180      1.0  0.00735  0.30520  0.99225  1.0000 -0.119680866
C   C181      1.0  0.93233  0.28870  0.96833  1.0000 0.0101986657
C   C182      1.0  0.91063  0.22610  0.93963  1.0000 0.6585370523
C   C183      1.0  0.95402  0.76000  0.21292  1.0000 0.6322244031
C   C184      1.0  0.01794  0.76920  0.25834  1.0000 0.0101986657
C   C185      1.0  0.08453  0.79630  0.26053  1.0000 -0.1483332927
C   C186      1.0  0.01132  0.74870  0.29862  1.0000 -0.0462135992
C   C187      1.0  0.14690  0.80050  0.30120  1.0000 0.0294934891
C   C188      1.0  0.07341  0.75540  0.33861  1.0000 -0.0992554153
C   C189      1.0  0.14350  0.77860  0.34250  1.0000 -0.0462135992
C   C190      1.0  0.19968  0.77780  0.38978  1.0000 -0.0199515764
C   C191      1.0  0.27523  0.79490  0.40843  1.0000 0.0294934891
C   C192      1.0  0.17025  0.75500  0.42065  1.0000 -0.1086190053
C   C193      1.0  0.31540  0.79190  0.45540  1.0000 -0.1405272337
C   C194      1.0  0.20870  0.74960  0.46660  1.0000 -0.0715934972
C   C195      1.0  0.28340  0.76950  0.48450  1.0000 0.0175351662
C   C196      1.0  0.32603  0.76480  0.53543  1.0000 0.6486664188
C   C197      1.0  0.82674  0.86740  0.13984  1.0000 0.6585370523
C   C198      1.0  0.81327  0.92530  0.16507  1.0000 -0.0088959346
C   C199      1.0  0.87295  0.96440  0.19275  1.0000 -0.0992554153
C   C200      1.0  0.74177  0.94000  0.16207  1.0000 -0.0799141678
C   C201      1.0  0.85776  0.01720  0.21536  1.0000 -0.119680866
C   C202      1.0  0.72654  0.99480  0.18364  1.0000 -0.1288264764
C   C203      1.0  0.78539  0.03590  0.21029  1.0000 0.0576068896
C   C204      1.0  0.78530  0.09710  0.23680  1.0000 -0.0199515764
C   C205      1.0  0.85815  0.11860  0.26325  1.0000 -0.119680866
C   C206      1.0  0.72839  0.13500  0.24119  1.0000 0.0175351662
C   C207      1.0  0.87568  0.17300  0.29168  1.0000 -0.088466387
C   C208      1.0  0.74410  0.18980  0.27020  1.0000 -0.1673921274
C   C209      1.0  0.81699  0.20930  0.29519  1.0000 -0.0199515764
C   C210      1.0  0.83244  0.27200  0.32314  1.0000 0.6411404533
C   C211      1.0  0.67993  0.72560  0.18973  1.0000 0.6585370523
C   C212      1.0  0.69446  0.78730  0.21896  1.0000 -0.0019462464
C   C213      1.0  0.63562  0.82600  0.21932  1.0000 -0.088466387
C   C214      1.0  0.76742  0.80470  0.24592  1.0000 -0.119680866
C   C215      1.0  0.65266  0.88110  0.24716  1.0000 -0.119680866
C   C216      1.0  0.78166  0.86100  0.27376  1.0000 0.0294934891
C   C217      1.0  0.72531  0.90150  0.27541  1.0000 0.0011261772
C   C218      1.0  0.72412  0.96260  0.30152  1.0000 0.0525821669
C   C219      1.0  0.65175  0.98570  0.29245  1.0000 -0.1288264764
C   C220      1.0  0.78301  0.99870  0.33271  1.0000 -0.1288264764
C   C221      1.0  0.63567  0.04070  0.31237  1.0000 -0.0992554153
C   C222      1.0  0.76786  0.05590  0.35246  1.0000 -0.0799141678
C   C223      1.0  0.69478  0.07750  0.34288  1.0000 -0.0088959346
C   C224      1.0  0.68117  0.14140  0.36277  1.0000 0.6411404533
C   C225      1.0  0.60449  0.73200  0.07229  1.0000 0.6411404533
C   C226      1.0  0.57994  0.79380  0.04284  1.0000 -0.0088959346
C   C227      1.0  0.63352  0.83820  0.04022  1.0000 -0.088466387
C   C228      1.0  0.50392  0.80550  0.01662  1.0000 -0.1754984336
C   C229      1.0  0.60911  0.89110  0.01121  1.0000 -0.1288264764
C   C230      1.0  0.48313  0.85900  0.98663  1.0000 0.0175351662
C   C231      1.0  0.53352  0.90400  0.98252  1.0000 -0.0289449706
C   C232      1.0  0.52609  0.96600  0.95489  1.0000 0.0525821669
C   C233      1.0  0.59507  0.99530  0.96247  1.0000 -0.1288264764
C   C234      1.0  0.46238  0.99890  0.92538  1.0000 -0.1405272337
C   C235      1.0  0.60372  0.05310  0.94152  1.0000 -0.0992554153
C   C236      1.0  0.47034  0.05840  0.90464  1.0000 -0.0799141678
C   C237      1.0  0.53974  0.08450  0.91194  1.0000 -0.0088959346
C   C238      1.0  0.54679  0.15000  0.89069  1.0000 0.6486664188
C   C239      1.0  0.81765  0.75990  0.03695  1.0000 0.6411404533
C   C240      1.0  0.75421  0.75240  0.99081  1.0000 0.0175351662
C   C241      1.0  0.68770  0.72290  0.98850  1.0000 -0.1288264764
C   C242      1.0  0.76014  0.77510  0.95114  1.0000 -0.0596128555
C   C243      1.0  0.62673  0.71910  0.94733  1.0000 0.0101986657
C   C244      1.0  0.69871  0.76750  0.91081  1.0000 -0.1086190053
C   C245      1.0  0.62997  0.74180  0.90717  1.0000 -0.0289449706
C   C246      1.0  0.57363  0.74150  0.85923  1.0000 -0.0088959346
C   C247      1.0  0.49862  0.72300  0.84072  1.0000 -0.0088959346
C   C248      1.0  0.60398  0.76350  0.82838  1.0000 -0.1086190053
C   C249      1.0  0.45789  0.72460  0.79349  1.0000 -0.1483332927
C   C250      1.0  0.56436  0.76830  0.78196  1.0000 -0.0715934972
C   C251      1.0  0.49039  0.74720  0.76429  1.0000 0.0175351662
C   C252      1.0  0.44632  0.74880  0.71322  1.0000 0.6486664188
C   C253      1.0  0.05243  0.15030  0.38983  1.0000 0.6486664188
C   C254      1.0  0.04174  0.08860  0.41214  1.0000 -0.0088959346
C   C255      1.0  0.10467  0.05060  0.43837  1.0000 -0.0992554153
C   C256      1.0  0.97224  0.06780  0.40934  1.0000 -0.0799141678
C   C257      1.0  0.09284  0.99390  0.45854  1.0000 -0.119680866
C   C258      1.0  0.96099  0.00880  0.42839  1.0000 -0.1288264764
C   C259      1.0  0.02244  0.96990  0.45314  1.0000 0.0576068896
C   C260      1.0  0.02699  0.90490  0.47719  1.0000 0.0101986657
C   C261      1.0  0.10124  0.88600  0.50244  1.0000 -0.119680866
C   C262      1.0  0.97350  0.86200  0.48060  1.0000 0.0294934891
C   C263      1.0  0.12320  0.83030  0.52890  1.0000 -0.088466387
C   C264      1.0  0.99265  0.80520  0.50775  1.0000 -0.119680866
C   C265      1.0  0.06767  0.78870  0.53167  1.0000 0.0101986657
C   C266      1.0  0.08937  0.72610  0.56037  1.0000 0.6585370523
C   C267      1.0  0.04598  0.26000  0.28708  1.0000 0.6322244031
C   C268      1.0  0.98206  0.26920  0.24166  1.0000 0.0101986657
C   C269      1.0  0.91547  0.29630  0.23947  1.0000 -0.1483332927
C   C270      1.0  0.98868  0.24870  0.20138  1.0000 -0.0462135992
C   C271      1.0  0.85310  0.30050  0.19880  1.0000 0.0294934891
C   C272      1.0  0.92659  0.25540  0.16139  1.0000 -0.0992554153
C   C273      1.0  0.85650  0.27860  0.15750  1.0000 -0.0462135992
C   C274      1.0  0.80032  0.27780  0.11022  1.0000 -0.0199515764
C   C275      1.0  0.72477  0.29490  0.09157  1.0000 0.0294934891
C   C276      1.0  0.82975  0.25500  0.07935  1.0000 -0.1086190053
C   C277      1.0  0.68460  0.29190  0.04460  1.0000 -0.1405272337
C   C278      1.0  0.79130  0.24960  0.03340  1.0000 -0.0715934972
C   C279      1.0  0.71660  0.26950  0.01550  1.0000 0.0175351662
C   C280      1.0  0.67397  0.26480  0.96457  1.0000 0.6486664188
C   C281      1.0  0.17326  0.36740  0.36016  1.0000 0.6585370523
C   C282      1.0  0.18673  0.42530  0.33493  1.0000 -0.0088959346
C   C283      1.0  0.12705  0.46440  0.30725  1.0000 -0.0992554153
C   C284      1.0  0.25823  0.44000  0.33793  1.0000 -0.0799141678
C   C285      1.0  0.14224  0.51720  0.28464  1.0000 -0.119680866
C   C286      1.0  0.27346  0.49480  0.31636  1.0000 -0.1288264764
C   C287      1.0  0.21461  0.53590  0.28971  1.0000 0.0576068896
C   C288      1.0  0.21470  0.59710  0.26320  1.0000 -0.0199515764
C   C289      1.0  0.14185  0.61860  0.23675  1.0000 -0.119680866
C   C290      1.0  0.27161  0.63500  0.25881  1.0000 0.0175351662
C   C291      1.0  0.12432  0.67300  0.20832  1.0000 -0.088466387
C   C292      1.0  0.25590  0.68980  0.22980  1.0000 -0.1673921274
C   C293      1.0  0.18301  0.70930  0.20481  1.0000 -0.0199515764
C   C294      1.0  0.16756  0.77200  0.17686  1.0000 0.6411404533
C   C295      1.0  0.32007  0.22560  0.31027  1.0000 0.6585370523
C   C296      1.0  0.30554  0.28730  0.28104  1.0000 -0.0019462464
C   C297      1.0  0.36438  0.32600  0.28068  1.0000 -0.088466387
C   C298      1.0  0.23258  0.30470  0.25408  1.0000 -0.119680866
C   C299      1.0  0.34734  0.38110  0.25284  1.0000 -0.119680866
C   C300      1.0  0.21834  0.36100  0.22624  1.0000 0.0294934891
C   C301      1.0  0.27469  0.40150  0.22459  1.0000 0.0011261772
C   C302      1.0  0.27588  0.46260  0.19848  1.0000 0.0525821669
C   C303      1.0  0.34825  0.48570  0.20755  1.0000 -0.1288264764
C   C304      1.0  0.21699  0.49870  0.16729  1.0000 -0.1288264764
C   C305      1.0  0.36433  0.54070  0.18763  1.0000 -0.0992554153
C   C306      1.0  0.23214  0.55590  0.14754  1.0000 -0.0799141678
C   C307      1.0  0.30522  0.57750  0.15712  1.0000 -0.0088959346
C   C308      1.0  0.31883  0.64140  0.13723  1.0000 0.6411404533
C   C309      1.0  0.39551  0.23200  0.42771  1.0000 0.6411404533
C   C310      1.0  0.42006  0.29380  0.45716  1.0000 -0.0088959346
C   C311      1.0  0.36648  0.33820  0.45978  1.0000 -0.088466387
C   C312      1.0  0.49608  0.30550  0.48338  1.0000 -0.1754984336
C   C313      1.0  0.39089  0.39110  0.48879  1.0000 -0.1288264764
C   C314      1.0  0.51687  0.35900  0.51337  1.0000 0.0175351662
C   C315      1.0  0.46648  0.40400  0.51748  1.0000 -0.0289449706
C   C316      1.0  0.47391  0.46600  0.54511  1.0000 0.0525821669
C   C317      1.0  0.40493  0.49530  0.53753  1.0000 -0.1288264764
C   C318      1.0  0.53762  0.49890  0.57462  1.0000 -0.1405272337
C   C319      1.0  0.39628  0.55310  0.55848  1.0000 -0.0992554153
C   C320      1.0  0.52966  0.55840  0.59536  1.0000 -0.0799141678
C   C321      1.0  0.46026  0.58450  0.58806  1.0000 -0.0088959346
C   C322      1.0  0.45321  0.65000  0.60931  1.0000 0.6486664188
C   C323      1.0  0.18235  0.25990  0.46305  1.0000 0.6411404533
C   C324      1.0  0.24579  0.25240  0.50919  1.0000 0.0175351662
C   C325      1.0  0.31230  0.22290  0.51150  1.0000 -0.1288264764
C   C326      1.0  0.23986  0.27510  0.54886  1.0000 -0.0596128555
C   C327      1.0  0.37327  0.21910  0.55267  1.0000 0.0101986657
C   C328      1.0  0.30129  0.26750  0.58919  1.0000 -0.1086190053
C   C329      1.0  0.37003  0.24180  0.59283  1.0000 -0.0289449706
C   C330      1.0  0.42637  0.24150  0.64077  1.0000 -0.0088959346
C   C331      1.0  0.50138  0.22300  0.65928  1.0000 -0.0088959346
C   C332      1.0  0.39602  0.26350  0.67162  1.0000 -0.1086190053
C   C333      1.0  0.54211  0.22460  0.70651  1.0000 -0.1483332927
C   C334      1.0  0.43564  0.26830  0.71804  1.0000 -0.0715934972
C   C335      1.0  0.50961  0.24720  0.73571  1.0000 0.0175351662
C   C336      1.0  0.55368  0.24880  0.78678  1.0000 0.6486664188
S   S1        1.0  0.16469  0.55577  0.99640  1.0000 0.9858776552
S   S2        1.0  0.92609  0.26108  0.60675  1.0000 0.9682314021
S   S3        1.0  0.07428  0.93150  0.74571  1.0000 0.9858776552
S   S4        1.0  0.41540  0.06275  0.74970  1.0000 0.9829422755
S   S5        1.0  0.33074  0.04859  0.99605  1.0000 0.9829422755
S   S6        1.0  0.30087  0.21562  0.14360  1.0000 0.9570695532
S   S7        1.0  0.83531  0.05577  0.50360  1.0000 0.9858776552
S   S8        1.0  0.07391  0.76108  0.89325  1.0000 0.9682314021
S   S9        1.0  0.92572  0.43150  0.75429  1.0000 0.9858776552
S   S10       1.0  0.58460  0.56275  0.75030  1.0000 0.9829422755
S   S11       1.0  0.66926  0.54859  0.50395  1.0000 0.9829422755
S   S12       1.0  0.69913  0.71562  0.35640  1.0000 0.9570695532
S   S13       1.0  0.83531  0.44423  0.00360  1.0000 0.9858776552
S   S14       1.0  0.07391  0.73892  0.39325  1.0000 0.9682314021
S   S15       1.0  0.92572  0.06850  0.25429  1.0000 0.9858776552
S   S16       1.0  0.58460  0.93725  0.25030  1.0000 0.9829422755
S   S17       1.0  0.66926  0.95141  0.00395  1.0000 0.9829422755
S   S18       1.0  0.69913  0.78438  0.85640  1.0000 0.9570695532
S   S19       1.0  0.16469  0.94423  0.49640  1.0000 0.9858776552
S   S20       1.0  0.92609  0.23892  0.10675  1.0000 0.9682314021
S   S21       1.0  0.07428  0.56850  0.24571  1.0000 0.9858776552
S   S22       1.0  0.41540  0.43725  0.24970  1.0000 0.9829422755
S   S23       1.0  0.33074  0.45141  0.49605  1.0000 0.9829422755
S   S24       1.0  0.30087  0.28438  0.64360  1.0000 0.9570695532
N   N1        1.0  0.77840  0.19080  0.69970  1.0000 0.3473911506
N   N2        1.0  0.89311  0.62890  0.95381  1.0000 0.5107569319
N   N3        1.0  0.35147  0.87670  0.78697  1.0000 0.5038697344
N   N4        1.0  0.13962  0.12600  0.69922  1.0000 0.5107569319
N   N5        1.0  0.59807  0.13670  0.04177  1.0000 0.4898971093
N   N6        1.0  0.44060  0.31090  0.05110  1.0000 0.280140273
N   N7        1.0  0.68310  0.18980  0.62070  1.0000 0.2491497171
N   N8        1.0  0.54430  0.21470  0.63140  1.0000 0.3090391827
N   N9        1.0  0.22160  0.69080  0.80030  1.0000 0.3473911506
N   N10       1.0  0.10689  0.12890  0.54619  1.0000 0.5107569319
N   N11       1.0  0.64853  0.37670  0.71303  1.0000 0.5038697344
N   N12       1.0  0.86038  0.62600  0.80078  1.0000 0.5107569319
N   N13       1.0  0.40193  0.63670  0.45823  1.0000 0.4898971093
N   N14       1.0  0.55940  0.81090  0.44890  1.0000 0.280140273
N   N15       1.0  0.31690  0.68980  0.87930  1.0000 0.2491497171
N   N16       1.0  0.45570  0.71470  0.86860  1.0000 0.3090391827
N   N17       1.0  0.22160  0.80920  0.30030  1.0000 0.3473911506
N   N18       1.0  0.10689  0.37110  0.04619  1.0000 0.5107569319
N   N19       1.0  0.64853  0.12330  0.21303  1.0000 0.5038697344
N   N20       1.0  0.86038  0.87400  0.30078  1.0000 0.5107569319
N   N21       1.0  0.40193  0.86330  0.95823  1.0000 0.4898971093
N   N22       1.0  0.55940  0.68910  0.94890  1.0000 0.280140273
N   N23       1.0  0.31690  0.81020  0.37930  1.0000 0.2491497171
N   N24       1.0  0.45570  0.78530  0.36860  1.0000 0.3090391827
N   N25       1.0  0.77840  0.30920  0.19970  1.0000 0.3473911506
N   N26       1.0  0.89311  0.87110  0.45381  1.0000 0.5107569319
N   N27       1.0  0.35147  0.62330  0.28697  1.0000 0.5038697344
N   N28       1.0  0.13962  0.37400  0.19922  1.0000 0.5107569319
N   N29       1.0  0.59807  0.36330  0.54177  1.0000 0.4898971093
N   N30       1.0  0.44060  0.18910  0.55110  1.0000 0.292148046
N   N31       1.0  0.68310  0.31020  0.12070  1.0000 0.2491497171
N   N32       1.0  0.54430  0.28530  0.13140  1.0000 0.3090391827
O   O1        1.0  0.01720  0.29879  0.89361  1.0000 -0.6723805196
O   O2        1.0  0.09436  0.35342  0.86857  1.0000 -0.6723805196
O   O3        1.0  0.03791  0.80924  0.06263  1.0000 -0.6614596399
O   O4        1.0  0.15781  0.78581  0.07864  1.0000 -0.6422386865
O   O5        1.0  0.03662  0.22093  0.82169  1.0000 -0.7028348001
O   O6        1.0  0.10350  0.26815  0.78751  1.0000 -0.6006120669
O   O7        1.0  0.60702  0.21873  0.44917  1.0000 -0.6723805196
O   O8        1.0  0.71028  0.25573  0.44205  1.0000 -0.6614596399
O   O9        1.0  0.20930  0.18445  0.85994  1.0000 -0.6723805196
O   O10       1.0  0.12783  0.12544  0.87890  1.0000 -0.6759258586
O   O11       1.0  0.22257  0.69706  0.67530  1.0000 -0.6422386865
O   O12       1.0  0.10119  0.70875  0.65964  1.0000 -0.6614596399
O   O13       1.0  0.26381  0.30293  0.81310  1.0000 -0.6723805196
O   O14       1.0  0.38560  0.29423  0.82841  1.0000 -0.6422386865
O   O15       1.0  0.26975  0.81451  0.63035  1.0000 -0.6483939744
O   O16       1.0  0.37622  0.85385  0.62945  1.0000 -0.6909215229
O   O17       1.0  0.32694  0.27887  0.90958  1.0000 -0.6483939744
O   O18       1.0  0.44620  0.30471  0.92503  1.0000 -0.6723805196
O   O19       1.0  0.39569  0.84234  0.11792  1.0000 -0.6909215229
O   O20       1.0  0.50476  0.80794  0.11698  1.0000 -0.6614596399
O   O21       1.0  0.14914  0.39910  0.80654  1.0000 -0.6909215229
O   O22       1.0  0.67658  0.40370  0.32808  1.0000 -0.715856232
O   O23       1.0  0.21034  0.58470  0.97474  1.0000 -0.5220934677
O   O24       1.0  0.20221  0.52150  0.03911  1.0000 -0.5107410061
O   O25       1.0  0.87334  0.61270  0.91394  1.0000 -0.2847417968
O   O26       1.0  0.85039  0.64020  0.97269  1.0000 -0.3051774281
O   O27       1.0  0.96802  0.20960  0.59502  1.0000 -0.5013644077
O   O28       1.0  0.94452  0.32820  0.60082  1.0000 -0.4798735883
O   O29       1.0  0.03472  0.89480  0.76822  1.0000 -0.5107410061
O   O30       1.0  0.02889  0.96550  0.70499  1.0000 -0.5013644077
O   O31       1.0  0.39572  0.87010  0.76852  1.0000 -0.2999797193
O   O32       1.0  0.36869  0.88980  0.82679  1.0000 -0.3197677709
O   O33       1.0  0.46545  0.09400  0.73255  1.0000 -0.5220934677
O   O34       1.0  0.44745  0.02700  0.79225  1.0000 -0.5107410061
O   O35       1.0  0.11680  0.07130  0.69890  1.0000 -0.2847417968
O   O36       1.0  0.10190  0.17210  0.67550  1.0000 -0.2999797193
O   O37       1.0  0.29667  0.01010  0.95507  1.0000 -0.5107410061
O   O38       1.0  0.28180  0.07810  0.01450  1.0000 -0.5013644077
O   O39       1.0  0.64098  0.14350  0.02228  1.0000 -0.288732149
O   O40       1.0  0.61698  0.12850  0.08228  1.0000 -0.3197677709
O   O41       1.0  0.72680  0.23870  0.68030  1.0000 -0.0418722315
O   O42       1.0  0.77050  0.16280  0.72920  1.0000 -0.1575803722
O   O43       1.0  0.19076  0.26554  0.92966  1.0000 -0.7028348001
O   O44       1.0  0.12518  0.20872  0.96117  1.0000 -0.6422386865
O   O45       1.0  0.62020  0.26957  0.30166  1.0000 -0.6483939744
O   O46       1.0  0.51734  0.23260  0.30988  1.0000 -0.6909215229
O   O47       1.0  0.28661  0.14720  0.14901  1.0000 -0.4860703724
O   O48       1.0  0.25506  0.26400  0.15416  1.0000 -0.5107410061
O   O49       1.0  0.44030  0.35250  0.02470  1.0000 -0.119680866
O   O50       1.0  0.49870  0.27180  0.06740  1.0000 0.0576068896
O   O51       1.0  0.68860  0.22550  0.65290  1.0000 0.1396110036
O   O52       1.0  0.63960  0.14180  0.60850  1.0000 -0.119680866
O   O53       1.0  0.58690  0.16660  0.64110  1.0000 -0.1288264764
O   O54       1.0  0.53600  0.25270  0.59910  1.0000 0.0101986657
O   O55       1.0  0.98280  0.79879  0.60639  1.0000 -0.6723805196
O   O56       1.0  0.90564  0.85342  0.63143  1.0000 -0.6723805196
O   O57       1.0  0.96209  0.30924  0.43737  1.0000 -0.6614596399
O   O58       1.0  0.84219  0.28581  0.42136  1.0000 -0.6483939744
O   O59       1.0  0.96338  0.72093  0.67831  1.0000 -0.7028348001
O   O60       1.0  0.89650  0.76815  0.71249  1.0000 -0.6006120669
O   O61       1.0  0.39298  0.71873  0.05083  1.0000 -0.6723805196
O   O62       1.0  0.28972  0.75573  0.05795  1.0000 -0.6614596399
O   O63       1.0  0.79070  0.68445  0.64006  1.0000 -0.6723805196
O   O64       1.0  0.87217  0.62544  0.62110  1.0000 -0.6759258586
O   O65       1.0  0.77743  0.19706  0.82470  1.0000 -0.6422386865
O   O66       1.0  0.89881  0.20875  0.84036  1.0000 -0.6614596399
O   O67       1.0  0.73619  0.80293  0.68690  1.0000 -0.6723805196
O   O68       1.0  0.61440  0.79423  0.67159  1.0000 -0.6422386865
O   O69       1.0  0.73025  0.31451  0.86965  1.0000 -0.6483939744
O   O70       1.0  0.62378  0.35385  0.87055  1.0000 -0.6909215229
O   O71       1.0  0.67306  0.77887  0.59042  1.0000 -0.6483939744
O   O72       1.0  0.55380  0.80471  0.57497  1.0000 -0.6723805196
O   O73       1.0  0.60431  0.34234  0.38208  1.0000 -0.6909215229
O   O74       1.0  0.49524  0.30794  0.38302  1.0000 -0.6614596399
O   O75       1.0  0.85086  0.89910  0.69346  1.0000 -0.6909215229
O   O76       1.0  0.32342  0.90370  0.17192  1.0000 -0.715856232
O   O77       1.0  0.78966  0.08470  0.52526  1.0000 -0.5220934677
O   O78       1.0  0.79779  0.02150  0.46089  1.0000 -0.5107410061
O   O79       1.0  0.12666  0.11270  0.58606  1.0000 -0.2847417968
O   O80       1.0  0.14961  0.14020  0.52731  1.0000 -0.2999797193
O   O81       1.0  0.03198  0.70960  0.90498  1.0000 -0.5013644077
O   O82       1.0  0.05548  0.82820  0.89918  1.0000 -0.4798735883
O   O83       1.0  0.96528  0.39480  0.73178  1.0000 -0.5107410061
O   O84       1.0  0.97111  0.46550  0.79501  1.0000 -0.5013644077
O   O85       1.0  0.60428  0.37010  0.73148  1.0000 -0.2999797193
O   O86       1.0  0.63131  0.38980  0.67321  1.0000 -0.3197677709
O   O87       1.0  0.53455  0.59400  0.76745  1.0000 -0.5220934677
O   O88       1.0  0.55255  0.52700  0.70775  1.0000 -0.5107410061
O   O89       1.0  0.88320  0.57130  0.80110  1.0000 -0.288732149
O   O90       1.0  0.89810  0.67210  0.82450  1.0000 -0.2999797193
O   O91       1.0  0.70333  0.51010  0.54493  1.0000 -0.5107410061
O   O92       1.0  0.71820  0.57810  0.48550  1.0000 -0.5013644077
O   O93       1.0  0.35902  0.64350  0.47772  1.0000 -0.2999797193
O   O94       1.0  0.38302  0.62850  0.41772  1.0000 -0.3250749486
O   O95       1.0  0.27320  0.73870  0.81970  1.0000 -0.0418722315
O   O96       1.0  0.22950  0.66280  0.77080  1.0000 -0.1575803722
O   O97       1.0  0.80924  0.76554  0.57034  1.0000 -0.7028348001
O   O98       1.0  0.87482  0.70872  0.53883  1.0000 -0.6422386865
O   O99       1.0  0.37980  0.76957  0.19834  1.0000 -0.6483939744
O   O100      1.0  0.48266  0.73260  0.19012  1.0000 -0.6909215229
O   O101      1.0  0.71339  0.64720  0.35099  1.0000 -0.4798735883
O   O102      1.0  0.74494  0.76400  0.34584  1.0000 -0.5107410061
O   O103      1.0  0.55970  0.85250  0.47530  1.0000 -0.119680866
O   O104      1.0  0.50130  0.77180  0.43260  1.0000 0.0576068896
O   O105      1.0  0.31140  0.72550  0.84710  1.0000 0.1396110036
O   O106      1.0  0.36040  0.64180  0.89150  1.0000 -0.119680866
O   O107      1.0  0.41310  0.66667  0.85890  1.0000 -0.1288264764
O   O108      1.0  0.46400  0.75270  0.90090  1.0000 0.0101986657
O   O109      1.0  0.98280  0.70121  0.10639  1.0000 -0.6723805196
O   O110      1.0  0.90564  0.64658  0.13143  1.0000 -0.6723805196
O   O111      1.0  0.96209  0.19076  0.93737  1.0000 -0.6614596399
O   O112      1.0  0.84219  0.21419  0.92136  1.0000 -0.6483939744
O   O113      1.0  0.96338  0.77907  0.17831  1.0000 -0.7028348001
O   O114      1.0  0.89650  0.73185  0.21249  1.0000 -0.6006120669
O   O115      1.0  0.39298  0.78127  0.55083  1.0000 -0.6723805196
O   O116      1.0  0.28972  0.74427  0.55795  1.0000 -0.6614596399
O   O117      1.0  0.79070  0.81555  0.14006  1.0000 -0.6723805196
O   O118      1.0  0.87217  0.87456  0.12110  1.0000 -0.6759258586
O   O119      1.0  0.77743  0.30294  0.32470  1.0000 -0.6422386865
O   O120      1.0  0.89881  0.29125  0.34036  1.0000 -0.6614596399
O   O121      1.0  0.73619  0.69707  0.18690  1.0000 -0.6723805196
O   O122      1.0  0.61440  0.70577  0.17159  1.0000 -0.6422386865
O   O123      1.0  0.73025  0.18549  0.36965  1.0000 -0.6483939744
O   O124      1.0  0.62378  0.14615  0.37055  1.0000 -0.6909215229
O   O125      1.0  0.67306  0.72113  0.09042  1.0000 -0.6483939744
O   O126      1.0  0.55380  0.69529  0.07497  1.0000 -0.6723805196
O   O127      1.0  0.60431  0.15766  0.88208  1.0000 -0.6909215229
O   O128      1.0  0.49524  0.19206  0.88302  1.0000 -0.6614596399
O   O129      1.0  0.85086  0.60090  0.19346  1.0000 -0.6909215229
O   O130      1.0  0.32342  0.59630  0.67192  1.0000 -0.715856232
O   O131      1.0  0.78966  0.41530  0.02526  1.0000 -0.5220934677
O   O132      1.0  0.79779  0.47850  0.96089  1.0000 -0.5107410061
O   O133      1.0  0.12666  0.38730  0.08606  1.0000 -0.2847417968
O   O134      1.0  0.14961  0.35980  0.02731  1.0000 -0.2999797193
O   O135      1.0  0.03198  0.79040  0.40498  1.0000 -0.5013644077
O   O136      1.0  0.05548  0.67180  0.39918  1.0000 -0.4798735883
O   O137      1.0  0.96528  0.10520  0.23178  1.0000 -0.5107410061
O   O138      1.0  0.97111  0.03450  0.29501  1.0000 -0.5013644077
O   O139      1.0  0.60428  0.12990  0.23148  1.0000 -0.2999797193
O   O140      1.0  0.63131  0.11020  0.17321  1.0000 -0.3197677709
O   O141      1.0  0.53455  0.90600  0.26745  1.0000 -0.5220934677
O   O142      1.0  0.55255  0.97300  0.20775  1.0000 -0.5107410061
O   O143      1.0  0.88320  0.92870  0.30110  1.0000 -0.288732149
O   O144      1.0  0.89810  0.82790  0.32450  1.0000 -0.2999797193
O   O145      1.0  0.70333  0.98990  0.04493  1.0000 -0.5107410061
O   O146      1.0  0.71820  0.92190  0.98550  1.0000 -0.5013644077
O   O147      1.0  0.35902  0.85650  0.97772  1.0000 -0.2999797193
O   O148      1.0  0.38302  0.87150  0.91772  1.0000 -0.3250749486
O   O149      1.0  0.27320  0.76130  0.31970  1.0000 -0.0418722315
O   O150      1.0  0.22950  0.83720  0.27080  1.0000 -0.1575803722
O   O151      1.0  0.80924  0.73446  0.07034  1.0000 -0.7028348001
O   O152      1.0  0.87482  0.79128  0.03883  1.0000 -0.6422386865
O   O153      1.0  0.37980  0.73043  0.69834  1.0000 -0.6483939744
O   O154      1.0  0.48266  0.76740  0.69012  1.0000 -0.6909215229
O   O155      1.0  0.71339  0.85280  0.85099  1.0000 -0.4798735883
O   O156      1.0  0.74494  0.73600  0.84584  1.0000 -0.5107410061
O   O157      1.0  0.55970  0.64750  0.97530  1.0000 -0.119680866
O   O158      1.0  0.50130  0.72820  0.93260  1.0000 0.0576068896
O   O159      1.0  0.31140  0.77450  0.34710  1.0000 0.1396110036
O   O160      1.0  0.36040  0.85820  0.39150  1.0000 -0.119680866
O   O161      1.0  0.41310  0.83340  0.35890  1.0000 -0.1288264764
O   O162      1.0  0.46400  0.74730  0.40090  1.0000 0.0101986657
O   O163      1.0  0.01720  0.20121  0.39361  1.0000 -0.6723805196
O   O164      1.0  0.09436  0.14658  0.36857  1.0000 -0.6723805196
O   O165      1.0  0.03791  0.69076  0.56263  1.0000 -0.6614596399
O   O166      1.0  0.15781  0.71419  0.57864  1.0000 -0.6483939744
O   O167      1.0  0.03662  0.27907  0.32169  1.0000 -0.7028348001
O   O168      1.0  0.10350  0.23185  0.28751  1.0000 -0.6006120669
O   O169      1.0  0.60702  0.28127  0.94917  1.0000 -0.6723805196
O   O170      1.0  0.71028  0.24427  0.94205  1.0000 -0.6614596399
O   O171      1.0  0.20930  0.31555  0.35994  1.0000 -0.6723805196
O   O172      1.0  0.12783  0.37456  0.37890  1.0000 -0.6759258586
O   O173      1.0  0.22257  0.80294  0.17530  1.0000 -0.6422386865
O   O174      1.0  0.10119  0.79125  0.15964  1.0000 -0.6614596399
O   O175      1.0  0.26381  0.19707  0.31310  1.0000 -0.6723805196
O   O176      1.0  0.38560  0.20577  0.32841  1.0000 -0.6422386865
O   O177      1.0  0.26975  0.68549  0.13035  1.0000 -0.6483939744
O   O178      1.0  0.37622  0.64615  0.12945  1.0000 -0.6909215229
O   O179      1.0  0.32694  0.22113  0.40958  1.0000 -0.6483939744
O   O180      1.0  0.44620  0.19529  0.42503  1.0000 -0.6723805196
O   O181      1.0  0.39569  0.65766  0.61792  1.0000 -0.6909215229
O   O182      1.0  0.50476  0.69206  0.61698  1.0000 -0.6614596399
O   O183      1.0  0.14914  0.10090  0.30654  1.0000 -0.6909215229
O   O184      1.0  0.67658  0.09630  0.82808  1.0000 -0.715856232
O   O185      1.0  0.21034  0.91530  0.47474  1.0000 -0.5220934677
O   O186      1.0  0.20221  0.97850  0.53911  1.0000 -0.5107410061
O   O187      1.0  0.87334  0.88730  0.41394  1.0000 -0.288732149
O   O188      1.0  0.85039  0.85980  0.47269  1.0000 -0.3051774281
O   O189      1.0  0.96802  0.29040  0.09502  1.0000 -0.5013644077
O   O190      1.0  0.94452  0.17180  0.10082  1.0000 -0.4798735883
O   O191      1.0  0.03472  0.60520  0.26822  1.0000 -0.5107410061
O   O192      1.0  0.02889  0.53450  0.20499  1.0000 -0.5013644077
O   O193      1.0  0.39572  0.62990  0.26852  1.0000 -0.2999797193
O   O194      1.0  0.36869  0.61020  0.32679  1.0000 -0.3197677709
O   O195      1.0  0.46545  0.40600  0.23255  1.0000 -0.5220934677
O   O196      1.0  0.44745  0.47300  0.29225  1.0000 -0.5107410061
O   O197      1.0  0.11680  0.42870  0.19890  1.0000 -0.288732149
O   O198      1.0  0.10190  0.32790  0.17550  1.0000 -0.2999797193
O   O199      1.0  0.29667  0.48990  0.45507  1.0000 -0.5107410061
O   O200      1.0  0.28180  0.42190  0.51450  1.0000 -0.5013644077
O   O201      1.0  0.64098  0.35650  0.52228  1.0000 -0.288732149
O   O202      1.0  0.61698  0.37150  0.58228  1.0000 -0.3197677709
O   O203      1.0  0.72680  0.26130  0.18030  1.0000 -0.0418722315
O   O204      1.0  0.77050  0.33720  0.22920  1.0000 -0.1575803722
O   O205      1.0  0.19076  0.23446  0.42966  1.0000 -0.7028348001
O   O206      1.0  0.12518  0.29128  0.46117  1.0000 -0.6422386865
O   O207      1.0  0.62020  0.23043  0.80166  1.0000 -0.6483939744
O   O208      1.0  0.51734  0.26740  0.80988  1.0000 -0.6909215229
O   O209      1.0  0.28661  0.35280  0.64901  1.0000 -0.4798735883
O   O210      1.0  0.25506  0.23600  0.65416  1.0000 -0.5107410061
O   O211      1.0  0.44030  0.14750  0.52470  1.0000 -0.119680866
O   O212      1.0  0.49870  0.22820  0.56740  1.0000 0.0576068896
O   O213      1.0  0.68860  0.27450  0.15290  1.0000 0.1515422618
O   O214      1.0  0.63960  0.35820  0.10850  1.0000 -0.119680866
O   O215      1.0  0.58690  0.33340  0.14110  1.0000 -0.1288264764
O   O216      1.0  0.53600  0.24730  0.09910  1.0000 0.0101986657
