# DDEC6 charges by PACMAN v1.1 (https://github.com/mtap-research/PACMAN-charge/)
data_2019[Cu][nan]3[ASR]10
_chemical_formula_sum              "Cu20 H148 C280 O80"
_cell_length_a       32.1271
_cell_length_b       32.1271
_cell_length_c       28.7942
_cell_angle_alpha    90
_cell_angle_beta     90
_cell_angle_gamma    125.024

_symmetry_space_group_name_H-M    "P 1"
_symmetry_Int_Tables_number       1

loop_
  _symmetry_equiv_pos_as_xyz
  'x, y, z'

loop_
  _atom_site_type_symbol
  _atom_site_label
  _atom_site_symmetry_multiplicity
  _atom_site_fract_x
  _atom_site_fract_y
  _atom_site_fract_z
  _atom_site_occupancy
  _atom_site_charge
Cu  Cu1       1.0  0.64816  0.38302  0.04300  1.0000 0.8600197969
Cu  Cu2       1.0  0.35184  0.61698  0.54300  1.0000 0.8600197969
Cu  Cu3       1.0  0.38302  0.64816  0.45700  1.0000 0.8600197969
Cu  Cu4       1.0  0.61698  0.35184  0.95700  1.0000 0.8600197969
Cu  Cu5       1.0  0.35184  0.61698  0.95700  1.0000 0.8600197969
Cu  Cu6       1.0  0.64816  0.38302  0.45700  1.0000 0.8600197969
Cu  Cu7       1.0  0.61698  0.35184  0.54300  1.0000 0.8600197969
Cu  Cu8       1.0  0.38302  0.64816  0.04300  1.0000 0.8600197969
Cu  Cu9       1.0  0.97173  0.35755  0.25000  1.0000 0.853091877
Cu  Cu10      1.0  0.92240  0.25780  0.25000  1.0000 0.8600197969
Cu  Cu11      1.0  0.02827  0.64245  0.75000  1.0000 0.853091877
Cu  Cu12      1.0  0.07760  0.74220  0.75000  1.0000 0.8600197969
Cu  Cu13      1.0  0.35755  0.97173  0.25000  1.0000 0.853091877
Cu  Cu14      1.0  0.25780  0.92240  0.25000  1.0000 0.8600197969
Cu  Cu15      1.0  0.64245  0.02827  0.75000  1.0000 0.853091877
Cu  Cu16      1.0  0.74220  0.07760  0.75000  1.0000 0.8600197969
Cu  Cu17      1.0  0.97800  0.97800  0.03982  1.0000 0.853091877
Cu  Cu18      1.0  0.02200  0.02200  0.53982  1.0000 0.853091877
Cu  Cu19      1.0  0.97800  0.97800  0.46018  1.0000 0.853091877
Cu  Cu20      1.0  0.02200  0.02200  0.96018  1.0000 0.853091877
H   H1        1.0  0.25010  0.52630  0.11530  1.0000 0.131637148
H   H2        1.0  0.18000  0.45080  0.14370  1.0000 0.1165903328
H   H3        1.0  0.14940  0.39280  0.01550  1.0000 0.1165903328
H   H4        1.0  0.21720  0.46840  0.98700  1.0000 0.131637148
H   H5        1.0  0.08780  0.39300  0.14680  1.0000 0.131637148
H   H6        1.0  0.00400  0.24080  0.14590  1.0000 0.131637148
H   H7        1.0  0.12380  0.32020  0.06090  1.0000 0.1115234105
H   H8        1.0  0.02370  0.18370  0.14110  1.0000 0.1165903328
H   H9        1.0  0.00700  0.10860  0.11300  1.0000 0.131637148
H   H10       1.0  0.06200  0.17260  0.98970  1.0000 0.131637148
H   H11       1.0  0.07700  0.24780  0.01660  1.0000 0.1165903328
H   H12       1.0  0.87890  0.36930  0.14670  1.0000 0.131637148
H   H13       1.0  0.82710  0.36130  0.08840  1.0000 0.1165903328
H   H14       1.0  0.76790  0.21210  0.07950  1.0000 0.1165903328
H   H15       1.0  0.81710  0.21970  0.14090  1.0000 0.131637148
H   H16       1.0  0.73850  0.32490  0.06130  1.0000 0.131637148
H   H17       1.0  0.57390  0.45810  0.06660  1.0000 0.1364128628
H   H18       1.0  0.53350  0.49850  0.06560  1.0000 0.1115234105
H   H19       1.0  0.74990  0.47370  0.61530  1.0000 0.131637148
H   H20       1.0  0.82000  0.54920  0.64370  1.0000 0.1165903328
H   H21       1.0  0.85060  0.60720  0.51550  1.0000 0.1165903328
H   H22       1.0  0.78280  0.53160  0.48700  1.0000 0.131637148
H   H23       1.0  0.91220  0.60700  0.64680  1.0000 0.131637148
H   H24       1.0  0.99600  0.75920  0.64590  1.0000 0.131637148
H   H25       1.0  0.87620  0.67980  0.56090  1.0000 0.1115234105
H   H26       1.0  0.97630  0.81630  0.64110  1.0000 0.1165903328
H   H27       1.0  0.99300  0.89140  0.61300  1.0000 0.131637148
H   H28       1.0  0.93800  0.82740  0.48970  1.0000 0.131637148
H   H29       1.0  0.92300  0.75220  0.51660  1.0000 0.1165903328
H   H30       1.0  0.12110  0.63070  0.64670  1.0000 0.131637148
H   H31       1.0  0.17290  0.63870  0.58840  1.0000 0.1165903328
H   H32       1.0  0.23210  0.78790  0.57950  1.0000 0.1165903328
H   H33       1.0  0.18290  0.78030  0.64090  1.0000 0.131637148
H   H34       1.0  0.26150  0.67510  0.56130  1.0000 0.131637148
H   H35       1.0  0.42610  0.54190  0.56660  1.0000 0.1364128628
H   H36       1.0  0.46650  0.50150  0.56560  1.0000 0.1115234105
H   H37       1.0  0.52630  0.25010  0.38470  1.0000 0.131637148
H   H38       1.0  0.45080  0.18000  0.35630  1.0000 0.1165903328
H   H39       1.0  0.39280  0.14940  0.48450  1.0000 0.1165903328
H   H40       1.0  0.46840  0.21720  0.51300  1.0000 0.131637148
H   H41       1.0  0.39300  0.08780  0.35320  1.0000 0.131637148
H   H42       1.0  0.24080  0.00400  0.35410  1.0000 0.131637148
H   H43       1.0  0.32020  0.12380  0.43910  1.0000 0.1115234105
H   H44       1.0  0.18370  0.02370  0.35890  1.0000 0.1165903328
H   H45       1.0  0.10860  0.00700  0.38700  1.0000 0.131637148
H   H46       1.0  0.17260  0.06200  0.51030  1.0000 0.131637148
H   H47       1.0  0.24780  0.07700  0.48340  1.0000 0.1165903328
H   H48       1.0  0.36930  0.87890  0.35330  1.0000 0.131637148
H   H49       1.0  0.36130  0.82710  0.41160  1.0000 0.1165903328
H   H50       1.0  0.21210  0.76790  0.42050  1.0000 0.1165903328
H   H51       1.0  0.21970  0.81710  0.35910  1.0000 0.131637148
H   H52       1.0  0.32490  0.73850  0.43870  1.0000 0.131637148
H   H53       1.0  0.45810  0.57390  0.43340  1.0000 0.1364128628
H   H54       1.0  0.49850  0.53350  0.43440  1.0000 0.1115234105
H   H55       1.0  0.47370  0.74990  0.88470  1.0000 0.131637148
H   H56       1.0  0.54920  0.82000  0.85630  1.0000 0.1165903328
H   H57       1.0  0.60720  0.85060  0.98450  1.0000 0.1165903328
H   H58       1.0  0.53160  0.78280  0.01300  1.0000 0.131637148
H   H59       1.0  0.60700  0.91220  0.85320  1.0000 0.131637148
H   H60       1.0  0.75920  0.99600  0.85410  1.0000 0.131637148
H   H61       1.0  0.67980  0.87620  0.93910  1.0000 0.1115234105
H   H62       1.0  0.81630  0.97630  0.85890  1.0000 0.1165903328
H   H63       1.0  0.89140  0.99300  0.88700  1.0000 0.131637148
H   H64       1.0  0.82740  0.93800  0.01030  1.0000 0.131637148
H   H65       1.0  0.75220  0.92300  0.98340  1.0000 0.1165903328
H   H66       1.0  0.63070  0.12110  0.85330  1.0000 0.131637148
H   H67       1.0  0.63870  0.17290  0.91160  1.0000 0.1165903328
H   H68       1.0  0.78790  0.23210  0.92050  1.0000 0.1165903328
H   H69       1.0  0.78030  0.18290  0.85910  1.0000 0.131637148
H   H70       1.0  0.67510  0.26150  0.93870  1.0000 0.131637148
H   H71       1.0  0.54190  0.42610  0.93340  1.0000 0.1364128628
H   H72       1.0  0.50150  0.46650  0.93440  1.0000 0.1115234105
H   H73       1.0  0.74990  0.47370  0.88470  1.0000 0.131637148
H   H74       1.0  0.82000  0.54920  0.85630  1.0000 0.1165903328
H   H75       1.0  0.85060  0.60720  0.98450  1.0000 0.1165903328
H   H76       1.0  0.78280  0.53160  0.01300  1.0000 0.131637148
H   H77       1.0  0.91220  0.60700  0.85320  1.0000 0.131637148
H   H78       1.0  0.99600  0.75920  0.85410  1.0000 0.131637148
H   H79       1.0  0.87620  0.67980  0.93910  1.0000 0.1115234105
H   H80       1.0  0.97630  0.81630  0.85890  1.0000 0.1165903328
H   H81       1.0  0.99300  0.89140  0.88700  1.0000 0.131637148
H   H82       1.0  0.93800  0.82740  0.01030  1.0000 0.131637148
H   H83       1.0  0.92300  0.75220  0.98340  1.0000 0.1165903328
H   H84       1.0  0.12110  0.63070  0.85330  1.0000 0.131637148
H   H85       1.0  0.17290  0.63870  0.91160  1.0000 0.1165903328
H   H86       1.0  0.23210  0.78790  0.92050  1.0000 0.1165903328
H   H87       1.0  0.18290  0.78030  0.85910  1.0000 0.131637148
H   H88       1.0  0.26150  0.67510  0.93870  1.0000 0.131637148
H   H89       1.0  0.42610  0.54190  0.93340  1.0000 0.1364128628
H   H90       1.0  0.46650  0.50150  0.93440  1.0000 0.1165903328
H   H91       1.0  0.25010  0.52630  0.38470  1.0000 0.131637148
H   H92       1.0  0.18000  0.45080  0.35630  1.0000 0.1165903328
H   H93       1.0  0.14940  0.39280  0.48450  1.0000 0.1165903328
H   H94       1.0  0.21720  0.46840  0.51300  1.0000 0.131637148
H   H95       1.0  0.08780  0.39300  0.35320  1.0000 0.131637148
H   H96       1.0  0.00400  0.24080  0.35410  1.0000 0.131637148
H   H97       1.0  0.12380  0.32020  0.43910  1.0000 0.1115234105
H   H98       1.0  0.02370  0.18370  0.35890  1.0000 0.1165903328
H   H99       1.0  0.00700  0.10860  0.38700  1.0000 0.131637148
H   H100      1.0  0.06200  0.17260  0.51030  1.0000 0.131637148
H   H101      1.0  0.07700  0.24780  0.48340  1.0000 0.1165903328
H   H102      1.0  0.87890  0.36930  0.35330  1.0000 0.131637148
H   H103      1.0  0.82710  0.36130  0.41160  1.0000 0.1165903328
H   H104      1.0  0.76790  0.21210  0.42050  1.0000 0.1165903328
H   H105      1.0  0.81710  0.21970  0.35910  1.0000 0.131637148
H   H106      1.0  0.73850  0.32490  0.43870  1.0000 0.131637148
H   H107      1.0  0.57390  0.45810  0.43340  1.0000 0.1364128628
H   H108      1.0  0.53350  0.49850  0.43440  1.0000 0.1115234105
H   H109      1.0  0.47370  0.74990  0.61530  1.0000 0.131637148
H   H110      1.0  0.54920  0.82000  0.64370  1.0000 0.1165903328
H   H111      1.0  0.60720  0.85060  0.51550  1.0000 0.1165903328
H   H112      1.0  0.53160  0.78280  0.48700  1.0000 0.131637148
H   H113      1.0  0.60700  0.91220  0.64680  1.0000 0.131637148
H   H114      1.0  0.75920  0.99600  0.64590  1.0000 0.131637148
H   H115      1.0  0.67980  0.87620  0.56090  1.0000 0.1115234105
H   H116      1.0  0.81630  0.97630  0.64110  1.0000 0.1165903328
H   H117      1.0  0.89140  0.99300  0.61300  1.0000 0.131637148
H   H118      1.0  0.82740  0.93800  0.48970  1.0000 0.131637148
H   H119      1.0  0.75220  0.92300  0.51660  1.0000 0.1165903328
H   H120      1.0  0.63070  0.12110  0.64670  1.0000 0.131637148
H   H121      1.0  0.63870  0.17290  0.58840  1.0000 0.1165903328
H   H122      1.0  0.78790  0.23210  0.57950  1.0000 0.1165903328
H   H123      1.0  0.78030  0.18290  0.64090  1.0000 0.131637148
H   H124      1.0  0.67510  0.26150  0.56130  1.0000 0.131637148
H   H125      1.0  0.54190  0.42610  0.56660  1.0000 0.1364128628
H   H126      1.0  0.50150  0.46650  0.56560  1.0000 0.1115234105
H   H127      1.0  0.52630  0.25010  0.11530  1.0000 0.131637148
H   H128      1.0  0.45080  0.18000  0.14370  1.0000 0.1165903328
H   H129      1.0  0.39280  0.14940  0.01550  1.0000 0.1165903328
H   H130      1.0  0.46840  0.21720  0.98700  1.0000 0.131637148
H   H131      1.0  0.39300  0.08780  0.14680  1.0000 0.131637148
H   H132      1.0  0.24080  0.00400  0.14590  1.0000 0.131637148
H   H133      1.0  0.32020  0.12380  0.06090  1.0000 0.1115234105
H   H134      1.0  0.18370  0.02370  0.14110  1.0000 0.1165903328
H   H135      1.0  0.10860  0.00700  0.11300  1.0000 0.131637148
H   H136      1.0  0.17260  0.06200  0.98970  1.0000 0.131637148
H   H137      1.0  0.24780  0.07700  0.01660  1.0000 0.1165903328
H   H138      1.0  0.36930  0.87890  0.14670  1.0000 0.131637148
H   H139      1.0  0.36130  0.82710  0.08840  1.0000 0.1165903328
H   H140      1.0  0.21210  0.76790  0.07950  1.0000 0.1165903328
H   H141      1.0  0.21970  0.81710  0.14090  1.0000 0.131637148
H   H142      1.0  0.32490  0.73850  0.06130  1.0000 0.131637148
H   H143      1.0  0.45810  0.57390  0.06660  1.0000 0.1364128628
H   H144      1.0  0.49850  0.53350  0.06560  1.0000 0.1115234105
H   H145      1.0  0.76740  0.23260  0.00000  1.0000 0.1115234105
H   H146      1.0  0.23260  0.76740  0.50000  1.0000 0.1115234105
H   H147      1.0  0.23260  0.76740  0.00000  1.0000 0.1115234105
H   H148      1.0  0.76740  0.23260  0.50000  1.0000 0.1115234105
C   C1        1.0  0.28865  0.55289  0.03069  1.0000 0.5776185903
C   C2        1.0  0.24241  0.50491  0.04926  1.0000 -0.0391224373
C   C3        1.0  0.22996  0.49932  0.09503  1.0000 -0.0887552108
C   C4        1.0  0.18779  0.45407  0.11219  1.0000 -0.1496142863
C   C5        1.0  0.15742  0.41394  0.08222  1.0000 0.0757116073
C   C6        1.0  0.16945  0.41977  0.03572  1.0000 -0.1496142863
C   C7        1.0  0.21047  0.46457  0.01868  1.0000 -0.0887552108
C   C8        1.0  0.11223  0.36445  0.10054  1.0000 0.0717403396
C   C9        1.0  0.08126  0.36294  0.13484  1.0000 -0.1704280073
C   C10       1.0  0.04061  0.31663  0.15145  1.0000 -0.0128157287
C   C11       1.0  0.03131  0.27173  0.13441  1.0000 -0.1704280073
C   C12       1.0  0.06225  0.27221  0.10033  1.0000 0.0717403396
C   C13       1.0  0.10273  0.31913  0.08373  1.0000 -0.1916877739
C   C14       1.0  0.00603  0.31415  0.18804  1.0000 0.5776185903
C   C15       1.0  0.05224  0.22396  0.08169  1.0000 0.0717403396
C   C16       1.0  0.03122  0.18172  0.11035  1.0000 -0.1496142863
C   C17       1.0  0.02137  0.13663  0.09344  1.0000 -0.0887552108
C   C18       1.0  0.03203  0.13253  0.04922  1.0000 -0.0276353344
C   C19       1.0  0.05379  0.17479  0.02014  1.0000 -0.0887552108
C   C20       1.0  0.06319  0.21995  0.03639  1.0000 -0.1567972954
C   C21       1.0  0.02048  0.08298  0.03057  1.0000 0.5728924164
C   C22       1.0  0.88827  0.30047  0.18735  1.0000 0.5728924164
C   C23       1.0  0.85485  0.29615  0.14942  1.0000 -0.0391224373
C   C24       1.0  0.85635  0.33759  0.13328  1.0000 -0.0845029154
C   C25       1.0  0.82564  0.33294  0.09819  1.0000 -0.1496142863
C   C26       1.0  0.79143  0.28549  0.07631  1.0000 0.0717403396
C   C27       1.0  0.78986  0.24380  0.09320  1.0000 -0.1496142863
C   C28       1.0  0.81988  0.24834  0.12947  1.0000 -0.0887552108
C   C29       1.0  0.75856  0.27920  0.03729  1.0000 0.0613619956
C   C30       1.0  0.73391  0.30381  0.03673  1.0000 -0.1704280073
C   C31       1.0  0.55941  0.45959  0.03926  1.0000 -0.0887552108
C   C32       1.0  0.53484  0.48376  0.03830  1.0000 -0.1704280073
C   C33       1.0  0.71135  0.44711  0.53069  1.0000 0.5776185903
C   C34       1.0  0.75759  0.49509  0.54926  1.0000 -0.0391224373
C   C35       1.0  0.77004  0.50068  0.59503  1.0000 -0.0845029154
C   C36       1.0  0.81221  0.54593  0.61219  1.0000 -0.1496142863
C   C37       1.0  0.84258  0.58606  0.58222  1.0000 0.0757116073
C   C38       1.0  0.83055  0.58023  0.53572  1.0000 -0.1496142863
C   C39       1.0  0.78953  0.53543  0.51868  1.0000 -0.0887552108
C   C40       1.0  0.88777  0.63555  0.60054  1.0000 0.0717403396
C   C41       1.0  0.91874  0.63706  0.63484  1.0000 -0.1704280073
C   C42       1.0  0.95939  0.68337  0.65145  1.0000 -0.0128157287
C   C43       1.0  0.96869  0.72827  0.63441  1.0000 -0.1704280073
C   C44       1.0  0.93775  0.72779  0.60033  1.0000 0.0717403396
C   C45       1.0  0.89727  0.68087  0.58373  1.0000 -0.1916877739
C   C46       1.0  0.99397  0.68585  0.68804  1.0000 0.5776185903
C   C47       1.0  0.94776  0.77604  0.58169  1.0000 0.0717403396
C   C48       1.0  0.96878  0.81828  0.61035  1.0000 -0.1496142863
C   C49       1.0  0.97863  0.86337  0.59344  1.0000 -0.0887552108
C   C50       1.0  0.96797  0.86747  0.54922  1.0000 -0.0276353344
C   C51       1.0  0.94621  0.82521  0.52014  1.0000 -0.0887552108
C   C52       1.0  0.93681  0.78005  0.53639  1.0000 -0.1567972954
C   C53       1.0  0.97952  0.91702  0.53057  1.0000 0.5728924164
C   C54       1.0  0.11173  0.69953  0.68735  1.0000 0.5728924164
C   C55       1.0  0.14515  0.70385  0.64942  1.0000 -0.0460767261
C   C56       1.0  0.14365  0.66241  0.63328  1.0000 -0.0887552108
C   C57       1.0  0.17436  0.66706  0.59819  1.0000 -0.1496142863
C   C58       1.0  0.20857  0.71451  0.57631  1.0000 0.0757116073
C   C59       1.0  0.21014  0.75620  0.59320  1.0000 -0.1496142863
C   C60       1.0  0.18012  0.75166  0.62947  1.0000 -0.0845029154
C   C61       1.0  0.24144  0.72080  0.53729  1.0000 0.0613619956
C   C62       1.0  0.26609  0.69619  0.53673  1.0000 -0.1704280073
C   C63       1.0  0.44059  0.54041  0.53926  1.0000 -0.0887552108
C   C64       1.0  0.46516  0.51624  0.53830  1.0000 -0.1704280073
C   C65       1.0  0.55289  0.28865  0.46931  1.0000 0.5776185903
C   C66       1.0  0.50491  0.24241  0.45074  1.0000 -0.0391224373
C   C67       1.0  0.49932  0.22996  0.40497  1.0000 -0.0887552108
C   C68       1.0  0.45407  0.18779  0.38781  1.0000 -0.1496142863
C   C69       1.0  0.41394  0.15742  0.41778  1.0000 0.0757116073
C   C70       1.0  0.41977  0.16945  0.46428  1.0000 -0.1496142863
C   C71       1.0  0.46457  0.21047  0.48132  1.0000 -0.0887552108
C   C72       1.0  0.36445  0.11223  0.39946  1.0000 0.0717403396
C   C73       1.0  0.36294  0.08126  0.36516  1.0000 -0.1704280073
C   C74       1.0  0.31663  0.04061  0.34855  1.0000 -0.0128157287
C   C75       1.0  0.27173  0.03131  0.36559  1.0000 -0.1704280073
C   C76       1.0  0.27221  0.06225  0.39967  1.0000 0.0717403396
C   C77       1.0  0.31913  0.10273  0.41627  1.0000 -0.1916877739
C   C78       1.0  0.31415  0.00603  0.31196  1.0000 0.5776185903
C   C79       1.0  0.22396  0.05224  0.41831  1.0000 0.0717403396
C   C80       1.0  0.18172  0.03122  0.38965  1.0000 -0.1496142863
C   C81       1.0  0.13663  0.02137  0.40656  1.0000 -0.0887552108
C   C82       1.0  0.13253  0.03203  0.45078  1.0000 -0.0276353344
C   C83       1.0  0.17479  0.05379  0.47986  1.0000 -0.0887552108
C   C84       1.0  0.21995  0.06319  0.46361  1.0000 -0.1567972954
C   C85       1.0  0.08298  0.02048  0.46943  1.0000 0.5728924164
C   C86       1.0  0.30047  0.88827  0.31265  1.0000 0.5728924164
C   C87       1.0  0.29615  0.85485  0.35058  1.0000 -0.0460767261
C   C88       1.0  0.33759  0.85635  0.36672  1.0000 -0.0845029154
C   C89       1.0  0.33294  0.82564  0.40181  1.0000 -0.1496142863
C   C90       1.0  0.28549  0.79143  0.42369  1.0000 0.0757116073
C   C91       1.0  0.24380  0.78986  0.40680  1.0000 -0.1496142863
C   C92       1.0  0.24834  0.81988  0.37053  1.0000 -0.0887552108
C   C93       1.0  0.27920  0.75856  0.46271  1.0000 0.0613619956
C   C94       1.0  0.30381  0.73391  0.46327  1.0000 -0.1704280073
C   C95       1.0  0.45959  0.55941  0.46074  1.0000 -0.0887552108
C   C96       1.0  0.48376  0.53484  0.46170  1.0000 -0.1704280073
C   C97       1.0  0.44711  0.71135  0.96931  1.0000 0.5776185903
C   C98       1.0  0.49509  0.75759  0.95074  1.0000 -0.0391224373
C   C99       1.0  0.50068  0.77004  0.90497  1.0000 -0.0887552108
C   C100      1.0  0.54593  0.81221  0.88781  1.0000 -0.1496142863
C   C101      1.0  0.58606  0.84258  0.91778  1.0000 0.0757116073
C   C102      1.0  0.58023  0.83055  0.96428  1.0000 -0.1496142863
C   C103      1.0  0.53543  0.78953  0.98132  1.0000 -0.0887552108
C   C104      1.0  0.63555  0.88777  0.89946  1.0000 0.0717403396
C   C105      1.0  0.63706  0.91874  0.86516  1.0000 -0.1704280073
C   C106      1.0  0.68337  0.95939  0.84855  1.0000 -0.0128157287
C   C107      1.0  0.72827  0.96869  0.86559  1.0000 -0.1704280073
C   C108      1.0  0.72779  0.93775  0.89967  1.0000 0.0717403396
C   C109      1.0  0.68087  0.89727  0.91627  1.0000 -0.1916877739
C   C110      1.0  0.68585  0.99397  0.81196  1.0000 0.5776185903
C   C111      1.0  0.77604  0.94776  0.91831  1.0000 0.0717403396
C   C112      1.0  0.81828  0.96878  0.88965  1.0000 -0.1496142863
C   C113      1.0  0.86337  0.97863  0.90656  1.0000 -0.0887552108
C   C114      1.0  0.86747  0.96797  0.95078  1.0000 -0.0276353344
C   C115      1.0  0.82521  0.94621  0.97986  1.0000 -0.0887552108
C   C116      1.0  0.78005  0.93681  0.96361  1.0000 -0.1567972954
C   C117      1.0  0.91702  0.97952  0.96943  1.0000 0.5728924164
C   C118      1.0  0.69953  0.11173  0.81265  1.0000 0.5728924164
C   C119      1.0  0.70385  0.14515  0.85058  1.0000 -0.0391224373
C   C120      1.0  0.66241  0.14365  0.86672  1.0000 -0.0845029154
C   C121      1.0  0.66706  0.17436  0.90181  1.0000 -0.1496142863
C   C122      1.0  0.71451  0.20857  0.92369  1.0000 0.0757116073
C   C123      1.0  0.75620  0.21014  0.90680  1.0000 -0.1496142863
C   C124      1.0  0.75166  0.18012  0.87053  1.0000 -0.0887552108
C   C125      1.0  0.72080  0.24144  0.96271  1.0000 0.0613619956
C   C126      1.0  0.69619  0.26609  0.96327  1.0000 -0.1704280073
C   C127      1.0  0.54041  0.44059  0.96074  1.0000 -0.0887552108
C   C128      1.0  0.51624  0.46516  0.96170  1.0000 -0.1704280073
C   C129      1.0  0.71135  0.44711  0.96931  1.0000 0.5776185903
C   C130      1.0  0.75759  0.49509  0.95074  1.0000 -0.0391224373
C   C131      1.0  0.77004  0.50068  0.90497  1.0000 -0.0845029154
C   C132      1.0  0.81221  0.54593  0.88781  1.0000 -0.1496142863
C   C133      1.0  0.84258  0.58606  0.91778  1.0000 0.0757116073
C   C134      1.0  0.83055  0.58023  0.96428  1.0000 -0.1496142863
C   C135      1.0  0.78953  0.53543  0.98132  1.0000 -0.0887552108
C   C136      1.0  0.88777  0.63555  0.89946  1.0000 0.0717403396
C   C137      1.0  0.91874  0.63706  0.86516  1.0000 -0.1704280073
C   C138      1.0  0.95939  0.68337  0.84855  1.0000 -0.0128157287
C   C139      1.0  0.96869  0.72827  0.86559  1.0000 -0.1704280073
C   C140      1.0  0.93775  0.72779  0.89967  1.0000 0.0717403396
C   C141      1.0  0.89727  0.68087  0.91627  1.0000 -0.1916877739
C   C142      1.0  0.99397  0.68585  0.81196  1.0000 0.5776185903
C   C143      1.0  0.94776  0.77604  0.91831  1.0000 0.0757116073
C   C144      1.0  0.96878  0.81828  0.88965  1.0000 -0.1496142863
C   C145      1.0  0.97863  0.86337  0.90656  1.0000 -0.0887552108
C   C146      1.0  0.96797  0.86747  0.95078  1.0000 -0.0276353344
C   C147      1.0  0.94621  0.82521  0.97986  1.0000 -0.0887552108
C   C148      1.0  0.93681  0.78005  0.96361  1.0000 -0.1567972954
C   C149      1.0  0.97952  0.91702  0.96943  1.0000 0.5728924164
C   C150      1.0  0.11173  0.69953  0.81265  1.0000 0.5728924164
C   C151      1.0  0.14515  0.70385  0.85058  1.0000 -0.0391224373
C   C152      1.0  0.14365  0.66241  0.86672  1.0000 -0.0845029154
C   C153      1.0  0.17436  0.66706  0.90181  1.0000 -0.1496142863
C   C154      1.0  0.20857  0.71451  0.92369  1.0000 0.0757116073
C   C155      1.0  0.21014  0.75620  0.90680  1.0000 -0.1496142863
C   C156      1.0  0.18012  0.75166  0.87053  1.0000 -0.0887552108
C   C157      1.0  0.24144  0.72080  0.96271  1.0000 0.0613619956
C   C158      1.0  0.26609  0.69619  0.96327  1.0000 -0.1704280073
C   C159      1.0  0.44059  0.54041  0.96074  1.0000 -0.0887552108
C   C160      1.0  0.46516  0.51624  0.96170  1.0000 -0.1704280073
C   C161      1.0  0.28865  0.55289  0.46931  1.0000 0.5776185903
C   C162      1.0  0.24241  0.50491  0.45074  1.0000 -0.0391224373
C   C163      1.0  0.22996  0.49932  0.40497  1.0000 -0.0887552108
C   C164      1.0  0.18779  0.45407  0.38781  1.0000 -0.1496142863
C   C165      1.0  0.15742  0.41394  0.41778  1.0000 0.0757116073
C   C166      1.0  0.16945  0.41977  0.46428  1.0000 -0.1496142863
C   C167      1.0  0.21047  0.46457  0.48132  1.0000 -0.0887552108
C   C168      1.0  0.11223  0.36445  0.39946  1.0000 0.0717403396
C   C169      1.0  0.08126  0.36294  0.36516  1.0000 -0.1704280073
C   C170      1.0  0.04061  0.31663  0.34855  1.0000 -0.0128157287
C   C171      1.0  0.03131  0.27173  0.36559  1.0000 -0.1704280073
C   C172      1.0  0.06225  0.27221  0.39967  1.0000 0.0717403396
C   C173      1.0  0.10273  0.31913  0.41627  1.0000 -0.1916877739
C   C174      1.0  0.00603  0.31415  0.31196  1.0000 0.5776185903
C   C175      1.0  0.05224  0.22396  0.41831  1.0000 0.0717403396
C   C176      1.0  0.03122  0.18172  0.38965  1.0000 -0.1496142863
C   C177      1.0  0.02137  0.13663  0.40656  1.0000 -0.0887552108
C   C178      1.0  0.03203  0.13253  0.45078  1.0000 -0.0276353344
C   C179      1.0  0.05379  0.17479  0.47986  1.0000 -0.0887552108
C   C180      1.0  0.06319  0.21995  0.46361  1.0000 -0.1567972954
C   C181      1.0  0.02048  0.08298  0.46943  1.0000 0.5728924164
C   C182      1.0  0.88827  0.30047  0.31265  1.0000 0.5728924164
C   C183      1.0  0.85485  0.29615  0.35058  1.0000 -0.0391224373
C   C184      1.0  0.85635  0.33759  0.36672  1.0000 -0.0845029154
C   C185      1.0  0.82564  0.33294  0.40181  1.0000 -0.1496142863
C   C186      1.0  0.79143  0.28549  0.42369  1.0000 0.0757116073
C   C187      1.0  0.78986  0.24380  0.40680  1.0000 -0.1496142863
C   C188      1.0  0.81988  0.24834  0.37053  1.0000 -0.0887552108
C   C189      1.0  0.75856  0.27920  0.46271  1.0000 0.0613619956
C   C190      1.0  0.73391  0.30381  0.46327  1.0000 -0.1704280073
C   C191      1.0  0.55941  0.45959  0.46074  1.0000 -0.0887552108
C   C192      1.0  0.53484  0.48376  0.46170  1.0000 -0.1704280073
C   C193      1.0  0.44711  0.71135  0.53069  1.0000 0.5776185903
C   C194      1.0  0.49509  0.75759  0.54926  1.0000 -0.0391224373
C   C195      1.0  0.50068  0.77004  0.59503  1.0000 -0.0845029154
C   C196      1.0  0.54593  0.81221  0.61219  1.0000 -0.1496142863
C   C197      1.0  0.58606  0.84258  0.58222  1.0000 0.0757116073
C   C198      1.0  0.58023  0.83055  0.53572  1.0000 -0.1496142863
C   C199      1.0  0.53543  0.78953  0.51868  1.0000 -0.0887552108
C   C200      1.0  0.63555  0.88777  0.60054  1.0000 0.0717403396
C   C201      1.0  0.63706  0.91874  0.63484  1.0000 -0.1704280073
C   C202      1.0  0.68337  0.95939  0.65145  1.0000 -0.0128157287
C   C203      1.0  0.72827  0.96869  0.63441  1.0000 -0.1704280073
C   C204      1.0  0.72779  0.93775  0.60033  1.0000 0.0717403396
C   C205      1.0  0.68087  0.89727  0.58373  1.0000 -0.1916877739
C   C206      1.0  0.68585  0.99397  0.68804  1.0000 0.5776185903
C   C207      1.0  0.77604  0.94776  0.58169  1.0000 0.0717403396
C   C208      1.0  0.81828  0.96878  0.61035  1.0000 -0.1496142863
C   C209      1.0  0.86337  0.97863  0.59344  1.0000 -0.0887552108
C   C210      1.0  0.86747  0.96797  0.54922  1.0000 -0.0276353344
C   C211      1.0  0.82521  0.94621  0.52014  1.0000 -0.0887552108
C   C212      1.0  0.78005  0.93681  0.53639  1.0000 -0.1567972954
C   C213      1.0  0.91702  0.97952  0.53057  1.0000 0.5728924164
C   C214      1.0  0.69953  0.11173  0.68735  1.0000 0.5728924164
C   C215      1.0  0.70385  0.14515  0.64942  1.0000 -0.0391224373
C   C216      1.0  0.66241  0.14365  0.63328  1.0000 -0.0845029154
C   C217      1.0  0.66706  0.17436  0.59819  1.0000 -0.1496142863
C   C218      1.0  0.71451  0.20857  0.57631  1.0000 0.0757116073
C   C219      1.0  0.75620  0.21014  0.59320  1.0000 -0.1496142863
C   C220      1.0  0.75166  0.18012  0.62947  1.0000 -0.0887552108
C   C221      1.0  0.72080  0.24144  0.53729  1.0000 0.0613619956
C   C222      1.0  0.69619  0.26609  0.53673  1.0000 -0.1704280073
C   C223      1.0  0.54041  0.44059  0.53926  1.0000 -0.0887552108
C   C224      1.0  0.51624  0.46516  0.53830  1.0000 -0.1704280073
C   C225      1.0  0.55289  0.28865  0.03069  1.0000 0.5776185903
C   C226      1.0  0.50491  0.24241  0.04926  1.0000 -0.0391224373
C   C227      1.0  0.49932  0.22996  0.09503  1.0000 -0.0887552108
C   C228      1.0  0.45407  0.18779  0.11219  1.0000 -0.1496142863
C   C229      1.0  0.41394  0.15742  0.08222  1.0000 0.0757116073
C   C230      1.0  0.41977  0.16945  0.03572  1.0000 -0.1496142863
C   C231      1.0  0.46457  0.21047  0.01868  1.0000 -0.0887552108
C   C232      1.0  0.36445  0.11223  0.10054  1.0000 0.0717403396
C   C233      1.0  0.36294  0.08126  0.13484  1.0000 -0.1704280073
C   C234      1.0  0.31663  0.04061  0.15145  1.0000 -0.0128157287
C   C235      1.0  0.27173  0.03131  0.13441  1.0000 -0.1704280073
C   C236      1.0  0.27221  0.06225  0.10033  1.0000 0.0717403396
C   C237      1.0  0.31913  0.10273  0.08373  1.0000 -0.1916877739
C   C238      1.0  0.31415  0.00603  0.18804  1.0000 0.5776185903
C   C239      1.0  0.22396  0.05224  0.08169  1.0000 0.0717403396
C   C240      1.0  0.18172  0.03122  0.11035  1.0000 -0.1496142863
C   C241      1.0  0.13663  0.02137  0.09344  1.0000 -0.0887552108
C   C242      1.0  0.13253  0.03203  0.04922  1.0000 -0.0276353344
C   C243      1.0  0.17479  0.05379  0.02014  1.0000 -0.0887552108
C   C244      1.0  0.21995  0.06319  0.03639  1.0000 -0.1567972954
C   C245      1.0  0.08298  0.02048  0.03057  1.0000 0.5728924164
C   C246      1.0  0.30047  0.88827  0.18735  1.0000 0.5728924164
C   C247      1.0  0.29615  0.85485  0.14942  1.0000 -0.0460767261
C   C248      1.0  0.33759  0.85635  0.13328  1.0000 -0.0845029154
C   C249      1.0  0.33294  0.82564  0.09819  1.0000 -0.1496142863
C   C250      1.0  0.28549  0.79143  0.07631  1.0000 0.0757116073
C   C251      1.0  0.24380  0.78986  0.09320  1.0000 -0.1496142863
C   C252      1.0  0.24834  0.81988  0.12947  1.0000 -0.0887552108
C   C253      1.0  0.27920  0.75856  0.03729  1.0000 0.0613619956
C   C254      1.0  0.30381  0.73391  0.03673  1.0000 -0.1704280073
C   C255      1.0  0.45959  0.55941  0.03926  1.0000 -0.0887552108
C   C256      1.0  0.48376  0.53484  0.03830  1.0000 -0.1704280073
C   C257      1.0  0.70290  0.29710  0.00000  1.0000 -0.0233874492
C   C258      1.0  0.75111  0.24889  0.00000  1.0000 -0.1805997155
C   C259      1.0  0.67670  0.32330  0.00000  1.0000 0.5776185903
C   C260      1.0  0.58864  0.41136  0.00000  1.0000 0.5776185903
C   C261      1.0  0.56188  0.43812  0.00000  1.0000 -0.0233874492
C   C262      1.0  0.51289  0.48711  0.00000  1.0000 0.0757116073
C   C263      1.0  0.29710  0.70290  0.50000  1.0000 -0.0233874492
C   C264      1.0  0.24889  0.75111  0.50000  1.0000 -0.1805997155
C   C265      1.0  0.32330  0.67670  0.50000  1.0000 0.5776185903
C   C266      1.0  0.41136  0.58864  0.50000  1.0000 0.5776185903
C   C267      1.0  0.43812  0.56188  0.50000  1.0000 -0.0233874492
C   C268      1.0  0.48711  0.51289  0.50000  1.0000 0.0757116073
C   C269      1.0  0.29710  0.70290  0.00000  1.0000 -0.0233874492
C   C270      1.0  0.24889  0.75111  0.00000  1.0000 -0.1805997155
C   C271      1.0  0.32330  0.67670  0.00000  1.0000 0.5776185903
C   C272      1.0  0.41136  0.58864  0.00000  1.0000 0.5776185903
C   C273      1.0  0.43812  0.56188  0.00000  1.0000 -0.0233874492
C   C274      1.0  0.48711  0.51289  0.00000  1.0000 0.0757116073
C   C275      1.0  0.70290  0.29710  0.50000  1.0000 -0.0233874492
C   C276      1.0  0.75111  0.24889  0.50000  1.0000 -0.1805997155
C   C277      1.0  0.67670  0.32330  0.50000  1.0000 0.5776185903
C   C278      1.0  0.58864  0.41136  0.50000  1.0000 0.5776185903
C   C279      1.0  0.56188  0.43812  0.50000  1.0000 -0.0233874492
C   C280      1.0  0.51289  0.48711  0.50000  1.0000 0.0757116073
O   O1        1.0  0.31723  0.58617  0.06025  1.0000 -0.5164096471
O   O2        1.0  0.29492  0.55650  0.98690  1.0000 -0.5279842279
O   O3        1.0  0.99777  0.04569  0.05743  1.0000 -0.5131677031
O   O4        1.0  0.03509  0.08339  0.99000  1.0000 -0.5164096471
O   O5        1.0  0.97163  0.27071  0.20253  1.0000 -0.5131677031
O   O6        1.0  0.01424  0.35540  0.20187  1.0000 -0.5131677031
O   O7        1.0  0.92212  0.34440  0.20184  1.0000 -0.5164096471
O   O8        1.0  0.88082  0.26002  0.20228  1.0000 -0.5164096471
O   O9        1.0  0.68328  0.34970  0.03519  1.0000 -0.5131677031
O   O10       1.0  0.60813  0.41119  0.03781  1.0000 -0.5164096471
O   O11       1.0  0.68277  0.41383  0.56025  1.0000 -0.5131677031
O   O12       1.0  0.70508  0.44350  0.48690  1.0000 -0.5279842279
O   O13       1.0  0.00223  0.95431  0.55743  1.0000 -0.5131677031
O   O14       1.0  0.96491  0.91661  0.49000  1.0000 -0.5164096471
O   O15       1.0  0.02837  0.72929  0.70253  1.0000 -0.5131677031
O   O16       1.0  0.98576  0.64460  0.70187  1.0000 -0.5131677031
O   O17       1.0  0.07788  0.65560  0.70184  1.0000 -0.5164096471
O   O18       1.0  0.11918  0.73998  0.70228  1.0000 -0.5164096471
O   O19       1.0  0.31672  0.65030  0.53519  1.0000 -0.5131677031
O   O20       1.0  0.39187  0.58881  0.53781  1.0000 -0.5131677031
O   O21       1.0  0.58617  0.31723  0.43975  1.0000 -0.5164096471
O   O22       1.0  0.55650  0.29492  0.51310  1.0000 -0.5279842279
O   O23       1.0  0.04569  0.99777  0.44257  1.0000 -0.5131677031
O   O24       1.0  0.08339  0.03509  0.51000  1.0000 -0.5164096471
O   O25       1.0  0.27071  0.97163  0.29747  1.0000 -0.5131677031
O   O26       1.0  0.35540  0.01424  0.29813  1.0000 -0.5131677031
O   O27       1.0  0.34440  0.92212  0.29816  1.0000 -0.5164096471
O   O28       1.0  0.26002  0.88082  0.29772  1.0000 -0.5164096471
O   O29       1.0  0.34970  0.68328  0.46481  1.0000 -0.5131677031
O   O30       1.0  0.41119  0.60813  0.46219  1.0000 -0.5131677031
O   O31       1.0  0.41383  0.68277  0.93975  1.0000 -0.5164096471
O   O32       1.0  0.44350  0.70508  0.01310  1.0000 -0.5279842279
O   O33       1.0  0.95431  0.00223  0.94257  1.0000 -0.5131677031
O   O34       1.0  0.91661  0.96491  0.01000  1.0000 -0.5164096471
O   O35       1.0  0.72929  0.02837  0.79747  1.0000 -0.5131677031
O   O36       1.0  0.64460  0.98576  0.79813  1.0000 -0.5131677031
O   O37       1.0  0.65560  0.07788  0.79816  1.0000 -0.5164096471
O   O38       1.0  0.73998  0.11918  0.79772  1.0000 -0.5164096471
O   O39       1.0  0.65030  0.31672  0.96481  1.0000 -0.5131677031
O   O40       1.0  0.58881  0.39187  0.96219  1.0000 -0.5131677031
O   O41       1.0  0.68277  0.41383  0.93975  1.0000 -0.5164096471
O   O42       1.0  0.70508  0.44350  0.01310  1.0000 -0.5279842279
O   O43       1.0  0.00223  0.95431  0.94257  1.0000 -0.5131677031
O   O44       1.0  0.96491  0.91661  0.01000  1.0000 -0.5164096471
O   O45       1.0  0.02837  0.72929  0.79747  1.0000 -0.5131677031
O   O46       1.0  0.98576  0.64460  0.79813  1.0000 -0.5131677031
O   O47       1.0  0.07788  0.65560  0.79816  1.0000 -0.5164096471
O   O48       1.0  0.11918  0.73998  0.79772  1.0000 -0.5164096471
O   O49       1.0  0.31672  0.65030  0.96481  1.0000 -0.5131677031
O   O50       1.0  0.39187  0.58881  0.96219  1.0000 -0.5131677031
O   O51       1.0  0.31723  0.58617  0.43975  1.0000 -0.5164096471
O   O52       1.0  0.29492  0.55650  0.51310  1.0000 -0.5279842279
O   O53       1.0  0.99777  0.04569  0.44257  1.0000 -0.5131677031
O   O54       1.0  0.03509  0.08339  0.51000  1.0000 -0.5164096471
O   O55       1.0  0.97163  0.27071  0.29747  1.0000 -0.5131677031
O   O56       1.0  0.01424  0.35540  0.29813  1.0000 -0.5131677031
O   O57       1.0  0.92212  0.34440  0.29816  1.0000 -0.5164096471
O   O58       1.0  0.88082  0.26002  0.29772  1.0000 -0.5164096471
O   O59       1.0  0.68328  0.34970  0.46481  1.0000 -0.5131677031
O   O60       1.0  0.60813  0.41119  0.46219  1.0000 -0.5131677031
O   O61       1.0  0.41383  0.68277  0.56025  1.0000 -0.5131677031
O   O62       1.0  0.44350  0.70508  0.48690  1.0000 -0.5279842279
O   O63       1.0  0.95431  0.00223  0.55743  1.0000 -0.5131677031
O   O64       1.0  0.91661  0.96491  0.49000  1.0000 -0.5164096471
O   O65       1.0  0.72929  0.02837  0.70253  1.0000 -0.5131677031
O   O66       1.0  0.64460  0.98576  0.70187  1.0000 -0.5131677031
O   O67       1.0  0.65560  0.07788  0.70184  1.0000 -0.5164096471
O   O68       1.0  0.73998  0.11918  0.70228  1.0000 -0.5164096471
O   O69       1.0  0.65030  0.31672  0.53519  1.0000 -0.5131677031
O   O70       1.0  0.58881  0.39187  0.53781  1.0000 -0.5131677031
O   O71       1.0  0.58617  0.31723  0.06025  1.0000 -0.5164096471
O   O72       1.0  0.55650  0.29492  0.98690  1.0000 -0.5279842279
O   O73       1.0  0.04569  0.99777  0.05743  1.0000 -0.5131677031
O   O74       1.0  0.08339  0.03509  0.99000  1.0000 -0.5164096471
O   O75       1.0  0.27071  0.97163  0.20253  1.0000 -0.5131677031
O   O76       1.0  0.35540  0.01424  0.20187  1.0000 -0.5131677031
O   O77       1.0  0.34440  0.92212  0.20184  1.0000 -0.5164096471
O   O78       1.0  0.26002  0.88082  0.20228  1.0000 -0.5164096471
O   O79       1.0  0.34970  0.68328  0.03519  1.0000 -0.5131677031
O   O80       1.0  0.41119  0.60813  0.03781  1.0000 -0.5131677031
