# DDEC6 charges by PACMAN v1.1 (https://github.com/mtap-research/PACMAN-charge/)
data_2019[InCu][nbo]3[ASR]1
_chemical_formula_sum              "In6 Cu12 H96 C204 N24 O108"
_cell_length_a       27.1339
_cell_length_b       27.1339
_cell_length_c       27.1339
_cell_angle_alpha    109.471
_cell_angle_beta     109.471
_cell_angle_gamma    109.471

_symmetry_space_group_name_H-M    "P 1"
_symmetry_Int_Tables_number       1

loop_
  _symmetry_equiv_pos_as_xyz
  'x, y, z'

loop_
  _atom_site_type_symbol
  _atom_site_label
  _atom_site_symmetry_multiplicity
  _atom_site_fract_x
  _atom_site_fract_y
  _atom_site_fract_z
  _atom_site_occupancy
  _atom_site_charge
In  In1       1.0  0.50000  0.75000  0.25000  1.0000 1.3425169239
In  In2       1.0  0.50000  0.25000  0.75000  1.0000 1.3425169239
In  In3       1.0  0.75000  0.50000  0.25000  1.0000 1.3425169239
In  In4       1.0  0.25000  0.50000  0.75000  1.0000 1.3425169239
In  In5       1.0  0.25000  0.75000  0.50000  1.0000 1.3425169239
In  In6       1.0  0.75000  0.25000  0.50000  1.0000 1.3425169239
Cu  Cu1       1.0  0.29952  0.00000  0.29952  1.0000 0.8514997412
Cu  Cu2       1.0  0.38303  0.00000  0.38303  1.0000 0.8415819555
Cu  Cu3       1.0  0.70048  0.00000  0.70048  1.0000 0.8514997412
Cu  Cu4       1.0  0.61697  1.00000  0.61697  1.0000 0.8415819555
Cu  Cu5       1.0  0.29952  0.29952  0.00000  1.0000 0.8514997412
Cu  Cu6       1.0  0.38303  0.38303  0.00000  1.0000 0.8415819555
Cu  Cu7       1.0  0.70048  0.70048  0.00000  1.0000 0.8514997412
Cu  Cu8       1.0  0.61697  0.61697  0.00000  1.0000 0.8415819555
Cu  Cu9       1.0  0.00000  0.70048  0.70048  1.0000 0.8514997412
Cu  Cu10      1.0  0.00000  0.61697  0.61697  1.0000 0.8415819555
Cu  Cu11      1.0  0.00000  0.29952  0.29952  1.0000 0.8514997412
Cu  Cu12      1.0  0.00000  0.38303  0.38303  1.0000 0.8415819555
H   H1        1.0  0.40620  0.86480  0.27100  1.0000 0.1397116236
H   H2        1.0  0.34420  0.75420  0.09840  1.0000 0.1491576177
H   H3        1.0  0.27910  0.86440  0.14350  1.0000 0.1397116236
H   H4        1.0  0.24300  0.80190  0.04490  1.0000 0.280003971
H   H5        1.0  0.40620  0.13520  0.54140  1.0000 0.1397116236
H   H6        1.0  0.34420  0.24580  0.59000  1.0000 0.1491576177
H   H7        1.0  0.27910  0.13560  0.41470  1.0000 0.1397116236
H   H8        1.0  0.24300  0.19810  0.44110  1.0000 0.280003971
H   H9        1.0  0.59380  0.86480  0.45860  1.0000 0.1397116236
H   H10       1.0  0.65580  0.75420  0.41000  1.0000 0.1491576177
H   H11       1.0  0.72090  0.86440  0.58530  1.0000 0.1397116236
H   H12       1.0  0.75700  0.80190  0.55890  1.0000 0.280003971
H   H13       1.0  0.59380  0.13520  0.72900  1.0000 0.1397116236
H   H14       1.0  0.65580  0.24580  0.90160  1.0000 0.1491576177
H   H15       1.0  0.72090  0.13560  0.85650  1.0000 0.1397116236
H   H16       1.0  0.75700  0.19810  0.95510  1.0000 0.280003971
H   H17       1.0  0.54140  0.40620  0.13520  1.0000 0.1397116236
H   H18       1.0  0.59000  0.34420  0.24580  1.0000 0.1491576177
H   H19       1.0  0.41470  0.27910  0.13560  1.0000 0.1397116236
H   H20       1.0  0.44110  0.24300  0.19810  1.0000 0.280003971
H   H21       1.0  0.27100  0.40620  0.86480  1.0000 0.1397116236
H   H22       1.0  0.09840  0.34420  0.75420  1.0000 0.1491576177
H   H23       1.0  0.14350  0.27910  0.86440  1.0000 0.1397116236
H   H24       1.0  0.04490  0.24300  0.80190  1.0000 0.280003971
H   H25       1.0  0.72900  0.59380  0.13520  1.0000 0.1397116236
H   H26       1.0  0.90160  0.65580  0.24580  1.0000 0.1491576177
H   H27       1.0  0.85650  0.72090  0.13560  1.0000 0.1397116236
H   H28       1.0  0.95510  0.75700  0.19810  1.0000 0.280003971
H   H29       1.0  0.45860  0.59380  0.86480  1.0000 0.1397116236
H   H30       1.0  0.41000  0.65580  0.75420  1.0000 0.1491576177
H   H31       1.0  0.58530  0.72090  0.86440  1.0000 0.1397116236
H   H32       1.0  0.55890  0.75700  0.80190  1.0000 0.280003971
H   H33       1.0  0.13520  0.72900  0.59380  1.0000 0.1397116236
H   H34       1.0  0.24580  0.90160  0.65580  1.0000 0.1491576177
H   H35       1.0  0.13560  0.85650  0.72090  1.0000 0.1397116236
H   H36       1.0  0.19810  0.95510  0.75700  1.0000 0.280003971
H   H37       1.0  0.86480  0.45860  0.59380  1.0000 0.1397116236
H   H38       1.0  0.75420  0.41000  0.65580  1.0000 0.1491576177
H   H39       1.0  0.86440  0.58530  0.72090  1.0000 0.1397116236
H   H40       1.0  0.80190  0.55890  0.75700  1.0000 0.280003971
H   H41       1.0  0.13520  0.54140  0.40620  1.0000 0.1397116236
H   H42       1.0  0.24580  0.59000  0.34420  1.0000 0.1491576177
H   H43       1.0  0.13560  0.41470  0.27910  1.0000 0.1397116236
H   H44       1.0  0.19810  0.44110  0.24300  1.0000 0.280003971
H   H45       1.0  0.86480  0.27100  0.40620  1.0000 0.1397116236
H   H46       1.0  0.75420  0.09840  0.34420  1.0000 0.1491576177
H   H47       1.0  0.86440  0.14350  0.27910  1.0000 0.1397116236
H   H48       1.0  0.80190  0.04490  0.24300  1.0000 0.280003971
H   H49       1.0  0.72900  0.13520  0.59380  1.0000 0.1397116236
H   H50       1.0  0.90160  0.24580  0.65580  1.0000 0.1491576177
H   H51       1.0  0.85650  0.13560  0.72090  1.0000 0.1397116236
H   H52       1.0  0.95510  0.19810  0.75700  1.0000 0.280003971
H   H53       1.0  0.45860  0.86480  0.59380  1.0000 0.1397116236
H   H54       1.0  0.41000  0.75420  0.65580  1.0000 0.1491576177
H   H55       1.0  0.58530  0.86440  0.72090  1.0000 0.1397116236
H   H56       1.0  0.55890  0.80190  0.75700  1.0000 0.280003971
H   H57       1.0  0.54140  0.13520  0.40620  1.0000 0.1397116236
H   H58       1.0  0.59000  0.24580  0.34420  1.0000 0.1491576177
H   H59       1.0  0.41470  0.13560  0.27910  1.0000 0.1397116236
H   H60       1.0  0.44110  0.19810  0.24300  1.0000 0.280003971
H   H61       1.0  0.27100  0.86480  0.40620  1.0000 0.1397116236
H   H62       1.0  0.09840  0.75420  0.34420  1.0000 0.1491576177
H   H63       1.0  0.14350  0.86440  0.27910  1.0000 0.1397116236
H   H64       1.0  0.04490  0.80190  0.24300  1.0000 0.280003971
H   H65       1.0  0.86480  0.59380  0.45860  1.0000 0.1397116236
H   H66       1.0  0.75420  0.65580  0.41000  1.0000 0.1491576177
H   H67       1.0  0.86440  0.72090  0.58530  1.0000 0.1397116236
H   H68       1.0  0.80190  0.75700  0.55890  1.0000 0.280003971
H   H69       1.0  0.13520  0.59380  0.72900  1.0000 0.1397116236
H   H70       1.0  0.24580  0.65580  0.90160  1.0000 0.1491576177
H   H71       1.0  0.13560  0.72090  0.85650  1.0000 0.1397116236
H   H72       1.0  0.19810  0.75700  0.95510  1.0000 0.280003971
H   H73       1.0  0.86480  0.40620  0.27100  1.0000 0.1397116236
H   H74       1.0  0.75420  0.34420  0.09840  1.0000 0.1491576177
H   H75       1.0  0.86440  0.27910  0.14350  1.0000 0.1397116236
H   H76       1.0  0.80190  0.24300  0.04490  1.0000 0.280003971
H   H77       1.0  0.13520  0.40620  0.54140  1.0000 0.1397116236
H   H78       1.0  0.24580  0.34420  0.59000  1.0000 0.1491576177
H   H79       1.0  0.13560  0.27910  0.41470  1.0000 0.1397116236
H   H80       1.0  0.19810  0.24300  0.44110  1.0000 0.280003971
H   H81       1.0  0.40620  0.27100  0.86480  1.0000 0.1397116236
H   H82       1.0  0.34420  0.09840  0.75420  1.0000 0.1491576177
H   H83       1.0  0.27910  0.14350  0.86440  1.0000 0.1397116236
H   H84       1.0  0.24300  0.04490  0.80190  1.0000 0.280003971
H   H85       1.0  0.40620  0.54140  0.13520  1.0000 0.1397116236
H   H86       1.0  0.34420  0.59000  0.24580  1.0000 0.1491576177
H   H87       1.0  0.27910  0.41470  0.13560  1.0000 0.1397116236
H   H88       1.0  0.24300  0.44110  0.19810  1.0000 0.280003971
H   H89       1.0  0.59380  0.45860  0.86480  1.0000 0.1397116236
H   H90       1.0  0.65580  0.41000  0.75420  1.0000 0.1491576177
H   H91       1.0  0.72090  0.58530  0.86440  1.0000 0.1397116236
H   H92       1.0  0.75700  0.55890  0.80190  1.0000 0.280003971
H   H93       1.0  0.59380  0.72900  0.13520  1.0000 0.1397116236
H   H94       1.0  0.65580  0.90160  0.24580  1.0000 0.1491576177
H   H95       1.0  0.72090  0.85650  0.13560  1.0000 0.1397116236
H   H96       1.0  0.75700  0.95510  0.19810  1.0000 0.280003971
C   C1        1.0  0.34160  0.91990  0.26150  1.0000 0.5820830811
C   C2        1.0  0.38050  0.84990  0.23040  1.0000 -0.0957804939
C   C3        1.0  0.42230  0.78280  0.20510  1.0000 0.5344456135
C   C4        1.0  0.38090  0.80620  0.18710  1.0000 0.0046142373
C   C5        1.0  0.34250  0.87220  0.21470  1.0000 -0.0105356342
C   C6        1.0  0.34360  0.78390  0.12750  1.0000 -0.1510790712
C   C7        1.0  0.30490  0.84970  0.15460  1.0000 -0.1935423568
C   C8        1.0  0.30490  0.80510  0.11000  1.0000 0.2290472536
C   C9        1.0  0.34160  0.08010  0.42170  1.0000 0.5820830811
C   C10       1.0  0.38050  0.15010  0.53060  1.0000 -0.0941677554
C   C11       1.0  0.42230  0.21720  0.63950  1.0000 0.5344456135
C   C12       1.0  0.38090  0.19380  0.57470  1.0000 0.0046142373
C   C13       1.0  0.34250  0.12780  0.47030  1.0000 -0.0105356342
C   C14       1.0  0.34360  0.21610  0.55970  1.0000 -0.1510790712
C   C15       1.0  0.30490  0.15030  0.45520  1.0000 -0.1935423568
C   C16       1.0  0.30490  0.19490  0.49980  1.0000 0.2290472536
C   C17       1.0  0.65840  0.91990  0.57830  1.0000 0.5820830811
C   C18       1.0  0.61950  0.84990  0.46940  1.0000 -0.0957804939
C   C19       1.0  0.57770  0.78280  0.36050  1.0000 0.5344456135
C   C20       1.0  0.61910  0.80620  0.42530  1.0000 0.0057571433
C   C21       1.0  0.65750  0.87220  0.52970  1.0000 -0.0105356342
C   C22       1.0  0.65640  0.78390  0.44030  1.0000 -0.1510790712
C   C23       1.0  0.69510  0.84970  0.54480  1.0000 -0.1935423568
C   C24       1.0  0.69510  0.80510  0.50020  1.0000 0.2290472536
C   C25       1.0  0.65840  0.08010  0.73850  1.0000 0.5820830811
C   C26       1.0  0.61950  0.15010  0.76960  1.0000 -0.0941677554
C   C27       1.0  0.57770  0.21720  0.79490  1.0000 0.5344456135
C   C28       1.0  0.61910  0.19380  0.81290  1.0000 0.0057571433
C   C29       1.0  0.65750  0.12780  0.78530  1.0000 -0.0105356342
C   C30       1.0  0.65640  0.21610  0.87250  1.0000 -0.1510790712
C   C31       1.0  0.69510  0.15030  0.84540  1.0000 -0.1935423568
C   C32       1.0  0.69510  0.19490  0.89000  1.0000 0.2290472536
C   C33       1.0  0.42170  0.34160  0.08010  1.0000 0.5820830811
C   C34       1.0  0.53060  0.38050  0.15010  1.0000 -0.0957804939
C   C35       1.0  0.63950  0.42230  0.21720  1.0000 0.5344456135
C   C36       1.0  0.57470  0.38090  0.19380  1.0000 0.0046142373
C   C37       1.0  0.47030  0.34250  0.12780  1.0000 -0.0105356342
C   C38       1.0  0.55970  0.34360  0.21610  1.0000 -0.1510790712
C   C39       1.0  0.45520  0.30490  0.15030  1.0000 -0.1935423568
C   C40       1.0  0.49980  0.30490  0.19490  1.0000 0.2290472536
C   C41       1.0  0.26150  0.34160  0.91990  1.0000 0.5820830811
C   C42       1.0  0.23040  0.38050  0.84990  1.0000 -0.0957804939
C   C43       1.0  0.20510  0.42230  0.78280  1.0000 0.5344456135
C   C44       1.0  0.18710  0.38090  0.80620  1.0000 0.0057571433
C   C45       1.0  0.21470  0.34250  0.87220  1.0000 -0.0105356342
C   C46       1.0  0.12750  0.34360  0.78390  1.0000 -0.1510790712
C   C47       1.0  0.15460  0.30490  0.84970  1.0000 -0.1935423568
C   C48       1.0  0.11000  0.30490  0.80510  1.0000 0.2290472536
C   C49       1.0  0.73850  0.65840  0.08010  1.0000 0.5820830811
C   C50       1.0  0.76960  0.61950  0.15010  1.0000 -0.0957804939
C   C51       1.0  0.79490  0.57770  0.21720  1.0000 0.5344456135
C   C52       1.0  0.81290  0.61910  0.19380  1.0000 0.0046142373
C   C53       1.0  0.78530  0.65750  0.12780  1.0000 -0.0105356342
C   C54       1.0  0.87250  0.65640  0.21610  1.0000 -0.1510790712
C   C55       1.0  0.84540  0.69510  0.15030  1.0000 -0.1950116208
C   C56       1.0  0.89000  0.69510  0.19490  1.0000 0.2290472536
C   C57       1.0  0.57830  0.65840  0.91990  1.0000 0.5820830811
C   C58       1.0  0.46940  0.61950  0.84990  1.0000 -0.0957804939
C   C59       1.0  0.36050  0.57770  0.78280  1.0000 0.5344456135
C   C60       1.0  0.42530  0.61910  0.80620  1.0000 0.0046142373
C   C61       1.0  0.52970  0.65750  0.87220  1.0000 -0.0105356342
C   C62       1.0  0.44030  0.65640  0.78390  1.0000 -0.1510790712
C   C63       1.0  0.54480  0.69510  0.84970  1.0000 -0.1935423568
C   C64       1.0  0.50020  0.69510  0.80510  1.0000 0.2290472536
C   C65       1.0  0.08010  0.73850  0.65840  1.0000 0.5820830811
C   C66       1.0  0.15010  0.76960  0.61950  1.0000 -0.0957804939
C   C67       1.0  0.21720  0.79490  0.57770  1.0000 0.5344456135
C   C68       1.0  0.19380  0.81290  0.61910  1.0000 0.0046142373
C   C69       1.0  0.12780  0.78530  0.65750  1.0000 -0.0105356342
C   C70       1.0  0.21610  0.87250  0.65640  1.0000 -0.1510790712
C   C71       1.0  0.15030  0.84540  0.69510  1.0000 -0.1935423568
C   C72       1.0  0.19490  0.89000  0.69510  1.0000 0.2290472536
C   C73       1.0  0.91990  0.57830  0.65840  1.0000 0.5820830811
C   C74       1.0  0.84990  0.46940  0.61950  1.0000 -0.0957804939
C   C75       1.0  0.78280  0.36050  0.57770  1.0000 0.5344456135
C   C76       1.0  0.80620  0.42530  0.61910  1.0000 0.0046142373
C   C77       1.0  0.87220  0.52970  0.65750  1.0000 -0.0105356342
C   C78       1.0  0.78390  0.44030  0.65640  1.0000 -0.1510790712
C   C79       1.0  0.84970  0.54480  0.69510  1.0000 -0.1935423568
C   C80       1.0  0.80510  0.50020  0.69510  1.0000 0.2290472536
C   C81       1.0  0.08010  0.42170  0.34160  1.0000 0.5820830811
C   C82       1.0  0.15010  0.53060  0.38050  1.0000 -0.0957804939
C   C83       1.0  0.21720  0.63950  0.42230  1.0000 0.5344456135
C   C84       1.0  0.19380  0.57470  0.38090  1.0000 0.0046142373
C   C85       1.0  0.12780  0.47030  0.34250  1.0000 -0.0105356342
C   C86       1.0  0.21610  0.55970  0.34360  1.0000 -0.1510790712
C   C87       1.0  0.15030  0.45520  0.30490  1.0000 -0.1935423568
C   C88       1.0  0.19490  0.49980  0.30490  1.0000 0.2290472536
C   C89       1.0  0.91990  0.26150  0.34160  1.0000 0.5820830811
C   C90       1.0  0.84990  0.23040  0.38050  1.0000 -0.0957804939
C   C91       1.0  0.78280  0.20510  0.42230  1.0000 0.5344456135
C   C92       1.0  0.80620  0.18710  0.38090  1.0000 0.0057571433
C   C93       1.0  0.87220  0.21470  0.34250  1.0000 -0.0105356342
C   C94       1.0  0.78390  0.12750  0.34360  1.0000 -0.1510790712
C   C95       1.0  0.84970  0.15460  0.30490  1.0000 -0.1935423568
C   C96       1.0  0.80510  0.11000  0.30490  1.0000 0.2290472536
C   C97       1.0  0.73850  0.08010  0.65840  1.0000 0.5820830811
C   C98       1.0  0.76960  0.15010  0.61950  1.0000 -0.0941677554
C   C99       1.0  0.79490  0.21720  0.57770  1.0000 0.5344456135
C   C100      1.0  0.81290  0.19380  0.61910  1.0000 0.0057571433
C   C101      1.0  0.78530  0.12780  0.65750  1.0000 -0.0105356342
C   C102      1.0  0.87250  0.21610  0.65640  1.0000 -0.1510790712
C   C103      1.0  0.84540  0.15030  0.69510  1.0000 -0.1935423568
C   C104      1.0  0.89000  0.19490  0.69510  1.0000 0.2290472536
C   C105      1.0  0.57830  0.91990  0.65840  1.0000 0.5820830811
C   C106      1.0  0.46940  0.84990  0.61950  1.0000 -0.0957804939
C   C107      1.0  0.36050  0.78280  0.57770  1.0000 0.5344456135
C   C108      1.0  0.42530  0.80620  0.61910  1.0000 0.0046142373
C   C109      1.0  0.52970  0.87220  0.65750  1.0000 -0.0105356342
C   C110      1.0  0.44030  0.78390  0.65640  1.0000 -0.1510790712
C   C111      1.0  0.54480  0.84970  0.69510  1.0000 -0.1935423568
C   C112      1.0  0.50020  0.80510  0.69510  1.0000 0.2290472536
C   C113      1.0  0.42170  0.08010  0.34160  1.0000 0.5820830811
C   C114      1.0  0.53060  0.15010  0.38050  1.0000 -0.0957804939
C   C115      1.0  0.63950  0.21720  0.42230  1.0000 0.5344456135
C   C116      1.0  0.57470  0.19380  0.38090  1.0000 0.0046142373
C   C117      1.0  0.47030  0.12780  0.34250  1.0000 -0.0105356342
C   C118      1.0  0.55970  0.21610  0.34360  1.0000 -0.1510790712
C   C119      1.0  0.45520  0.15030  0.30490  1.0000 -0.1935423568
C   C120      1.0  0.49980  0.19490  0.30490  1.0000 0.2290472536
C   C121      1.0  0.26150  0.91990  0.34160  1.0000 0.5820830811
C   C122      1.0  0.23040  0.84990  0.38050  1.0000 -0.0957804939
C   C123      1.0  0.20510  0.78280  0.42230  1.0000 0.5344456135
C   C124      1.0  0.18710  0.80620  0.38090  1.0000 0.0046142373
C   C125      1.0  0.21470  0.87220  0.34250  1.0000 -0.0105356342
C   C126      1.0  0.12750  0.78390  0.34360  1.0000 -0.1510790712
C   C127      1.0  0.15460  0.84970  0.30490  1.0000 -0.1935423568
C   C128      1.0  0.11000  0.80510  0.30490  1.0000 0.2290472536
C   C129      1.0  0.91990  0.65840  0.57830  1.0000 0.5820830811
C   C130      1.0  0.84990  0.61950  0.46940  1.0000 -0.0957804939
C   C131      1.0  0.78280  0.57770  0.36050  1.0000 0.5344456135
C   C132      1.0  0.80620  0.61910  0.42530  1.0000 0.0046142373
C   C133      1.0  0.87220  0.65750  0.52970  1.0000 -0.0105356342
C   C134      1.0  0.78390  0.65640  0.44030  1.0000 -0.1510790712
C   C135      1.0  0.84970  0.69510  0.54480  1.0000 -0.1935423568
C   C136      1.0  0.80510  0.69510  0.50020  1.0000 0.2290472536
C   C137      1.0  0.08010  0.65840  0.73850  1.0000 0.5820830811
C   C138      1.0  0.15010  0.61950  0.76960  1.0000 -0.0957804939
C   C139      1.0  0.21720  0.57770  0.79490  1.0000 0.5344456135
C   C140      1.0  0.19380  0.61910  0.81290  1.0000 0.0046142373
C   C141      1.0  0.12780  0.65750  0.78530  1.0000 -0.0105356342
C   C142      1.0  0.21610  0.65640  0.87250  1.0000 -0.1510790712
C   C143      1.0  0.15030  0.69510  0.84540  1.0000 -0.1935423568
C   C144      1.0  0.19490  0.69510  0.89000  1.0000 0.2290472536
C   C145      1.0  0.91990  0.34160  0.26150  1.0000 0.5820830811
C   C146      1.0  0.84990  0.38050  0.23040  1.0000 -0.0957804939
C   C147      1.0  0.78280  0.42230  0.20510  1.0000 0.5344456135
C   C148      1.0  0.80620  0.38090  0.18710  1.0000 0.0057571433
C   C149      1.0  0.87220  0.34250  0.21470  1.0000 -0.0105356342
C   C150      1.0  0.78390  0.34360  0.12750  1.0000 -0.1510790712
C   C151      1.0  0.84970  0.30490  0.15460  1.0000 -0.1935423568
C   C152      1.0  0.80510  0.30490  0.11000  1.0000 0.2290472536
C   C153      1.0  0.08010  0.34160  0.42170  1.0000 0.5820830811
C   C154      1.0  0.15010  0.38050  0.53060  1.0000 -0.0957804939
C   C155      1.0  0.21720  0.42230  0.63950  1.0000 0.5344456135
C   C156      1.0  0.19380  0.38090  0.57470  1.0000 0.0046142373
C   C157      1.0  0.12780  0.34250  0.47030  1.0000 -0.0105356342
C   C158      1.0  0.21610  0.34360  0.55970  1.0000 -0.1510790712
C   C159      1.0  0.15030  0.30490  0.45520  1.0000 -0.1935423568
C   C160      1.0  0.19490  0.30490  0.49980  1.0000 0.2290472536
C   C161      1.0  0.34160  0.26150  0.91990  1.0000 0.5820830811
C   C162      1.0  0.38050  0.23040  0.84990  1.0000 -0.0941677554
C   C163      1.0  0.42230  0.20510  0.78280  1.0000 0.5344456135
C   C164      1.0  0.38090  0.18710  0.80620  1.0000 0.0046142373
C   C165      1.0  0.34250  0.21470  0.87220  1.0000 -0.0105356342
C   C166      1.0  0.34360  0.12750  0.78390  1.0000 -0.1510790712
C   C167      1.0  0.30490  0.15460  0.84970  1.0000 -0.1935423568
C   C168      1.0  0.30490  0.11000  0.80510  1.0000 0.2290472536
C   C169      1.0  0.34160  0.42170  0.08010  1.0000 0.5820830811
C   C170      1.0  0.38050  0.53060  0.15010  1.0000 -0.0957804939
C   C171      1.0  0.42230  0.63950  0.21720  1.0000 0.5344456135
C   C172      1.0  0.38090  0.57470  0.19380  1.0000 0.0046142373
C   C173      1.0  0.34250  0.47030  0.12780  1.0000 -0.0105356342
C   C174      1.0  0.34360  0.55970  0.21610  1.0000 -0.1510790712
C   C175      1.0  0.30490  0.45520  0.15030  1.0000 -0.1935423568
C   C176      1.0  0.30490  0.49980  0.19490  1.0000 0.2290472536
C   C177      1.0  0.65840  0.57830  0.91990  1.0000 0.5820830811
C   C178      1.0  0.61950  0.46940  0.84990  1.0000 -0.0957804939
C   C179      1.0  0.57770  0.36050  0.78280  1.0000 0.5344456135
C   C180      1.0  0.61910  0.42530  0.80620  1.0000 0.0057571433
C   C181      1.0  0.65750  0.52970  0.87220  1.0000 -0.0105356342
C   C182      1.0  0.65640  0.44030  0.78390  1.0000 -0.1510790712
C   C183      1.0  0.69510  0.54480  0.84970  1.0000 -0.1935423568
C   C184      1.0  0.69510  0.50020  0.80510  1.0000 0.2290472536
C   C185      1.0  0.65840  0.73850  0.08010  1.0000 0.5820830811
C   C186      1.0  0.61950  0.76960  0.15010  1.0000 -0.0957804939
C   C187      1.0  0.57770  0.79490  0.21720  1.0000 0.5344456135
C   C188      1.0  0.61910  0.81290  0.19380  1.0000 0.0057571433
C   C189      1.0  0.65750  0.78530  0.12780  1.0000 -0.0105356342
C   C190      1.0  0.65640  0.87250  0.21610  1.0000 -0.1510790712
C   C191      1.0  0.69510  0.84540  0.15030  1.0000 -0.1950116208
C   C192      1.0  0.69510  0.89000  0.19490  1.0000 0.2290472536
C   C193      1.0  0.25680  0.74320  0.00000  1.0000 0.5631317505
C   C194      1.0  0.25680  0.25680  0.51360  1.0000 0.5631317505
C   C195      1.0  0.74320  0.74320  0.48640  1.0000 0.5631317505
C   C196      1.0  0.74320  0.25680  0.00000  1.0000 0.5631317505
C   C197      1.0  0.51360  0.25680  0.25680  1.0000 0.5650203475
C   C198      1.0  1.00000  0.25680  0.74320  1.0000 0.5631317505
C   C199      1.0  0.00000  0.74320  0.25680  1.0000 0.5631317505
C   C200      1.0  0.48640  0.74320  0.74320  1.0000 0.5631317505
C   C201      1.0  0.25680  1.00000  0.74320  1.0000 0.5631317505
C   C202      1.0  0.74320  0.48640  0.74320  1.0000 0.5631317505
C   C203      1.0  0.25680  0.51360  0.25680  1.0000 0.5631317505
C   C204      1.0  0.74320  0.00000  0.25680  1.0000 0.5650203475
N   N1        1.0  0.26490  0.78530  0.05020  1.0000 -0.4070660013
N   N2        1.0  0.26490  0.21470  0.47960  1.0000 -0.4070660013
N   N3        1.0  0.73510  0.78530  0.52040  1.0000 -0.4070660013
N   N4        1.0  0.73510  0.21470  0.94980  1.0000 -0.4070660013
N   N5        1.0  0.47960  0.26490  0.21470  1.0000 -0.4070660013
N   N6        1.0  0.05020  0.26490  0.78530  1.0000 -0.4070660013
N   N7        1.0  0.94980  0.73510  0.21470  1.0000 -0.4070660013
N   N8        1.0  0.52040  0.73510  0.78530  1.0000 -0.4070660013
N   N9        1.0  0.21470  0.94980  0.73510  1.0000 -0.4070660013
N   N10       1.0  0.78530  0.52040  0.73510  1.0000 -0.4070660013
N   N11       1.0  0.21470  0.47960  0.26490  1.0000 -0.4070660013
N   N12       1.0  0.78530  0.05020  0.26490  1.0000 -0.4070660013
N   N13       1.0  0.94980  0.21470  0.73510  1.0000 -0.4070660013
N   N14       1.0  0.52040  0.78530  0.73510  1.0000 -0.4070660013
N   N15       1.0  0.47960  0.21470  0.26490  1.0000 -0.4070660013
N   N16       1.0  0.05020  0.78530  0.26490  1.0000 -0.4070660013
N   N17       1.0  0.78530  0.73510  0.52040  1.0000 -0.4070660013
N   N18       1.0  0.21470  0.73510  0.94980  1.0000 -0.4070660013
N   N19       1.0  0.78530  0.26490  0.05020  1.0000 -0.4070660013
N   N20       1.0  0.21470  0.26490  0.47960  1.0000 -0.4070660013
N   N21       1.0  0.26490  0.05020  0.78530  1.0000 -0.4070660013
N   N22       1.0  0.26490  0.47960  0.21470  1.0000 -0.4070660013
N   N23       1.0  0.73510  0.52040  0.78530  1.0000 -0.4070660013
N   N24       1.0  0.73510  0.94980  0.21470  1.0000 -0.4070660013
O   O1        1.0  0.30599  0.93777  0.24376  1.0000 -0.5153633943
O   O2        1.0  0.42373  0.74373  0.16746  1.0000 -0.4975394107
O   O3        1.0  0.45604  0.80440  0.26044  1.0000 -0.4975394107
O   O4        1.0  0.37728  0.93807  0.31535  1.0000 -0.5119884065
O   O5        1.0  0.30599  0.06223  0.36822  1.0000 -0.5153633943
O   O6        1.0  0.42373  0.25627  0.68000  1.0000 -0.4975394107
O   O7        1.0  0.45604  0.19560  0.65164  1.0000 -0.4975394107
O   O8        1.0  0.37728  0.06193  0.43921  1.0000 -0.5119884065
O   O9        1.0  0.69401  0.93777  0.63178  1.0000 -0.5153633943
O   O10       1.0  0.57627  0.74373  0.32000  1.0000 -0.4947268119
O   O11       1.0  0.54396  0.80440  0.34836  1.0000 -0.4975394107
O   O12       1.0  0.62272  0.93807  0.56079  1.0000 -0.5119884065
O   O13       1.0  0.69401  0.06223  0.75624  1.0000 -0.5153633943
O   O14       1.0  0.57627  0.25627  0.83254  1.0000 -0.4975394107
O   O15       1.0  0.54396  0.19560  0.73956  1.0000 -0.4975394107
O   O16       1.0  0.62272  0.06193  0.68465  1.0000 -0.5119884065
O   O17       1.0  0.36822  0.30599  0.06223  1.0000 -0.5153633943
O   O18       1.0  0.68000  0.42373  0.25627  1.0000 -0.4975394107
O   O19       1.0  0.65164  0.45604  0.19560  1.0000 -0.4975394107
O   O20       1.0  0.43921  0.37728  0.06193  1.0000 -0.5119884065
O   O21       1.0  0.24376  0.30599  0.93777  1.0000 -0.5153633943
O   O22       1.0  0.16746  0.42373  0.74373  1.0000 -0.4975394107
O   O23       1.0  0.26044  0.45604  0.80440  1.0000 -0.4975394107
O   O24       1.0  0.31535  0.37728  0.93807  1.0000 -0.5119884065
O   O25       1.0  0.75624  0.69401  0.06223  1.0000 -0.5153633943
O   O26       1.0  0.83254  0.57627  0.25627  1.0000 -0.4975394107
O   O27       1.0  0.73956  0.54396  0.19560  1.0000 -0.4975394107
O   O28       1.0  0.68465  0.62272  0.06193  1.0000 -0.5119884065
O   O29       1.0  0.63178  0.69401  0.93777  1.0000 -0.5153633943
O   O30       1.0  0.32000  0.57627  0.74373  1.0000 -0.4975394107
O   O31       1.0  0.34836  0.54396  0.80440  1.0000 -0.4975394107
O   O32       1.0  0.56079  0.62272  0.93807  1.0000 -0.5119884065
O   O33       1.0  0.06223  0.75624  0.69401  1.0000 -0.5153633943
O   O34       1.0  0.25627  0.83254  0.57627  1.0000 -0.4975394107
O   O35       1.0  0.19560  0.73956  0.54396  1.0000 -0.4975394107
O   O36       1.0  0.06193  0.68465  0.62272  1.0000 -0.5119884065
O   O37       1.0  0.93777  0.63178  0.69401  1.0000 -0.5153633943
O   O38       1.0  0.74373  0.32000  0.57627  1.0000 -0.4975394107
O   O39       1.0  0.80440  0.34836  0.54396  1.0000 -0.4975394107
O   O40       1.0  0.93807  0.56079  0.62272  1.0000 -0.5119884065
O   O41       1.0  0.06223  0.36822  0.30599  1.0000 -0.5119884065
O   O42       1.0  0.25627  0.68000  0.42373  1.0000 -0.4975394107
O   O43       1.0  0.19560  0.65164  0.45604  1.0000 -0.4975394107
O   O44       1.0  0.06193  0.43921  0.37728  1.0000 -0.5119884065
O   O45       1.0  0.93777  0.24376  0.30599  1.0000 -0.5119884065
O   O46       1.0  0.74373  0.16746  0.42373  1.0000 -0.4975394107
O   O47       1.0  0.80440  0.26044  0.45604  1.0000 -0.4975394107
O   O48       1.0  0.93807  0.31535  0.37728  1.0000 -0.5119884065
O   O49       1.0  0.75624  0.06223  0.69401  1.0000 -0.5153633943
O   O50       1.0  0.83254  0.25627  0.57627  1.0000 -0.4975394107
O   O51       1.0  0.73956  0.19560  0.54396  1.0000 -0.4975394107
O   O52       1.0  0.68465  0.06193  0.62272  1.0000 -0.5119884065
O   O53       1.0  0.63178  0.93777  0.69401  1.0000 -0.5153633943
O   O54       1.0  0.32000  0.74373  0.57627  1.0000 -0.4975394107
O   O55       1.0  0.34836  0.80440  0.54396  1.0000 -0.4975394107
O   O56       1.0  0.56079  0.93807  0.62272  1.0000 -0.5119884065
O   O57       1.0  0.36822  0.06223  0.30599  1.0000 -0.5119884065
O   O58       1.0  0.68000  0.25627  0.42373  1.0000 -0.4975394107
O   O59       1.0  0.65164  0.19560  0.45604  1.0000 -0.4975394107
O   O60       1.0  0.43921  0.06193  0.37728  1.0000 -0.5119884065
O   O61       1.0  0.24376  0.93777  0.30599  1.0000 -0.5153633943
O   O62       1.0  0.16746  0.74373  0.42373  1.0000 -0.4975394107
O   O63       1.0  0.26044  0.80440  0.45604  1.0000 -0.4975394107
O   O64       1.0  0.31535  0.93807  0.37728  1.0000 -0.5119884065
O   O65       1.0  0.93777  0.69401  0.63178  1.0000 -0.5153633943
O   O66       1.0  0.74373  0.57627  0.32000  1.0000 -0.4947268119
O   O67       1.0  0.80440  0.54396  0.34836  1.0000 -0.4975394107
O   O68       1.0  0.93807  0.62272  0.56079  1.0000 -0.5119884065
O   O69       1.0  0.06223  0.69401  0.75624  1.0000 -0.5153633943
O   O70       1.0  0.25627  0.57627  0.83254  1.0000 -0.4975394107
O   O71       1.0  0.19560  0.54396  0.73956  1.0000 -0.4975394107
O   O72       1.0  0.06193  0.62272  0.68465  1.0000 -0.5119884065
O   O73       1.0  0.93777  0.30599  0.24376  1.0000 -0.5153633943
O   O74       1.0  0.74373  0.42373  0.16746  1.0000 -0.4975394107
O   O75       1.0  0.80440  0.45604  0.26044  1.0000 -0.4975394107
O   O76       1.0  0.93807  0.37728  0.31535  1.0000 -0.5119884065
O   O77       1.0  0.06223  0.30599  0.36822  1.0000 -0.5153633943
O   O78       1.0  0.25627  0.42373  0.68000  1.0000 -0.4975394107
O   O79       1.0  0.19560  0.45604  0.65164  1.0000 -0.4975394107
O   O80       1.0  0.06193  0.37728  0.43921  1.0000 -0.5119884065
O   O81       1.0  0.30599  0.24376  0.93777  1.0000 -0.5153633943
O   O82       1.0  0.42373  0.16746  0.74373  1.0000 -0.4975394107
O   O83       1.0  0.45604  0.26044  0.80440  1.0000 -0.4975394107
O   O84       1.0  0.37728  0.31535  0.93807  1.0000 -0.5119884065
O   O85       1.0  0.30599  0.36822  0.06223  1.0000 -0.5153633943
O   O86       1.0  0.42373  0.68000  0.25627  1.0000 -0.4975394107
O   O87       1.0  0.45604  0.65164  0.19560  1.0000 -0.4975394107
O   O88       1.0  0.37728  0.43921  0.06193  1.0000 -0.5119884065
O   O89       1.0  0.69401  0.63178  0.93777  1.0000 -0.5153633943
O   O90       1.0  0.57627  0.32000  0.74373  1.0000 -0.4975394107
O   O91       1.0  0.54396  0.34836  0.80440  1.0000 -0.4975394107
O   O92       1.0  0.62272  0.56079  0.93807  1.0000 -0.5119884065
O   O93       1.0  0.69401  0.75624  0.06223  1.0000 -0.5119884065
O   O94       1.0  0.57627  0.83254  0.25627  1.0000 -0.4975394107
O   O95       1.0  0.54396  0.73956  0.19560  1.0000 -0.4975394107
O   O96       1.0  0.62272  0.68465  0.06193  1.0000 -0.5119884065
O   O97       1.0  0.28250  0.71750  0.00000  1.0000 -0.4396734646
O   O98       1.0  0.28250  0.28250  0.56500  1.0000 -0.4396734646
O   O99       1.0  0.71750  0.71750  0.43500  1.0000 -0.4450881532
O   O100      1.0  0.71750  0.28250  0.00000  1.0000 -0.4450881532
O   O101      1.0  0.56500  0.28250  0.28250  1.0000 -0.4396734646
O   O102      1.0  0.00000  0.28250  0.71750  1.0000 -0.4396734646
O   O103      1.0  0.00000  0.71750  0.28250  1.0000 -0.4396734646
O   O104      1.0  0.43500  0.71750  0.71750  1.0000 -0.4396734646
O   O105      1.0  0.28250  0.00000  0.71750  1.0000 -0.4396734646
O   O106      1.0  0.71750  0.43500  0.71750  1.0000 -0.4396734646
O   O107      1.0  0.28250  0.56500  0.28250  1.0000 -0.4396734646
O   O108      1.0  0.71750  0.00000  0.28250  1.0000 -0.4396734646
