# DDEC6 charges by PACMAN v1.1 (https://github.com/mtap-research/PACMAN-charge/)
data_2019[Cd][pcu]3[ASR]1
_chemical_formula_sum              "Cd8 H160 C256 N32 O32"
_cell_length_a       15.4187
_cell_length_b       15.7341
_cell_length_c       25.25
_cell_angle_alpha    90
_cell_angle_beta     97.727
_cell_angle_gamma    90

_symmetry_space_group_name_H-M    "P 1"
_symmetry_Int_Tables_number       1

loop_
  _symmetry_equiv_pos_as_xyz
  'x, y, z'

loop_
  _atom_site_type_symbol
  _atom_site_label
  _atom_site_symmetry_multiplicity
  _atom_site_fract_x
  _atom_site_fract_y
  _atom_site_fract_z
  _atom_site_occupancy
  _atom_site_charge
Cd  Cd1       1.0  0.75791  0.41704  0.83770  1.0000 0.8880283616
Cd  Cd2       1.0  0.72715  0.40609  0.69484  1.0000 0.9084917239
Cd  Cd3       1.0  0.24209  0.91704  0.66230  1.0000 0.8880283616
Cd  Cd4       1.0  0.27285  0.90609  0.80516  1.0000 0.9084917239
Cd  Cd5       1.0  0.24209  0.58296  0.16230  1.0000 0.8880283616
Cd  Cd6       1.0  0.27285  0.59391  0.30516  1.0000 0.9084917239
Cd  Cd7       1.0  0.75791  0.08296  0.33770  1.0000 0.8880283616
Cd  Cd8       1.0  0.72715  0.09391  0.19484  1.0000 0.9084917239
H   H1        1.0  0.55470  0.04230  0.73900  1.0000 0.119933502
H   H2        1.0  0.65250  0.15240  0.75930  1.0000 0.1105806564
H   H3        1.0  0.28450  0.16150  0.75230  1.0000 0.119933502
H   H4        1.0  0.07270  0.37090  0.39140  1.0000 0.119933502
H   H5        1.0  0.16920  0.28010  0.35800  1.0000 0.1105806564
H   H6        1.0  0.85680  0.69800  0.80190  1.0000 0.119933502
H   H7        1.0  0.66080  0.39260  0.94730  1.0000 0.119933502
H   H8        1.0  0.65880  0.35810  0.04670  1.0000 0.1391955323
H   H9        1.0  0.49130  0.57940  0.09790  1.0000 0.1105806564
H   H10       1.0  0.83000  0.39580  0.58350  1.0000 0.1105806564
H   H11       1.0  0.81900  0.36380  0.48110  1.0000 0.1288877854
H   H12       1.0  0.58590  0.60310  0.03610  1.0000 0.1288877854
H   H13       1.0  0.68980  0.27320  0.13100  1.0000 0.1105806564
H   H14       1.0  0.77800  0.27160  0.40140  1.0000 0.1105806564
H   H15       1.0  0.47780  0.44600  0.13390  1.0000 0.1288877854
H   H16       1.0  0.48230  0.37760  0.80330  1.0000 0.1105806564
H   H17       1.0  0.99110  0.46400  0.73810  1.0000 0.119933502
H   H18       1.0  0.74800  0.64100  0.05470  1.0000 0.1288877854
H   H19       1.0  0.37810  0.32920  0.10060  1.0000 0.1288877854
H   H20       1.0  0.85400  0.59860  0.89070  1.0000 0.1391955323
H   H21       1.0  0.33530  0.09640  0.15600  1.0000 0.1105806564
H   H22       1.0  0.63530  0.59110  0.64870  1.0000 0.1288877854
H   H23       1.0  0.95730  0.59710  0.41880  1.0000 0.1105806564
H   H24       1.0  0.62390  0.73090  0.51500  1.0000 0.1105806564
H   H25       1.0  0.48370  0.06740  0.17110  1.0000 0.1391955323
H   H26       1.0  0.88160  0.61110  0.49120  1.0000 0.119933502
H   H27       1.0  0.96500  0.80220  0.81020  1.0000 0.119933502
H   H28       1.0  0.89550  0.71560  0.94370  1.0000 0.1105806564
H   H29       1.0  0.72100  0.64250  0.48020  1.0000 0.119933502
H   H30       1.0  0.84650  0.73400  0.02460  1.0000 0.1013913898
H   H31       1.0  0.58590  0.70890  0.59930  1.0000 0.1105806564
H   H32       1.0  0.98670  0.09630  0.33400  1.0000 0.1391955323
H   H33       1.0  0.12860  0.43450  0.71970  1.0000 0.1013913898
H   H34       1.0  0.23460  0.54000  0.72550  1.0000 0.1105806564
H   H35       1.0  0.96250  0.46780  0.37610  1.0000 0.119933502
H   H36       1.0  0.20460  0.67300  0.75260  1.0000 0.119933502
H   H37       1.0  0.23700  0.29150  0.77550  1.0000 0.1013913898
H   H38       1.0  0.12810  0.14410  0.33100  1.0000 0.1105806564
H   H39       1.0  0.33590  0.39950  0.80170  1.0000 0.1105806564
H   H40       1.0  0.28410  0.22500  0.12250  1.0000 0.1105806564
H   H41       1.0  0.44530  0.54230  0.76100  1.0000 0.119933502
H   H42       1.0  0.34750  0.65240  0.74070  1.0000 0.1105806564
H   H43       1.0  0.71550  0.66150  0.74770  1.0000 0.119933502
H   H44       1.0  0.92730  0.87090  0.10860  1.0000 0.119933502
H   H45       1.0  0.83080  0.78010  0.14200  1.0000 0.1105806564
H   H46       1.0  0.14320  0.19800  0.69810  1.0000 0.119933502
H   H47       1.0  0.33920  0.89260  0.55270  1.0000 0.119933502
H   H48       1.0  0.34120  0.85810  0.45330  1.0000 0.1391955323
H   H49       1.0  0.50870  0.07940  0.40210  1.0000 0.1105806564
H   H50       1.0  0.17000  0.89580  0.91650  1.0000 0.1105806564
H   H51       1.0  0.18100  0.86380  0.01890  1.0000 0.1288877854
H   H52       1.0  0.41410  0.10310  0.46390  1.0000 0.1288877854
H   H53       1.0  0.31020  0.77320  0.36900  1.0000 0.1105806564
H   H54       1.0  0.22200  0.77160  0.09860  1.0000 0.1105806564
H   H55       1.0  0.52220  0.94600  0.36610  1.0000 0.1288877854
H   H56       1.0  0.51770  0.87760  0.69670  1.0000 0.1105806564
H   H57       1.0  0.00890  0.96400  0.76190  1.0000 0.119933502
H   H58       1.0  0.25200  0.14100  0.44530  1.0000 0.1288877854
H   H59       1.0  0.62190  0.82920  0.39940  1.0000 0.1288877854
H   H60       1.0  0.14600  0.09860  0.60930  1.0000 0.1391955323
H   H61       1.0  0.66470  0.59640  0.34400  1.0000 0.1105806564
H   H62       1.0  0.36470  0.09110  0.85130  1.0000 0.1288877854
H   H63       1.0  0.04270  0.09710  0.08120  1.0000 0.1105806564
H   H64       1.0  0.37610  0.23090  0.98500  1.0000 0.1105806564
H   H65       1.0  0.51630  0.56740  0.32890  1.0000 0.1391955323
H   H66       1.0  0.11840  0.11110  0.00880  1.0000 0.119933502
H   H67       1.0  0.03500  0.30220  0.68980  1.0000 0.119933502
H   H68       1.0  0.10450  0.21560  0.55630  1.0000 0.1105806564
H   H69       1.0  0.27900  0.14250  0.01980  1.0000 0.119933502
H   H70       1.0  0.15350  0.23400  0.47540  1.0000 0.1013913898
H   H71       1.0  0.41410  0.20890  0.90070  1.0000 0.1105806564
H   H72       1.0  0.01330  0.59630  0.16600  1.0000 0.1391955323
H   H73       1.0  0.87140  0.93450  0.78030  1.0000 0.1013913898
H   H74       1.0  0.76540  0.04000  0.77450  1.0000 0.1105806564
H   H75       1.0  0.03750  0.96780  0.12390  1.0000 0.119933502
H   H76       1.0  0.79540  0.17300  0.74740  1.0000 0.119933502
H   H77       1.0  0.76300  0.79150  0.72450  1.0000 0.1013913898
H   H78       1.0  0.87190  0.64410  0.16900  1.0000 0.1105806564
H   H79       1.0  0.66410  0.89950  0.69830  1.0000 0.1105806564
H   H80       1.0  0.71590  0.72500  0.37750  1.0000 0.1105806564
H   H81       1.0  0.44530  0.95770  0.26100  1.0000 0.119933502
H   H82       1.0  0.34750  0.84760  0.24070  1.0000 0.1105806564
H   H83       1.0  0.71550  0.83850  0.24770  1.0000 0.119933502
H   H84       1.0  0.92730  0.62910  0.60860  1.0000 0.119933502
H   H85       1.0  0.83080  0.71990  0.64200  1.0000 0.1105806564
H   H86       1.0  0.14320  0.30200  0.19810  1.0000 0.119933502
H   H87       1.0  0.33920  0.60740  0.05270  1.0000 0.119933502
H   H88       1.0  0.34120  0.64190  0.95330  1.0000 0.1391955323
H   H89       1.0  0.50870  0.42060  0.90210  1.0000 0.1105806564
H   H90       1.0  0.17000  0.60420  0.41650  1.0000 0.1105806564
H   H91       1.0  0.18100  0.63620  0.51890  1.0000 0.1288877854
H   H92       1.0  0.41410  0.39690  0.96390  1.0000 0.1288877854
H   H93       1.0  0.31020  0.72680  0.86900  1.0000 0.1105806564
H   H94       1.0  0.22200  0.72840  0.59860  1.0000 0.1105806564
H   H95       1.0  0.52220  0.55400  0.86610  1.0000 0.1288877854
H   H96       1.0  0.51770  0.62240  0.19670  1.0000 0.1105806564
H   H97       1.0  0.00890  0.53600  0.26190  1.0000 0.119933502
H   H98       1.0  0.25200  0.35900  0.94530  1.0000 0.1288877854
H   H99       1.0  0.62190  0.67080  0.89940  1.0000 0.1288877854
H   H100      1.0  0.14600  0.40140  0.10930  1.0000 0.1391955323
H   H101      1.0  0.66470  0.90360  0.84400  1.0000 0.1105806564
H   H102      1.0  0.36470  0.40890  0.35130  1.0000 0.1288877854
H   H103      1.0  0.04270  0.40290  0.58120  1.0000 0.1105806564
H   H104      1.0  0.37610  0.26910  0.48500  1.0000 0.1105806564
H   H105      1.0  0.51630  0.93260  0.82890  1.0000 0.1391955323
H   H106      1.0  0.11840  0.38890  0.50880  1.0000 0.119933502
H   H107      1.0  0.03500  0.19780  0.18980  1.0000 0.119933502
H   H108      1.0  0.10450  0.28440  0.05630  1.0000 0.1105806564
H   H109      1.0  0.27900  0.35750  0.51980  1.0000 0.119933502
H   H110      1.0  0.15350  0.26600  0.97540  1.0000 0.1013913898
H   H111      1.0  0.41410  0.29110  0.40070  1.0000 0.1105806564
H   H112      1.0  0.01330  0.90370  0.66600  1.0000 0.1391955323
H   H113      1.0  0.87140  0.56550  0.28030  1.0000 0.1013913898
H   H114      1.0  0.76540  0.46000  0.27450  1.0000 0.1105806564
H   H115      1.0  0.03750  0.53220  0.62390  1.0000 0.119933502
H   H116      1.0  0.79540  0.32700  0.24740  1.0000 0.119933502
H   H117      1.0  0.76300  0.70850  0.22450  1.0000 0.1013913898
H   H118      1.0  0.87190  0.85590  0.66900  1.0000 0.1105806564
H   H119      1.0  0.66410  0.60050  0.19830  1.0000 0.1105806564
H   H120      1.0  0.71590  0.77500  0.87750  1.0000 0.1105806564
H   H121      1.0  0.55470  0.45770  0.23900  1.0000 0.119933502
H   H122      1.0  0.65250  0.34760  0.25930  1.0000 0.1105806564
H   H123      1.0  0.28450  0.33850  0.25230  1.0000 0.119933502
H   H124      1.0  0.07270  0.12910  0.89140  1.0000 0.119933502
H   H125      1.0  0.16920  0.21990  0.85800  1.0000 0.1105806564
H   H126      1.0  0.85680  0.80200  0.30190  1.0000 0.119933502
H   H127      1.0  0.66080  0.10740  0.44730  1.0000 0.119933502
H   H128      1.0  0.65880  0.14190  0.54670  1.0000 0.1391955323
H   H129      1.0  0.49130  0.92060  0.59790  1.0000 0.1105806564
H   H130      1.0  0.83000  0.10420  0.08350  1.0000 0.1105806564
H   H131      1.0  0.81900  0.13620  0.98110  1.0000 0.1288877854
H   H132      1.0  0.58590  0.89690  0.53610  1.0000 0.1288877854
H   H133      1.0  0.68980  0.22680  0.63100  1.0000 0.1105806564
H   H134      1.0  0.77800  0.22840  0.90140  1.0000 0.1105806564
H   H135      1.0  0.47780  0.05400  0.63390  1.0000 0.1288877854
H   H136      1.0  0.48230  0.12240  0.30330  1.0000 0.1105806564
H   H137      1.0  0.99110  0.03600  0.23810  1.0000 0.119933502
H   H138      1.0  0.74800  0.85900  0.55470  1.0000 0.1288877854
H   H139      1.0  0.37810  0.17080  0.60060  1.0000 0.1288877854
H   H140      1.0  0.85400  0.90140  0.39070  1.0000 0.1391955323
H   H141      1.0  0.33530  0.40360  0.65600  1.0000 0.1105806564
H   H142      1.0  0.63530  0.90890  0.14870  1.0000 0.1288877854
H   H143      1.0  0.95730  0.90290  0.91880  1.0000 0.1105806564
H   H144      1.0  0.62390  0.76910  0.01500  1.0000 0.1105806564
H   H145      1.0  0.48370  0.43260  0.67110  1.0000 0.1391955323
H   H146      1.0  0.88160  0.88890  0.99120  1.0000 0.119933502
H   H147      1.0  0.96500  0.69780  0.31020  1.0000 0.119933502
H   H148      1.0  0.89550  0.78440  0.44370  1.0000 0.1105806564
H   H149      1.0  0.72100  0.85750  0.98020  1.0000 0.119933502
H   H150      1.0  0.84650  0.76600  0.52460  1.0000 0.1013913898
H   H151      1.0  0.58590  0.79110  0.09930  1.0000 0.1105806564
H   H152      1.0  0.98670  0.40370  0.83400  1.0000 0.1391955323
H   H153      1.0  0.12860  0.06550  0.21970  1.0000 0.1013913898
H   H154      1.0  0.23460  0.96000  0.22550  1.0000 0.1105806564
H   H155      1.0  0.96250  0.03220  0.87610  1.0000 0.119933502
H   H156      1.0  0.20460  0.82700  0.25260  1.0000 0.119933502
H   H157      1.0  0.23700  0.20850  0.27550  1.0000 0.1013913898
H   H158      1.0  0.12810  0.35590  0.83100  1.0000 0.1105806564
H   H159      1.0  0.33590  0.10050  0.30170  1.0000 0.1105806564
H   H160      1.0  0.28410  0.27500  0.62250  1.0000 0.1105806564
C   C1        1.0  0.44645  0.10703  0.74909  1.0000 -0.0495539431
C   C2        1.0  0.53430  0.09502  0.74844  1.0000 -0.1412565813
C   C3        1.0  0.59360  0.16110  0.76181  1.0000 -0.1209746345
C   C4        1.0  0.41540  0.18795  0.76275  1.0000 0.0507095799
C   C5        1.0  0.32500  0.20440  0.76229  1.0000 -0.1307737894
C   C6        1.0  0.97110  0.28670  0.38223  1.0000 0.0902083027
C   C7        1.0  0.05570  0.31650  0.38002  1.0000 -0.1907089712
C   C8        1.0  0.11240  0.26210  0.36034  1.0000 -0.1021889139
C   C9        1.0  0.63530  0.30183  0.79980  1.0000 0.5589831851
C   C10       1.0  0.86006  0.53864  0.77191  1.0000 0.5816366456
C   C11       1.0  0.47625  0.25409  0.77874  1.0000 0.0603633779
C   C12       1.0  0.01260  0.58800  0.75959  1.0000 0.0603633779
C   C13       1.0  0.77450  0.54974  0.94148  1.0000 0.1391955323
C   C14       1.0  0.91180  0.68570  0.79261  1.0000 -0.1209746345
C   C15       1.0  0.38420  0.03266  0.73879  1.0000 0.5743995838
C   C16       1.0  0.69130  0.44360  0.95262  1.0000 0.119933502
C   C17       1.0  0.56700  0.23812  0.77845  1.0000 -0.0495539431
C   C18       1.0  0.62490  0.40260  0.05692  1.0000 -0.271305836
C   C19       1.0  0.52480  0.53470  0.08749  1.0000 -0.0684929893
C   C20       1.0  0.79690  0.44540  0.57968  1.0000 0.119933502
C   C21       1.0  0.92870  0.60720  0.77403  1.0000 -0.0495539431
C   C22       1.0  0.84180  0.48940  0.49184  1.0000 0.1811279028
C   C23       1.0  0.84630  0.41080  0.46824  1.0000 -0.271305836
C   C24       1.0  0.89240  0.40340  0.42492  1.0000 0.1811279028
C   C25       1.0  0.58140  0.54930  0.05068  1.0000 -0.1907089712
C   C26       1.0  0.71060  0.54660  0.59427  1.0000 0.1391955323
C   C27       1.0  0.63240  0.25620  0.13220  1.0000 0.1288877854
C   C28       1.0  0.83390  0.26300  0.39248  1.0000 0.1288877854
C   C29       1.0  0.63150  0.48290  0.03563  1.0000 0.1811279028
C   C30       1.0  0.51660  0.45520  0.10926  1.0000 -0.1907089712
C   C31       1.0  0.74180  0.56400  0.98971  1.0000 0.0902083027
C   C32       1.0  0.44350  0.33360  0.79300  1.0000 -0.1307737894
C   C33       1.0  0.94540  0.20530  0.36474  1.0000 0.1391955323
C   C34       1.0  0.52030  0.18190  0.14492  1.0000 0.1456504993
C   C35       1.0  0.03360  0.50640  0.74190  1.0000 -0.1412565813
C   C36       1.0  0.76850  0.63260  0.02215  1.0000 -0.1907089712
C   C37       1.0  0.56710  0.38930  0.09373  1.0000 0.185799592
C   C38       1.0  0.39920  0.27750  0.11479  1.0000 -0.1834220059
C   C39       1.0  0.73720  0.56380  0.54474  1.0000 0.0902083027
C   C40       1.0  0.83280  0.60680  0.92310  1.0000 -0.1565831371
C   C41       1.0  0.37510  0.13740  0.14815  1.0000 -0.1073982864
C   C42       1.0  0.65290  0.60130  0.61546  1.0000 -0.1510424011
C   C43       1.0  0.92910  0.55030  0.43101  1.0000 -0.0684929893
C   C44       1.0  0.64740  0.68460  0.53490  1.0000 -0.1021889139
C   C45       1.0  0.46330  0.11950  0.15721  1.0000 -0.1510424011
C   C46       1.0  0.88380  0.55880  0.47418  1.0000 -0.1907089712
C   C47       1.0  0.97750  0.74850  0.79777  1.0000 -0.1307737894
C   C48       1.0  0.07820  0.65190  0.76493  1.0000 0.0603633779
C   C49       1.0  0.85740  0.67570  0.95503  1.0000 -0.1209746345
C   C50       1.0  0.70460  0.63250  0.51381  1.0000 -0.1907089712
C   C51       1.0  0.48840  0.26010  0.12402  1.0000 0.1013913898
C   C52       1.0  0.82680  0.68740  0.00376  1.0000 -0.1021889139
C   C53       1.0  0.62310  0.67050  0.58560  1.0000 -0.1073982864
C   C54       1.0  0.00350  0.15080  0.34542  1.0000 -0.1412565813
C   C55       1.0  0.11520  0.48900  0.73040  1.0000 -0.1073982864
C   C56       1.0  0.17930  0.55240  0.73430  1.0000 -0.1073982864
C   C57       1.0  0.93300  0.47300  0.40572  1.0000 -0.1907089712
C   C58       1.0  0.16150  0.63130  0.75060  1.0000 -0.1412565813
C   C59       1.0  0.29670  0.28170  0.77629  1.0000 -0.1021889139
C   C60       1.0  0.05870  0.73240  0.78491  1.0000 -0.0495539431
C   C61       1.0  0.13070  0.79770  0.79460  1.0000 0.5199612759
C   C62       1.0  0.08730  0.17980  0.34360  1.0000 -0.1209746345
C   C63       1.0  0.35610  0.34690  0.79194  1.0000 -0.1073982864
C   C64       1.0  0.34410  0.21510  0.12764  1.0000 -0.1073982864
C   C65       1.0  0.55355  0.60703  0.75091  1.0000 -0.0495539431
C   C66       1.0  0.46570  0.59502  0.75156  1.0000 -0.1412565813
C   C67       1.0  0.40640  0.66110  0.73819  1.0000 -0.1209746345
C   C68       1.0  0.58460  0.68795  0.73725  1.0000 0.0507095799
C   C69       1.0  0.67500  0.70440  0.73771  1.0000 -0.1307737894
C   C70       1.0  0.02890  0.78670  0.11777  1.0000 0.0902083027
C   C71       1.0  0.94430  0.81650  0.11998  1.0000 -0.1907089712
C   C72       1.0  0.88760  0.76210  0.13966  1.0000 -0.1021889139
C   C73       1.0  0.36470  0.80183  0.70020  1.0000 0.5589831851
C   C74       1.0  0.13994  0.03864  0.72809  1.0000 0.5816366456
C   C75       1.0  0.52375  0.75409  0.72126  1.0000 0.0603633779
C   C76       1.0  0.98740  0.08800  0.74041  1.0000 0.0603633779
C   C77       1.0  0.22550  0.04974  0.55852  1.0000 0.1391955323
C   C78       1.0  0.08820  0.18570  0.70739  1.0000 -0.1209746345
C   C79       1.0  0.61580  0.53266  0.76121  1.0000 0.5743995838
C   C80       1.0  0.30870  0.94360  0.54738  1.0000 0.119933502
C   C81       1.0  0.43300  0.73812  0.72155  1.0000 -0.0495539431
C   C82       1.0  0.37510  0.90260  0.44308  1.0000 -0.271305836
C   C83       1.0  0.47520  0.03470  0.41251  1.0000 -0.0684929893
C   C84       1.0  0.20310  0.94540  0.92032  1.0000 0.119933502
C   C85       1.0  0.07130  0.10720  0.72597  1.0000 -0.0495539431
C   C86       1.0  0.15820  0.98940  0.00816  1.0000 0.1811279028
C   C87       1.0  0.15370  0.91080  0.03176  1.0000 -0.271305836
C   C88       1.0  0.10760  0.90340  0.07508  1.0000 0.1811279028
C   C89       1.0  0.41860  0.04930  0.44932  1.0000 -0.1907089712
C   C90       1.0  0.28940  0.04660  0.90573  1.0000 0.1391955323
C   C91       1.0  0.36760  0.75620  0.36780  1.0000 0.1288877854
C   C92       1.0  0.16610  0.76300  0.10752  1.0000 0.1288877854
C   C93       1.0  0.36850  0.98290  0.46437  1.0000 0.1811279028
C   C94       1.0  0.48340  0.95520  0.39074  1.0000 -0.1907089712
C   C95       1.0  0.25820  0.06400  0.51029  1.0000 0.0902083027
C   C96       1.0  0.55650  0.83360  0.70700  1.0000 -0.1307737894
C   C97       1.0  0.05460  0.70530  0.13526  1.0000 0.1391955323
C   C98       1.0  0.47970  0.68190  0.35508  1.0000 0.1456504993
C   C99       1.0  0.96640  0.00640  0.75810  1.0000 -0.1412565813
C   C100      1.0  0.23150  0.13260  0.47785  1.0000 -0.1907089712
C   C101      1.0  0.43290  0.88930  0.40627  1.0000 0.185799592
C   C102      1.0  0.60080  0.77750  0.38521  1.0000 -0.1834220059
C   C103      1.0  0.26280  0.06380  0.95526  1.0000 0.0902083027
C   C104      1.0  0.16720  0.10680  0.57690  1.0000 -0.1565831371
C   C105      1.0  0.62490  0.63740  0.35185  1.0000 -0.1073982864
C   C106      1.0  0.34710  0.10130  0.88454  1.0000 -0.1510424011
C   C107      1.0  0.07090  0.05030  0.06899  1.0000 -0.0684929893
C   C108      1.0  0.35260  0.18460  0.96510  1.0000 -0.1021889139
C   C109      1.0  0.53670  0.61950  0.34279  1.0000 -0.1510424011
C   C110      1.0  0.11620  0.05880  0.02582  1.0000 -0.1907089712
C   C111      1.0  0.02250  0.24850  0.70223  1.0000 -0.1307737894
C   C112      1.0  0.92180  0.15190  0.73507  1.0000 0.0603633779
C   C113      1.0  0.14260  0.17570  0.54497  1.0000 -0.1209746345
C   C114      1.0  0.29540  0.13250  0.98619  1.0000 -0.1907089712
C   C115      1.0  0.51160  0.76010  0.37598  1.0000 0.1013913898
C   C116      1.0  0.17320  0.18740  0.49624  1.0000 -0.1021889139
C   C117      1.0  0.37690  0.17050  0.91440  1.0000 -0.1073982864
C   C118      1.0  0.99650  0.65080  0.15458  1.0000 -0.1412565813
C   C119      1.0  0.88480  0.98900  0.76960  1.0000 -0.1073982864
C   C120      1.0  0.82070  0.05240  0.76570  1.0000 -0.1021889139
C   C121      1.0  0.06700  0.97300  0.09428  1.0000 -0.1907089712
C   C122      1.0  0.83850  0.13130  0.74940  1.0000 -0.1412565813
C   C123      1.0  0.70330  0.78170  0.72371  1.0000 -0.1021889139
C   C124      1.0  0.94130  0.23240  0.71509  1.0000 -0.0495539431
C   C125      1.0  0.86930  0.29770  0.70540  1.0000 0.5199612759
C   C126      1.0  0.91270  0.67980  0.15640  1.0000 -0.1209746345
C   C127      1.0  0.64390  0.84690  0.70806  1.0000 -0.1073982864
C   C128      1.0  0.65590  0.71510  0.37236  1.0000 -0.1073982864
C   C129      1.0  0.55355  0.89297  0.25091  1.0000 -0.0495539431
C   C130      1.0  0.46570  0.90498  0.25156  1.0000 -0.1412565813
C   C131      1.0  0.40640  0.83890  0.23819  1.0000 -0.1209746345
C   C132      1.0  0.58460  0.81205  0.23725  1.0000 0.0507095799
C   C133      1.0  0.67500  0.79560  0.23771  1.0000 -0.1307737894
C   C134      1.0  0.02890  0.71330  0.61777  1.0000 0.0902083027
C   C135      1.0  0.94430  0.68350  0.61998  1.0000 -0.1907089712
C   C136      1.0  0.88760  0.73790  0.63966  1.0000 -0.1021889139
C   C137      1.0  0.36470  0.69817  0.20020  1.0000 0.5589831851
C   C138      1.0  0.13994  0.46136  0.22809  1.0000 0.5816366456
C   C139      1.0  0.52375  0.74591  0.22126  1.0000 0.0603633779
C   C140      1.0  0.98740  0.41200  0.24041  1.0000 0.0603633779
C   C141      1.0  0.22550  0.45026  0.05852  1.0000 0.1391955323
C   C142      1.0  0.08820  0.31430  0.20739  1.0000 -0.1209746345
C   C143      1.0  0.61580  0.96734  0.26121  1.0000 0.5743995838
C   C144      1.0  0.30870  0.55640  0.04738  1.0000 0.119933502
C   C145      1.0  0.43300  0.76188  0.22155  1.0000 -0.0495539431
C   C146      1.0  0.37510  0.59740  0.94308  1.0000 -0.271305836
C   C147      1.0  0.47520  0.46530  0.91251  1.0000 -0.0684929893
C   C148      1.0  0.20310  0.55460  0.42032  1.0000 0.119933502
C   C149      1.0  0.07130  0.39280  0.22597  1.0000 -0.0495539431
C   C150      1.0  0.15820  0.51060  0.50816  1.0000 0.1811279028
C   C151      1.0  0.15370  0.58920  0.53176  1.0000 -0.271305836
C   C152      1.0  0.10760  0.59660  0.57508  1.0000 0.1811279028
C   C153      1.0  0.41860  0.45070  0.94932  1.0000 -0.1907089712
C   C154      1.0  0.28940  0.45340  0.40573  1.0000 0.1391955323
C   C155      1.0  0.36760  0.74380  0.86780  1.0000 0.1288877854
C   C156      1.0  0.16610  0.73700  0.60752  1.0000 0.1288877854
C   C157      1.0  0.36850  0.51710  0.96437  1.0000 0.1811279028
C   C158      1.0  0.48340  0.54480  0.89074  1.0000 -0.1907089712
C   C159      1.0  0.25820  0.43600  0.01029  1.0000 0.0902083027
C   C160      1.0  0.55650  0.66640  0.20700  1.0000 -0.1307737894
C   C161      1.0  0.05460  0.79470  0.63526  1.0000 0.1391955323
C   C162      1.0  0.47970  0.81810  0.85508  1.0000 0.1456504993
C   C163      1.0  0.96640  0.49360  0.25810  1.0000 -0.1412565813
C   C164      1.0  0.23150  0.36740  0.97785  1.0000 -0.1907089712
C   C165      1.0  0.43290  0.61070  0.90627  1.0000 0.185799592
C   C166      1.0  0.60080  0.72250  0.88521  1.0000 -0.1834220059
C   C167      1.0  0.26280  0.43620  0.45526  1.0000 0.0902083027
C   C168      1.0  0.16720  0.39320  0.07690  1.0000 -0.1565831371
C   C169      1.0  0.62490  0.86260  0.85185  1.0000 -0.1073982864
C   C170      1.0  0.34710  0.39870  0.38454  1.0000 -0.1510424011
C   C171      1.0  0.07090  0.44970  0.56899  1.0000 -0.0684929893
C   C172      1.0  0.35260  0.31540  0.46510  1.0000 -0.1021889139
C   C173      1.0  0.53670  0.88050  0.84279  1.0000 -0.1510424011
C   C174      1.0  0.11620  0.44120  0.52582  1.0000 -0.1907089712
C   C175      1.0  0.02250  0.25150  0.20223  1.0000 -0.1307737894
C   C176      1.0  0.92180  0.34810  0.23507  1.0000 0.0603633779
C   C177      1.0  0.14260  0.32430  0.04497  1.0000 -0.1209746345
C   C178      1.0  0.29540  0.36750  0.48619  1.0000 -0.1907089712
C   C179      1.0  0.51160  0.73990  0.87598  1.0000 0.1013913898
C   C180      1.0  0.17320  0.31260  0.99624  1.0000 -0.1021889139
C   C181      1.0  0.37690  0.32950  0.41440  1.0000 -0.1073982864
C   C182      1.0  0.99650  0.84920  0.65458  1.0000 -0.1412565813
C   C183      1.0  0.88480  0.51100  0.26960  1.0000 -0.1073982864
C   C184      1.0  0.82070  0.44760  0.26570  1.0000 -0.1073982864
C   C185      1.0  0.06700  0.52700  0.59428  1.0000 -0.1907089712
C   C186      1.0  0.83850  0.36870  0.24940  1.0000 -0.1412565813
C   C187      1.0  0.70330  0.71830  0.22371  1.0000 -0.1021889139
C   C188      1.0  0.94130  0.26760  0.21509  1.0000 -0.0495539431
C   C189      1.0  0.86930  0.20230  0.20540  1.0000 0.5199612759
C   C190      1.0  0.91270  0.82020  0.65640  1.0000 -0.1209746345
C   C191      1.0  0.64390  0.65310  0.20806  1.0000 -0.1073982864
C   C192      1.0  0.65590  0.78490  0.87236  1.0000 -0.1073982864
C   C193      1.0  0.44645  0.39297  0.24909  1.0000 -0.0495539431
C   C194      1.0  0.53430  0.40498  0.24844  1.0000 -0.1412565813
C   C195      1.0  0.59360  0.33890  0.26181  1.0000 -0.1209746345
C   C196      1.0  0.41540  0.31205  0.26275  1.0000 0.0507095799
C   C197      1.0  0.32500  0.29560  0.26229  1.0000 -0.1307737894
C   C198      1.0  0.97110  0.21330  0.88223  1.0000 0.0902083027
C   C199      1.0  0.05570  0.18350  0.88002  1.0000 -0.1907089712
C   C200      1.0  0.11240  0.23790  0.86034  1.0000 -0.1021889139
C   C201      1.0  0.63530  0.19817  0.29980  1.0000 0.5589831851
C   C202      1.0  0.86006  0.96136  0.27191  1.0000 0.5816366456
C   C203      1.0  0.47625  0.24591  0.27874  1.0000 0.0603633779
C   C204      1.0  0.01260  0.91200  0.25959  1.0000 0.0603633779
C   C205      1.0  0.77450  0.95026  0.44148  1.0000 0.1391955323
C   C206      1.0  0.91180  0.81430  0.29261  1.0000 -0.1209746345
C   C207      1.0  0.38420  0.46734  0.23879  1.0000 0.5743995838
C   C208      1.0  0.69130  0.05640  0.45262  1.0000 0.119933502
C   C209      1.0  0.56700  0.26188  0.27845  1.0000 -0.0495539431
C   C210      1.0  0.62490  0.09740  0.55692  1.0000 -0.271305836
C   C211      1.0  0.52480  0.96530  0.58749  1.0000 -0.0684929893
C   C212      1.0  0.79690  0.05460  0.07968  1.0000 0.119933502
C   C213      1.0  0.92870  0.89280  0.27403  1.0000 -0.0495539431
C   C214      1.0  0.84180  0.01060  0.99184  1.0000 0.1811279028
C   C215      1.0  0.84630  0.08920  0.96824  1.0000 -0.271305836
C   C216      1.0  0.89240  0.09660  0.92492  1.0000 0.1811279028
C   C217      1.0  0.58140  0.95070  0.55068  1.0000 -0.1907089712
C   C218      1.0  0.71060  0.95340  0.09427  1.0000 0.1391955323
C   C219      1.0  0.63240  0.24380  0.63220  1.0000 0.1288877854
C   C220      1.0  0.83390  0.23700  0.89248  1.0000 0.1288877854
C   C221      1.0  0.63150  0.01710  0.53563  1.0000 0.1811279028
C   C222      1.0  0.51660  0.04480  0.60926  1.0000 -0.1907089712
C   C223      1.0  0.74180  0.93600  0.48971  1.0000 0.0902083027
C   C224      1.0  0.44350  0.16640  0.29300  1.0000 -0.1307737894
C   C225      1.0  0.94540  0.29470  0.86474  1.0000 0.1391955323
C   C226      1.0  0.52030  0.31810  0.64492  1.0000 0.1456504993
C   C227      1.0  0.03360  0.99360  0.24190  1.0000 -0.1412565813
C   C228      1.0  0.76850  0.86740  0.52215  1.0000 -0.1907089712
C   C229      1.0  0.56710  0.11070  0.59373  1.0000 0.185799592
C   C230      1.0  0.39920  0.22250  0.61479  1.0000 -0.1834220059
C   C231      1.0  0.73720  0.93620  0.04474  1.0000 0.0902083027
C   C232      1.0  0.83280  0.89320  0.42310  1.0000 -0.1565831371
C   C233      1.0  0.37510  0.36260  0.64815  1.0000 -0.1073982864
C   C234      1.0  0.65290  0.89870  0.11546  1.0000 -0.1510424011
C   C235      1.0  0.92910  0.94970  0.93101  1.0000 -0.0684929893
C   C236      1.0  0.64740  0.81540  0.03490  1.0000 -0.1021889139
C   C237      1.0  0.46330  0.38050  0.65721  1.0000 -0.1510424011
C   C238      1.0  0.88380  0.94120  0.97418  1.0000 -0.1907089712
C   C239      1.0  0.97750  0.75150  0.29777  1.0000 -0.1307737894
C   C240      1.0  0.07820  0.84810  0.26493  1.0000 0.0603633779
C   C241      1.0  0.85740  0.82430  0.45503  1.0000 -0.1209746345
C   C242      1.0  0.70460  0.86750  0.01381  1.0000 -0.1907089712
C   C243      1.0  0.48840  0.23990  0.62402  1.0000 0.1013913898
C   C244      1.0  0.82680  0.81260  0.50376  1.0000 -0.1021889139
C   C245      1.0  0.62310  0.82950  0.08560  1.0000 -0.1073982864
C   C246      1.0  0.00350  0.34920  0.84542  1.0000 -0.1412565813
C   C247      1.0  0.11520  0.01100  0.23040  1.0000 -0.1073982864
C   C248      1.0  0.17930  0.94760  0.23430  1.0000 -0.1073982864
C   C249      1.0  0.93300  0.02700  0.90572  1.0000 -0.1907089712
C   C250      1.0  0.16150  0.86870  0.25060  1.0000 -0.1412565813
C   C251      1.0  0.29670  0.21830  0.27629  1.0000 -0.1021889139
C   C252      1.0  0.05870  0.76760  0.28491  1.0000 -0.0495539431
C   C253      1.0  0.13070  0.70230  0.29460  1.0000 0.5199612759
C   C254      1.0  0.08730  0.32020  0.84360  1.0000 -0.1209746345
C   C255      1.0  0.35610  0.15310  0.29194  1.0000 -0.1073982864
C   C256      1.0  0.34410  0.28490  0.62764  1.0000 -0.1073982864
N   N1        1.0  0.89798  0.32237  0.40044  1.0000 -0.0628977317
N   N2        1.0  0.74221  0.47339  0.91945  1.0000 -0.3297558643
N   N3        1.0  0.68753  0.49497  0.99566  1.0000 -0.0628977317
N   N4        1.0  0.61179  0.18204  0.14972  1.0000 -0.3401457884
N   N5        1.0  0.85737  0.19277  0.37123  1.0000 -0.3297558643
N   N6        1.0  0.74858  0.47170  0.61492  1.0000 -0.3297558643
N   N7        1.0  0.56220  0.30645  0.11589  1.0000 -0.0628977317
N   N8        1.0  0.79400  0.49806  0.53650  1.0000 -0.0628977317
N   N9        1.0  0.10202  0.82237  0.09956  1.0000 -0.0628977317
N   N10       1.0  0.25779  0.97339  0.58055  1.0000 -0.3297558643
N   N11       1.0  0.31247  0.99497  0.50434  1.0000 -0.0628977317
N   N12       1.0  0.38821  0.68204  0.35028  1.0000 -0.3401457884
N   N13       1.0  0.14263  0.69277  0.12877  1.0000 -0.3297558643
N   N14       1.0  0.25142  0.97170  0.88508  1.0000 -0.3297558643
N   N15       1.0  0.43780  0.80645  0.38411  1.0000 -0.0628977317
N   N16       1.0  0.20600  0.99806  0.96350  1.0000 -0.0628977317
N   N17       1.0  0.10202  0.67763  0.59956  1.0000 -0.0628977317
N   N18       1.0  0.25779  0.52661  0.08055  1.0000 -0.3297558643
N   N19       1.0  0.31247  0.50503  0.00434  1.0000 -0.0628977317
N   N20       1.0  0.38821  0.81796  0.85028  1.0000 -0.3401457884
N   N21       1.0  0.14263  0.80723  0.62877  1.0000 -0.3297558643
N   N22       1.0  0.25142  0.52830  0.38508  1.0000 -0.3297558643
N   N23       1.0  0.43780  0.69355  0.88411  1.0000 -0.0628977317
N   N24       1.0  0.20600  0.50194  0.46350  1.0000 -0.0628977317
N   N25       1.0  0.89798  0.17763  0.90044  1.0000 -0.0628977317
N   N26       1.0  0.74221  0.02661  0.41945  1.0000 -0.3297558643
N   N27       1.0  0.68753  0.00503  0.49566  1.0000 -0.0628977317
N   N28       1.0  0.61179  0.31796  0.64972  1.0000 -0.3401457884
N   N29       1.0  0.85737  0.30723  0.87123  1.0000 -0.3297558643
N   N30       1.0  0.74858  0.02830  0.11492  1.0000 -0.3297558643
N   N31       1.0  0.56220  0.19355  0.61589  1.0000 -0.0628977317
N   N32       1.0  0.79400  0.00194  0.03650  1.0000 -0.0628977317
O   O1        1.0  0.18770  0.78990  0.82946  1.0000 -0.458723142
O   O2        1.0  0.13530  0.85500  0.76106  1.0000 -0.4868144684
O   O3        1.0  0.37856  0.98754  0.77905  1.0000 -0.5494989572
O   O4        1.0  0.85986  0.50104  0.81626  1.0000 -0.5494989572
O   O5        1.0  0.69609  0.31945  0.77287  1.0000 -0.5608371712
O   O6        1.0  0.81037  0.52669  0.73032  1.0000 -0.5321952023
O   O7        1.0  0.34609  0.02220  0.69315  1.0000 -0.5321952023
O   O8        1.0  0.63275  0.33177  0.84533  1.0000 -0.5494989572
O   O9        1.0  0.81230  0.28990  0.67054  1.0000 -0.458723142
O   O10       1.0  0.86470  0.35500  0.73894  1.0000 -0.4868144684
O   O11       1.0  0.62144  0.48754  0.72095  1.0000 -0.5494989572
O   O12       1.0  0.14014  0.00104  0.68374  1.0000 -0.5494989572
O   O13       1.0  0.30391  0.81945  0.72713  1.0000 -0.5608371712
O   O14       1.0  0.18963  0.02669  0.76968  1.0000 -0.5321952023
O   O15       1.0  0.65391  0.52220  0.80685  1.0000 -0.5321952023
O   O16       1.0  0.36725  0.83177  0.65467  1.0000 -0.5494989572
O   O17       1.0  0.81230  0.21010  0.17054  1.0000 -0.458723142
O   O18       1.0  0.86470  0.14500  0.23894  1.0000 -0.4868144684
O   O19       1.0  0.62144  0.01246  0.22095  1.0000 -0.5494989572
O   O20       1.0  0.14014  0.49896  0.18374  1.0000 -0.5494989572
O   O21       1.0  0.30391  0.68055  0.22713  1.0000 -0.5608371712
O   O22       1.0  0.18963  0.47331  0.26968  1.0000 -0.5321952023
O   O23       1.0  0.65391  0.97780  0.30685  1.0000 -0.5321952023
O   O24       1.0  0.36725  0.66823  0.15467  1.0000 -0.5494989572
O   O25       1.0  0.18770  0.71010  0.32946  1.0000 -0.458723142
O   O26       1.0  0.13530  0.64500  0.26106  1.0000 -0.4868144684
O   O27       1.0  0.37856  0.51246  0.27905  1.0000 -0.5494989572
O   O28       1.0  0.85986  0.99896  0.31626  1.0000 -0.5494989572
O   O29       1.0  0.69609  0.18055  0.27287  1.0000 -0.5608371712
O   O30       1.0  0.81037  0.97331  0.23032  1.0000 -0.5321952023
O   O31       1.0  0.34609  0.47780  0.19315  1.0000 -0.5321952023
O   O32       1.0  0.63275  0.16823  0.34533  1.0000 -0.5494989572
