# DDEC6 charges by PACMAN v1.1 (https://github.com/mtap-research/PACMAN-charge/)
data_2019[Cu][lvt]3[ASR]4
_chemical_formula_sum              "Cu8 H128 C160 N32"
_cell_length_a       29.549
_cell_length_b       22.2542
_cell_length_c       22.17
_cell_angle_alpha    83.3884
_cell_angle_beta     48.4277
_cell_angle_gamma    48.1839

_symmetry_space_group_name_H-M    "P 1"
_symmetry_Int_Tables_number       1

loop_
  _symmetry_equiv_pos_as_xyz
  'x, y, z'

loop_
  _atom_site_type_symbol
  _atom_site_label
  _atom_site_symmetry_multiplicity
  _atom_site_fract_x
  _atom_site_fract_y
  _atom_site_fract_z
  _atom_site_occupancy
  _atom_site_charge
Cu  Cu1       1.0  0.91184  0.90894  0.33850  1.0000 0.1781979351
Cu  Cu2       1.0  0.90894  0.91184  0.84072  1.0000 0.1781979351
Cu  Cu3       1.0  0.91150  0.40928  0.33816  1.0000 0.1781979351
Cu  Cu4       1.0  0.40928  0.91150  0.34106  1.0000 0.1781979351
Cu  Cu5       1.0  0.33850  0.84072  0.91184  1.0000 0.1781979351
Cu  Cu6       1.0  0.84072  0.33850  0.90894  1.0000 0.1781979351
Cu  Cu7       1.0  0.33816  0.34106  0.91150  1.0000 0.1781979351
Cu  Cu8       1.0  0.34106  0.33816  0.40928  1.0000 0.1781979351
H   H1        1.0  0.02130  0.87270  0.35010  1.0000 0.091454664
H   H2        1.0  0.80880  0.92220  0.52640  1.0000 0.091454664
H   H3        1.0  0.03430  0.76750  0.14450  1.0000 0.091454664
H   H4        1.0  0.01630  0.71790  0.31910  1.0000 0.091454664
H   H5        1.0  0.03900  0.76620  0.03640  1.0000 0.1208788869
H   H6        1.0  0.76600  0.62720  0.44840  1.0000 0.091454664
H   H7        1.0  0.05450  0.39570  0.23910  1.0000 0.091454664
H   H8        1.0  0.79860  0.06440  0.21840  1.0000 0.1208788869
H   H9        1.0  0.80510  0.89890  0.36610  1.0000 0.091454664
H   H10       1.0  0.80120  0.05740  0.31960  1.0000 0.091454664
H   H11       1.0  0.80070  0.79890  0.36870  1.0000 0.1269359218
H   H12       1.0  0.01970  0.61150  0.31770  1.0000 0.1143543272
H   H13       1.0  0.80110  0.92430  0.63590  1.0000 0.1269359218
H   H14       1.0  0.76280  0.73220  0.44980  1.0000 0.1208788869
H   H15       1.0  0.05740  0.49600  0.23900  1.0000 0.1143543272
H   H16       1.0  0.01700  0.87780  0.45620  1.0000 0.1269359218
H   H17       1.0  0.87270  0.02130  0.75590  1.0000 0.091454664
H   H18       1.0  0.92220  0.80880  0.74260  1.0000 0.091454664
H   H19       1.0  0.76750  0.03430  0.05370  1.0000 0.091454664
H   H20       1.0  0.71790  0.01630  0.94670  1.0000 0.091454664
H   H21       1.0  0.76620  0.03900  0.15840  1.0000 0.1208788869
H   H22       1.0  0.62720  0.76600  0.15840  1.0000 0.091454664
H   H23       1.0  0.39570  0.05450  0.31070  1.0000 0.091454664
H   H24       1.0  0.06440  0.79860  0.91860  1.0000 0.1208788869
H   H25       1.0  0.89890  0.80510  0.92990  1.0000 0.091454664
H   H26       1.0  0.05740  0.80120  0.82180  1.0000 0.091454664
H   H27       1.0  0.79890  0.80070  0.03170  1.0000 0.1269359218
H   H28       1.0  0.61150  0.01970  0.05110  1.0000 0.1143543272
H   H29       1.0  0.92430  0.80110  0.63870  1.0000 0.1269359218
H   H30       1.0  0.73220  0.76280  0.05520  1.0000 0.1208788869
H   H31       1.0  0.49600  0.05740  0.20760  1.0000 0.1208788869
H   H32       1.0  0.87780  0.01700  0.64900  1.0000 0.1269359218
H   H33       1.0  0.89990  0.49410  0.22870  1.0000 0.091454664
H   H34       1.0  0.72360  0.50740  0.44120  1.0000 0.091454664
H   H35       1.0  0.10550  0.19630  0.21570  1.0000 0.091454664
H   H36       1.0  0.93090  0.30330  0.23370  1.0000 0.091454664
H   H37       1.0  0.21360  0.09160  0.21100  1.0000 0.1208788869
H   H38       1.0  0.80160  0.09160  0.48400  1.0000 0.091454664
H   H39       1.0  0.01090  0.93930  0.19550  1.0000 0.091454664
H   H40       1.0  0.03160  0.33140  0.45140  1.0000 0.1208788869
H   H41       1.0  0.88390  0.32010  0.44490  1.0000 0.091454664
H   H42       1.0  0.93040  0.42820  0.44880  1.0000 0.091454664
H   H43       1.0  0.88130  0.21830  0.44930  1.0000 0.1208788869
H   H44       1.0  0.93230  0.19890  0.23030  1.0000 0.1143543272
H   H45       1.0  0.61410  0.61130  0.44890  1.0000 0.1269359218
H   H46       1.0  0.80020  0.19480  0.48720  1.0000 0.1208788869
H   H47       1.0  0.01100  0.04240  0.19260  1.0000 0.1208788869
H   H48       1.0  0.79380  0.60100  0.23300  1.0000 0.1269359218
H   H49       1.0  0.49410  0.89990  0.37730  1.0000 0.091454664
H   H50       1.0  0.50740  0.72360  0.32780  1.0000 0.091454664
H   H51       1.0  0.19630  0.10550  0.48250  1.0000 0.091454664
H   H52       1.0  0.30330  0.93090  0.53210  1.0000 0.091454664
H   H53       1.0  0.09160  0.21360  0.48380  1.0000 0.1208788869
H   H54       1.0  0.09160  0.80160  0.62280  1.0000 0.091454664
H   H55       1.0  0.93930  0.01090  0.85430  1.0000 0.091454664
H   H56       1.0  0.33140  0.03160  0.18560  1.0000 0.1208788869
H   H57       1.0  0.32010  0.88390  0.35110  1.0000 0.091454664
H   H58       1.0  0.42820  0.93040  0.19260  1.0000 0.091454664
H   H59       1.0  0.21830  0.88130  0.45110  1.0000 0.1269359218
H   H60       1.0  0.19890  0.93230  0.63850  1.0000 0.1143543272
H   H61       1.0  0.61130  0.61410  0.32570  1.0000 0.1269359218
H   H62       1.0  0.19480  0.80020  0.51780  1.0000 0.1208788869
H   H63       1.0  0.04240  0.01100  0.75400  1.0000 0.1208788869
H   H64       1.0  0.60100  0.79380  0.37220  1.0000 0.1269359218
H   H65       1.0  0.35010  0.75590  0.02130  1.0000 0.091454664
H   H66       1.0  0.52640  0.74260  0.80880  1.0000 0.091454664
H   H67       1.0  0.14450  0.05370  0.03430  1.0000 0.091454664
H   H68       1.0  0.31910  0.94670  0.01630  1.0000 0.091454664
H   H69       1.0  0.03640  0.15840  0.03900  1.0000 0.1208788869
H   H70       1.0  0.44840  0.15840  0.76600  1.0000 0.091454664
H   H71       1.0  0.23910  0.31070  0.05450  1.0000 0.091454664
H   H72       1.0  0.21840  0.91860  0.79860  1.0000 0.1208788869
H   H73       1.0  0.36610  0.92990  0.80510  1.0000 0.091454664
H   H74       1.0  0.31960  0.82180  0.80120  1.0000 0.091454664
H   H75       1.0  0.36870  0.03170  0.80070  1.0000 0.1208788869
H   H76       1.0  0.31770  0.05110  0.01970  1.0000 0.1143543272
H   H77       1.0  0.63590  0.63870  0.80110  1.0000 0.1269359218
H   H78       1.0  0.44980  0.05520  0.76280  1.0000 0.1208788869
H   H79       1.0  0.23900  0.20760  0.05740  1.0000 0.1143543272
H   H80       1.0  0.45620  0.64900  0.01700  1.0000 0.1269359218
H   H81       1.0  0.75590  0.35010  0.87270  1.0000 0.091454664
H   H82       1.0  0.74260  0.52640  0.92220  1.0000 0.091454664
H   H83       1.0  0.05370  0.14450  0.76750  1.0000 0.091454664
H   H84       1.0  0.94670  0.31910  0.71790  1.0000 0.091454664
H   H85       1.0  0.15840  0.03640  0.76620  1.0000 0.1208788869
H   H86       1.0  0.15840  0.44840  0.62720  1.0000 0.091454664
H   H87       1.0  0.31070  0.23910  0.39570  1.0000 0.091454664
H   H88       1.0  0.91860  0.21840  0.06440  1.0000 0.1208788869
H   H89       1.0  0.92990  0.36610  0.89890  1.0000 0.091454664
H   H90       1.0  0.82180  0.31960  0.05740  1.0000 0.091454664
H   H91       1.0  0.03170  0.36870  0.79890  1.0000 0.1269359218
H   H92       1.0  0.05110  0.31770  0.61150  1.0000 0.1143543272
H   H93       1.0  0.63870  0.63590  0.92430  1.0000 0.1269359218
H   H94       1.0  0.05520  0.44980  0.73220  1.0000 0.1208788869
H   H95       1.0  0.20760  0.23900  0.49600  1.0000 0.1208788869
H   H96       1.0  0.64900  0.45620  0.87780  1.0000 0.1269359218
H   H97       1.0  0.22870  0.37730  0.89990  1.0000 0.091454664
H   H98       1.0  0.44120  0.32780  0.72360  1.0000 0.091454664
H   H99       1.0  0.21570  0.48250  0.10550  1.0000 0.091454664
H   H100      1.0  0.23370  0.53210  0.93090  1.0000 0.091454664
H   H101      1.0  0.21100  0.48380  0.21360  1.0000 0.1208788869
H   H102      1.0  0.48400  0.62280  0.80160  1.0000 0.091454664
H   H103      1.0  0.19550  0.85430  0.01090  1.0000 0.091454664
H   H104      1.0  0.45140  0.18560  0.03160  1.0000 0.1208788869
H   H105      1.0  0.44490  0.35110  0.88390  1.0000 0.091454664
H   H106      1.0  0.44880  0.19260  0.93040  1.0000 0.091454664
H   H107      1.0  0.44930  0.45110  0.88130  1.0000 0.1208788869
H   H108      1.0  0.23030  0.63850  0.93230  1.0000 0.1143543272
H   H109      1.0  0.44890  0.32570  0.61410  1.0000 0.1269359218
H   H110      1.0  0.48720  0.51780  0.80020  1.0000 0.1208788869
H   H111      1.0  0.19260  0.75400  0.01100  1.0000 0.1143543272
H   H112      1.0  0.23300  0.37220  0.79380  1.0000 0.1269359218
H   H113      1.0  0.37730  0.22870  0.49410  1.0000 0.091454664
H   H114      1.0  0.32780  0.44120  0.50740  1.0000 0.091454664
H   H115      1.0  0.48250  0.21570  0.19630  1.0000 0.091454664
H   H116      1.0  0.53210  0.23370  0.30330  1.0000 0.091454664
H   H117      1.0  0.48380  0.21100  0.09160  1.0000 0.1208788869
H   H118      1.0  0.62280  0.48400  0.09160  1.0000 0.091454664
H   H119      1.0  0.85430  0.19550  0.93930  1.0000 0.091454664
H   H120      1.0  0.18560  0.45140  0.33140  1.0000 0.1208788869
H   H121      1.0  0.35110  0.44490  0.32010  1.0000 0.091454664
H   H122      1.0  0.19260  0.44880  0.42820  1.0000 0.091454664
H   H123      1.0  0.45110  0.44930  0.21830  1.0000 0.1269359218
H   H124      1.0  0.63850  0.23030  0.19890  1.0000 0.1143543272
H   H125      1.0  0.32570  0.44890  0.61130  1.0000 0.1269359218
H   H126      1.0  0.51780  0.48720  0.19480  1.0000 0.1208788869
H   H127      1.0  0.75400  0.19260  0.04240  1.0000 0.1208788869
H   H128      1.0  0.37220  0.23300  0.60100  1.0000 0.1269359218
C   C1        1.0  0.90967  0.69355  0.34405  1.0000 0.091454664
C   C2        1.0  0.97515  0.88513  0.40947  1.0000 0.0300148629
C   C3        1.0  0.90958  0.62666  0.34474  1.0000 0.091454664
C   C4        1.0  0.85079  0.91363  0.51277  1.0000 0.0300148629
C   C5        1.0  0.98631  0.82783  0.15937  1.0000 0.0362778526
C   C6        1.0  0.97309  0.73401  0.32819  1.0000 0.0362778526
C   C7        1.0  0.91776  0.91580  0.11580  1.0000 0.091454664
C   C8        1.0  0.98941  0.82643  0.09397  1.0000 -0.2106632524
C   C9        1.0  0.90744  0.90268  0.55972  1.0000 0.091454664
C   C10       1.0  0.82561  0.60035  0.40485  1.0000 0.0362778526
C   C11       1.0  0.99492  0.46442  0.28238  1.0000 0.0362778526
C   C12       1.0  0.84722  0.00284  0.20176  1.0000 -0.2106632524
C   C13       1.0  0.84905  0.84015  0.35605  1.0000 0.0517431347
C   C14       1.0  0.84925  0.99819  0.26221  1.0000 0.0362778526
C   C15       1.0  0.84565  0.78039  0.35801  1.0000 -0.2106632524
C   C16       1.0  0.97482  0.66996  0.32824  1.0000 -0.2191297891
C   C17       1.0  0.84553  0.91511  0.57889  1.0000 -0.2106632524
C   C18       1.0  0.82311  0.66375  0.40665  1.0000 -0.2012544425
C   C19       1.0  0.99730  0.52418  0.28162  1.0000 -0.2191297891
C   C20       1.0  0.97381  0.88699  0.47221  1.0000 -0.2012544425
C   C21       1.0  0.69355  0.90967  0.05273  1.0000 0.091454664
C   C22       1.0  0.88513  0.97515  0.73025  1.0000 0.0362778526
C   C23       1.0  0.62666  0.90958  0.11902  1.0000 0.091454664
C   C24       1.0  0.91363  0.85079  0.72281  1.0000 0.0300148629
C   C25       1.0  0.82783  0.98631  0.02649  1.0000 0.0362778526
C   C26       1.0  0.73401  0.97309  0.96471  1.0000 0.0362778526
C   C27       1.0  0.91580  0.91776  0.05064  1.0000 0.091454664
C   C28       1.0  0.82643  0.98941  0.09019  1.0000 -0.2106632524
C   C29       1.0  0.90268  0.90744  0.63016  1.0000 0.091454664
C   C30       1.0  0.60035  0.82561  0.16919  1.0000 0.0362778526
C   C31       1.0  0.46442  0.99492  0.25828  1.0000 0.0362778526
C   C32       1.0  0.00284  0.84722  0.94818  1.0000 -0.2106632524
C   C33       1.0  0.84015  0.84905  0.95475  1.0000 0.0517431347
C   C34       1.0  0.99819  0.84925  0.89035  1.0000 0.0362778526
C   C35       1.0  0.78039  0.84565  0.01595  1.0000 -0.2106632524
C   C36       1.0  0.66996  0.97482  0.02698  1.0000 -0.2191297891
C   C37       1.0  0.91511  0.84553  0.66047  1.0000 -0.2106632524
C   C38       1.0  0.66375  0.82311  0.10649  1.0000 -0.2012544425
C   C39       1.0  0.52418  0.99730  0.19690  1.0000 -0.2191297891
C   C40       1.0  0.88699  0.97381  0.66699  1.0000 -0.2012544425
C   C41       1.0  0.90595  0.19727  0.34033  1.0000 0.091454664
C   C42       1.0  0.84053  0.51975  0.27485  1.0000 0.0300148629
C   C43       1.0  0.90526  0.13098  0.34042  1.0000 0.091454664
C   C44       1.0  0.73723  0.52719  0.39921  1.0000 0.0300148629
C   C45       1.0  0.09063  0.22351  0.26369  1.0000 0.0362778526
C   C46       1.0  0.92181  0.28529  0.27691  1.0000 0.0362778526
C   C47       1.0  0.13420  0.19936  0.33224  1.0000 0.091454664
C   C48       1.0  0.15603  0.15981  0.26059  1.0000 -0.2106632524
C   C49       1.0  0.69028  0.61984  0.34256  1.0000 0.091454664
C   C50       1.0  0.84515  0.08081  0.42439  1.0000 0.0362778526
C   C51       1.0  0.96762  0.99172  0.25508  1.0000 0.0362778526
C   C52       1.0  0.04824  0.30182  0.40278  1.0000 -0.2106632524
C   C53       1.0  0.89395  0.29525  0.40095  1.0000 0.0517431347
C   C54       1.0  0.98779  0.35965  0.40075  1.0000 0.0362778526
C   C55       1.0  0.89199  0.23405  0.40435  1.0000 -0.2106632524
C   C56       1.0  0.92176  0.22302  0.27518  1.0000 -0.2191297891
C   C57       1.0  0.67111  0.58953  0.40447  1.0000 -0.2106632524
C   C58       1.0  0.84335  0.14351  0.42689  1.0000 -0.2012544425
C   C59       1.0  0.96838  0.05310  0.25270  1.0000 -0.2191297891
C   C60       1.0  0.77779  0.58301  0.27619  1.0000 -0.2012544425
C   C61       1.0  0.19727  0.90595  0.55645  1.0000 0.091454664
C   C62       1.0  0.51975  0.84053  0.36487  1.0000 0.0300148629
C   C63       1.0  0.13098  0.90526  0.62334  1.0000 0.091454664
C   C64       1.0  0.52719  0.73723  0.33637  1.0000 0.0300148629
C   C65       1.0  0.22351  0.09063  0.42217  1.0000 0.0362778526
C   C66       1.0  0.28529  0.92181  0.51599  1.0000 0.0362778526
C   C67       1.0  0.19936  0.13420  0.33420  1.0000 0.091454664
C   C68       1.0  0.15981  0.15603  0.42357  1.0000 -0.2106632524
C   C69       1.0  0.61984  0.69028  0.34732  1.0000 0.091454664
C   C70       1.0  0.08081  0.84515  0.64965  1.0000 0.0362778526
C   C71       1.0  0.99172  0.96762  0.78558  1.0000 0.0362778526
C   C72       1.0  0.30182  0.04824  0.24716  1.0000 -0.2106632524
C   C73       1.0  0.29525  0.89395  0.40985  1.0000 0.0517431347
C   C74       1.0  0.35965  0.98779  0.25181  1.0000 0.0362778526
C   C75       1.0  0.23405  0.89199  0.46961  1.0000 -0.2106632524
C   C76       1.0  0.22302  0.92176  0.58004  1.0000 -0.2191297891
C   C77       1.0  0.58953  0.67111  0.33489  1.0000 -0.2106632524
C   C78       1.0  0.14351  0.84335  0.58625  1.0000 -0.2012544425
C   C79       1.0  0.05310  0.96838  0.72582  1.0000 -0.2191297891
C   C80       1.0  0.58301  0.77779  0.36301  1.0000 -0.2012544425
C   C81       1.0  0.34405  0.05273  0.90967  1.0000 0.091454664
C   C82       1.0  0.40947  0.73025  0.97515  1.0000 0.0362778526
C   C83       1.0  0.34474  0.11902  0.90958  1.0000 0.091454664
C   C84       1.0  0.51277  0.72281  0.85079  1.0000 0.0300148629
C   C85       1.0  0.15937  0.02649  0.98631  1.0000 0.0362778526
C   C86       1.0  0.32819  0.96471  0.97309  1.0000 0.0300148629
C   C87       1.0  0.11580  0.05064  0.91776  1.0000 0.091454664
C   C88       1.0  0.09397  0.09019  0.98941  1.0000 -0.2106632524
C   C89       1.0  0.55972  0.63016  0.90744  1.0000 0.091454664
C   C90       1.0  0.40485  0.16919  0.82561  1.0000 0.0362778526
C   C91       1.0  0.28238  0.25828  0.99492  1.0000 0.0362778526
C   C92       1.0  0.20176  0.94818  0.84722  1.0000 -0.2106632524
C   C93       1.0  0.35605  0.95475  0.84905  1.0000 0.0517431347
C   C94       1.0  0.26221  0.89035  0.84925  1.0000 0.0362778526
C   C95       1.0  0.35801  0.01595  0.84565  1.0000 -0.2106632524
C   C96       1.0  0.32824  0.02698  0.97482  1.0000 -0.2191297891
C   C97       1.0  0.57889  0.66047  0.84553  1.0000 -0.2106632524
C   C98       1.0  0.40665  0.10649  0.82311  1.0000 -0.2012544425
C   C99       1.0  0.28162  0.19690  0.99730  1.0000 -0.2191297891
C   C100      1.0  0.47221  0.66699  0.97381  1.0000 -0.2012544425
C   C101      1.0  0.05273  0.34405  0.69355  1.0000 0.091454664
C   C102      1.0  0.73025  0.40947  0.88513  1.0000 0.0362778526
C   C103      1.0  0.11902  0.34474  0.62666  1.0000 0.091454664
C   C104      1.0  0.72281  0.51277  0.91363  1.0000 0.0300148629
C   C105      1.0  0.02649  0.15937  0.82783  1.0000 0.0362778526
C   C106      1.0  0.96471  0.32819  0.73401  1.0000 0.0362778526
C   C107      1.0  0.05064  0.11580  0.91580  1.0000 0.091454664
C   C108      1.0  0.09019  0.09397  0.82643  1.0000 -0.2106632524
C   C109      1.0  0.63016  0.55972  0.90268  1.0000 0.091454664
C   C110      1.0  0.16919  0.40485  0.60035  1.0000 0.0362778526
C   C111      1.0  0.25828  0.28238  0.46442  1.0000 0.0362778526
C   C112      1.0  0.94818  0.20176  0.00284  1.0000 -0.2106632524
C   C113      1.0  0.95475  0.35605  0.84015  1.0000 0.0517431347
C   C114      1.0  0.89035  0.26221  0.99819  1.0000 0.0362778526
C   C115      1.0  0.01595  0.35801  0.78039  1.0000 -0.2106632524
C   C116      1.0  0.02698  0.32824  0.66996  1.0000 -0.2191297891
C   C117      1.0  0.66047  0.57889  0.91511  1.0000 -0.2106632524
C   C118      1.0  0.10649  0.40665  0.66375  1.0000 -0.2012544425
C   C119      1.0  0.19690  0.28162  0.52418  1.0000 -0.2191297891
C   C120      1.0  0.66699  0.47221  0.88699  1.0000 -0.2012544425
C   C121      1.0  0.34033  0.55645  0.90595  1.0000 0.091454664
C   C122      1.0  0.27485  0.36487  0.84053  1.0000 0.0362778526
C   C123      1.0  0.34042  0.62334  0.90526  1.0000 0.091454664
C   C124      1.0  0.39921  0.33637  0.73723  1.0000 0.0300148629
C   C125      1.0  0.26369  0.42217  0.09063  1.0000 0.0362778526
C   C126      1.0  0.27691  0.51599  0.92181  1.0000 0.0362778526
C   C127      1.0  0.33224  0.33420  0.13420  1.0000 0.091454664
C   C128      1.0  0.26059  0.42357  0.15603  1.0000 -0.2106632524
C   C129      1.0  0.34256  0.34732  0.69028  1.0000 0.091454664
C   C130      1.0  0.42439  0.64965  0.84515  1.0000 0.0362778526
C   C131      1.0  0.25508  0.78558  0.96762  1.0000 0.0362778526
C   C132      1.0  0.40278  0.24716  0.04824  1.0000 -0.2106632524
C   C133      1.0  0.40095  0.40985  0.89395  1.0000 0.0517431347
C   C134      1.0  0.40075  0.25181  0.98779  1.0000 0.0362778526
C   C135      1.0  0.40435  0.46961  0.89199  1.0000 -0.2106632524
C   C136      1.0  0.27518  0.58004  0.92176  1.0000 -0.2191297891
C   C137      1.0  0.40447  0.33489  0.67111  1.0000 -0.2106632524
C   C138      1.0  0.42689  0.58625  0.84335  1.0000 -0.2012544425
C   C139      1.0  0.25270  0.72582  0.96838  1.0000 -0.2191297891
C   C140      1.0  0.27619  0.36301  0.77779  1.0000 -0.2012544425
C   C141      1.0  0.55645  0.34033  0.19727  1.0000 0.091454664
C   C142      1.0  0.36487  0.27485  0.51975  1.0000 0.0300148629
C   C143      1.0  0.62334  0.34042  0.13098  1.0000 0.091454664
C   C144      1.0  0.33637  0.39921  0.52719  1.0000 0.0300148629
C   C145      1.0  0.42217  0.26369  0.22351  1.0000 0.0362778526
C   C146      1.0  0.51599  0.27691  0.28529  1.0000 0.0362778526
C   C147      1.0  0.33420  0.33224  0.19936  1.0000 0.091454664
C   C148      1.0  0.42357  0.26059  0.15981  1.0000 -0.2106632524
C   C149      1.0  0.34732  0.34256  0.61984  1.0000 0.091454664
C   C150      1.0  0.64965  0.42439  0.08081  1.0000 0.0362778526
C   C151      1.0  0.78558  0.25508  0.99172  1.0000 0.0362778526
C   C152      1.0  0.24716  0.40278  0.30182  1.0000 -0.2106632524
C   C153      1.0  0.40985  0.40095  0.29525  1.0000 0.0517431347
C   C154      1.0  0.25181  0.40075  0.35965  1.0000 0.0362778526
C   C155      1.0  0.46961  0.40435  0.23405  1.0000 -0.2106632524
C   C156      1.0  0.58004  0.27518  0.22302  1.0000 -0.2191297891
C   C157      1.0  0.33489  0.40447  0.58953  1.0000 -0.2106632524
C   C158      1.0  0.58625  0.42689  0.14351  1.0000 -0.2012544425
C   C159      1.0  0.72582  0.25270  0.05310  1.0000 -0.2191297891
C   C160      1.0  0.36301  0.27619  0.58301  1.0000 -0.2012544425
N   N1        1.0  0.91352  0.90044  0.42936  1.0000 -0.2191297891
N   N2        1.0  0.91176  0.81736  0.34064  1.0000 -0.2106632524
N   N3        1.0  0.91748  0.91188  0.24212  1.0000 -0.2191297891
N   N4        1.0  0.91061  0.50107  0.34273  1.0000 -0.2106632524
N   N5        1.0  0.90044  0.91352  0.75668  1.0000 -0.2191297891
N   N6        1.0  0.81736  0.91176  0.93024  1.0000 -0.2191297891
N   N7        1.0  0.91188  0.91748  0.92852  1.0000 -0.2191297891
N   N8        1.0  0.50107  0.91061  0.24559  1.0000 -0.2106632524
N   N9        1.0  0.82064  0.49332  0.33648  1.0000 -0.2191297891
N   N10       1.0  0.90936  0.31976  0.33824  1.0000 -0.2106632524
N   N11       1.0  0.00788  0.32148  0.33252  1.0000 -0.2191297891
N   N12       1.0  0.90727  0.00441  0.33939  1.0000 -0.2106632524
N   N13       1.0  0.49332  0.82064  0.34956  1.0000 -0.2191297891
N   N14       1.0  0.31976  0.90936  0.43264  1.0000 -0.2106632524
N   N15       1.0  0.32148  0.00788  0.33812  1.0000 -0.2191297891
N   N16       1.0  0.00441  0.90727  0.74893  1.0000 -0.2106632524
N   N17       1.0  0.42936  0.75668  0.91352  1.0000 -0.2191297891
N   N18       1.0  0.34064  0.93024  0.91176  1.0000 -0.2191297891
N   N19       1.0  0.24212  0.92852  0.91748  1.0000 -0.2191297891
N   N20       1.0  0.34273  0.24559  0.91061  1.0000 -0.2106632524
N   N21       1.0  0.75668  0.42936  0.90044  1.0000 -0.2191297891
N   N22       1.0  0.93024  0.34064  0.81736  1.0000 -0.2106632524
N   N23       1.0  0.92852  0.24212  0.91188  1.0000 -0.2191297891
N   N24       1.0  0.24559  0.34273  0.50107  1.0000 -0.2106632524
N   N25       1.0  0.33648  0.34956  0.82064  1.0000 -0.2191297891
N   N26       1.0  0.33824  0.43264  0.90936  1.0000 -0.2106632524
N   N27       1.0  0.33252  0.33812  0.00788  1.0000 -0.2191297891
N   N28       1.0  0.33939  0.74893  0.90727  1.0000 -0.2106632524
N   N29       1.0  0.34956  0.33648  0.49332  1.0000 -0.2191297891
N   N30       1.0  0.43264  0.33824  0.31976  1.0000 -0.2106632524
N   N31       1.0  0.33812  0.33252  0.32148  1.0000 -0.2191297891
N   N32       1.0  0.74893  0.33939  0.00441  1.0000 -0.2106632524
