# DDEC6 charges by PACMAN v1.1 (https://github.com/mtap-research/PACMAN-charge/)
data_2019[In][bpq]3[ASR]6
_chemical_formula_sum              "In8 H40 C64 O56"
_cell_length_a       21.824
_cell_length_b       7.178
_cell_length_c       30.6299
_cell_angle_alpha    90
_cell_angle_beta     134.491
_cell_angle_gamma    90

_symmetry_space_group_name_H-M    "P 1"
_symmetry_Int_Tables_number       1

loop_
  _symmetry_equiv_pos_as_xyz
  'x, y, z'

loop_
  _atom_site_type_symbol
  _atom_site_label
  _atom_site_symmetry_multiplicity
  _atom_site_fract_x
  _atom_site_fract_y
  _atom_site_fract_z
  _atom_site_occupancy
  _atom_site_charge
In  In1       1.0  0.99965  0.48737  0.74855  1.0000 1.5347024617
In  In2       1.0  0.50566  0.00832  0.25325  1.0000 1.5388130066
In  In3       1.0  0.00035  0.98737  0.75145  1.0000 1.5347024617
In  In4       1.0  0.49434  0.50832  0.24675  1.0000 1.5388130066
In  In5       1.0  0.00035  0.51263  0.25145  1.0000 1.5347024617
In  In6       1.0  0.49434  0.99168  0.74675  1.0000 1.5388130066
In  In7       1.0  0.99965  0.01263  0.24855  1.0000 1.5347024617
In  In8       1.0  0.50566  0.49168  0.75325  1.0000 1.5388130066
H   H1        1.0  0.97010  0.73310  0.79770  1.0000 0.4072847483
H   H2        1.0  0.47280  0.76350  0.17410  1.0000 0.3966695335
H   H3        1.0  0.19270  0.64240  0.94530  1.0000 0.3680062708
H   H4        1.0  0.34320  0.91440  0.09150  1.0000 0.3571473476
H   H5        1.0  0.26860  0.52610  0.05460  1.0000 0.1386268851
H   H6        1.0  0.17240  0.96560  0.94550  1.0000 0.1386268851
H   H7        1.0  0.81230  0.57020  0.71590  1.0000 0.3508647498
H   H8        1.0  0.62810  0.90960  0.72280  1.0000 0.3508647498
H   H9        1.0  0.67370  0.51790  0.72720  1.0000 0.1386268851
H   H10       1.0  0.77460  0.95810  0.71830  1.0000 0.1386268851
H   H11       1.0  0.02990  0.23310  0.70230  1.0000 0.4072847483
H   H12       1.0  0.52720  0.26350  0.32590  1.0000 0.3966695335
H   H13       1.0  0.80730  0.14240  0.55470  1.0000 0.3680062708
H   H14       1.0  0.65680  0.41440  0.40850  1.0000 0.3571473476
H   H15       1.0  0.73140  0.02610  0.44540  1.0000 0.1386268851
H   H16       1.0  0.82760  0.46560  0.55450  1.0000 0.1386268851
H   H17       1.0  0.18770  0.07020  0.78410  1.0000 0.3508647498
H   H18       1.0  0.37190  0.40960  0.77720  1.0000 0.3508647498
H   H19       1.0  0.32630  0.01790  0.77280  1.0000 0.1386268851
H   H20       1.0  0.22540  0.45810  0.78170  1.0000 0.1386268851
H   H21       1.0  0.02990  0.26690  0.20230  1.0000 0.4072847483
H   H22       1.0  0.52720  0.23650  0.82590  1.0000 0.3966695335
H   H23       1.0  0.80730  0.35760  0.05470  1.0000 0.3680062708
H   H24       1.0  0.65680  0.08560  0.90850  1.0000 0.3571473476
H   H25       1.0  0.73140  0.47390  0.94540  1.0000 0.1386268851
H   H26       1.0  0.82760  0.03440  0.05450  1.0000 0.1386268851
H   H27       1.0  0.18770  0.42980  0.28410  1.0000 0.3508647498
H   H28       1.0  0.37190  0.09040  0.27720  1.0000 0.3508647498
H   H29       1.0  0.32630  0.48210  0.27280  1.0000 0.1386268851
H   H30       1.0  0.22540  0.04190  0.28170  1.0000 0.1386268851
H   H31       1.0  0.97010  0.76690  0.29770  1.0000 0.4072847483
H   H32       1.0  0.47280  0.73650  0.67410  1.0000 0.3966695335
H   H33       1.0  0.19270  0.85760  0.44530  1.0000 0.3680062708
H   H34       1.0  0.34320  0.58560  0.59150  1.0000 0.3571473476
H   H35       1.0  0.26860  0.97390  0.55460  1.0000 0.1386268851
H   H36       1.0  0.17240  0.53440  0.44550  1.0000 0.1386268851
H   H37       1.0  0.81230  0.92980  0.21590  1.0000 0.3508647498
H   H38       1.0  0.62810  0.59040  0.22280  1.0000 0.3508647498
H   H39       1.0  0.67370  0.98210  0.22720  1.0000 0.1386268851
H   H40       1.0  0.77460  0.54190  0.21830  1.0000 0.1386268851
C   C1        1.0  0.09830  0.23880  0.86840  1.0000 0.6277495689
C   C2        1.0  0.35880  0.25420  0.13280  1.0000 0.6277495689
C   C3        1.0  0.16050  0.24250  0.93700  1.0000 -0.1006934937
C   C4        1.0  0.18730  0.41370  0.96940  1.0000 0.2619060021
C   C5        1.0  0.25050  0.41190  0.03290  1.0000 -0.218333799
C   C6        1.0  0.28750  0.24650  0.06500  1.0000 -0.1414063159
C   C7        1.0  0.25820  0.07620  0.03250  1.0000 0.2826094594
C   C8        1.0  0.19330  0.07950  0.96770  1.0000 -0.1996353177
C   C9        1.0  0.85790  0.23710  0.72400  1.0000 0.6277495689
C   C10       1.0  0.60470  0.23890  0.73470  1.0000 0.6352520105
C   C11       1.0  0.78608  0.24070  0.72100  1.0000 -0.1498481552
C   C12       1.0  0.75609  0.40700  0.72360  1.0000 0.2619060021
C   C13       1.0  0.69420  0.40430  0.72540  1.0000 -0.1996353177
C   C14       1.0  0.66230  0.23530  0.72460  1.0000 -0.1498481552
C   C15       1.0  0.69220  0.06900  0.72190  1.0000 0.2663425323
C   C16       1.0  0.75410  0.07170  0.72010  1.0000 -0.1996353177
C   C17       1.0  0.90170  0.73880  0.63160  1.0000 0.6277495689
C   C18       1.0  0.64120  0.75420  0.36720  1.0000 0.6277495689
C   C19       1.0  0.83950  0.74250  0.56300  1.0000 -0.1006934937
C   C20       1.0  0.81270  0.91370  0.53060  1.0000 0.2619060021
C   C21       1.0  0.74950  0.91190  0.46710  1.0000 -0.218333799
C   C22       1.0  0.71250  0.74650  0.43500  1.0000 -0.1414063159
C   C23       1.0  0.74180  0.57620  0.46750  1.0000 0.2826094594
C   C24       1.0  0.80670  0.57950  0.53230  1.0000 -0.1996353177
C   C25       1.0  0.14210  0.73710  0.77600  1.0000 0.6277495689
C   C26       1.0  0.39530  0.73890  0.76530  1.0000 0.6352520105
C   C27       1.0  0.21392  0.74070  0.77900  1.0000 -0.1498481552
C   C28       1.0  0.24391  0.90700  0.77640  1.0000 0.2619060021
C   C29       1.0  0.30580  0.90430  0.77460  1.0000 -0.1996353177
C   C30       1.0  0.33770  0.73530  0.77540  1.0000 -0.1498481552
C   C31       1.0  0.30780  0.56900  0.77810  1.0000 0.2663425323
C   C32       1.0  0.24590  0.57170  0.77990  1.0000 -0.1996353177
C   C33       1.0  0.90170  0.76120  0.13160  1.0000 0.6277495689
C   C34       1.0  0.64120  0.74580  0.86720  1.0000 0.6277495689
C   C35       1.0  0.83950  0.75750  0.06300  1.0000 -0.1006934937
C   C36       1.0  0.81270  0.58630  0.03060  1.0000 0.2619060021
C   C37       1.0  0.74950  0.58810  0.96710  1.0000 -0.218333799
C   C38       1.0  0.71250  0.75350  0.93500  1.0000 -0.1414063159
C   C39       1.0  0.74180  0.92380  0.96750  1.0000 0.2826094594
C   C40       1.0  0.80670  0.92050  0.03230  1.0000 -0.1996353177
C   C41       1.0  0.14210  0.76290  0.27600  1.0000 0.6277495689
C   C42       1.0  0.39530  0.76110  0.26530  1.0000 0.6352520105
C   C43       1.0  0.21392  0.75930  0.27900  1.0000 -0.1498481552
C   C44       1.0  0.24391  0.59300  0.27640  1.0000 0.2619060021
C   C45       1.0  0.30580  0.59570  0.27460  1.0000 -0.1996353177
C   C46       1.0  0.33770  0.76470  0.27540  1.0000 -0.1498481552
C   C47       1.0  0.30780  0.93100  0.27810  1.0000 0.2663425323
C   C48       1.0  0.24590  0.92830  0.27990  1.0000 -0.1996353177
C   C49       1.0  0.09830  0.26120  0.36840  1.0000 0.6277495689
C   C50       1.0  0.35880  0.24580  0.63280  1.0000 0.6277495689
C   C51       1.0  0.16050  0.25750  0.43700  1.0000 -0.1006934937
C   C52       1.0  0.18730  0.08630  0.46940  1.0000 0.2619060021
C   C53       1.0  0.25050  0.08810  0.53290  1.0000 -0.218333799
C   C54       1.0  0.28750  0.25350  0.56500  1.0000 -0.1414063159
C   C55       1.0  0.25820  0.42380  0.53250  1.0000 0.2826094594
C   C56       1.0  0.19330  0.42050  0.46770  1.0000 -0.1996353177
C   C57       1.0  0.85790  0.26290  0.22400  1.0000 0.6277495689
C   C58       1.0  0.60470  0.26110  0.23470  1.0000 0.6352520105
C   C59       1.0  0.78608  0.25930  0.22100  1.0000 -0.1498481552
C   C60       1.0  0.75609  0.09300  0.22360  1.0000 0.2619060021
C   C61       1.0  0.69420  0.09570  0.22540  1.0000 -0.1996353177
C   C62       1.0  0.66230  0.26470  0.22460  1.0000 -0.1498481552
C   C63       1.0  0.69220  0.43100  0.22190  1.0000 0.2663425323
C   C64       1.0  0.75410  0.42830  0.22010  1.0000 -0.1996353177
O   O1        1.0  0.98450  0.73560  0.77480  1.0000 -0.8919552896
O   O2        1.0  0.48600  0.76110  0.21100  1.0000 -0.8965091589
O   O3        1.0  0.07690  0.39370  0.84200  1.0000 -0.5697264853
O   O4        1.0  0.07830  0.08380  0.84420  1.0000 -0.5601984295
O   O5        1.0  0.39270  0.09970  0.16140  1.0000 -0.6005355898
O   O6        1.0  0.38040  0.40940  0.15690  1.0000 -0.5394309643
O   O7        1.0  0.15530  0.58470  0.94100  1.0000 -0.404296476
O   O8        1.0  0.29050  0.90480  0.05970  1.0000 -0.4404519159
O   O9        1.0  0.88590  0.08450  0.72600  1.0000 -0.5501157525
O   O10       1.0  0.88550  0.39540  0.72500  1.0000 -0.6005355898
O   O11       1.0  0.58260  0.39440  0.73930  1.0000 -0.5697264853
O   O12       1.0  0.57330  0.08540  0.73220  1.0000 -0.6005355898
O   O13       1.0  0.78110  0.58010  0.72260  1.0000 -0.4404519159
O   O14       1.0  0.66360  0.89790  0.72000  1.0000 -0.4266196075
O   O15       1.0  0.01550  0.23560  0.72520  1.0000 -0.8919552896
O   O16       1.0  0.51400  0.26110  0.28900  1.0000 -0.8965091589
O   O17       1.0  0.92310  0.89370  0.65800  1.0000 -0.5697264853
O   O18       1.0  0.92170  0.58380  0.65580  1.0000 -0.5601984295
O   O19       1.0  0.60730  0.59970  0.33860  1.0000 -0.6005355898
O   O20       1.0  0.61960  0.90940  0.34310  1.0000 -0.5394309643
O   O21       1.0  0.84470  0.08470  0.55900  1.0000 -0.404296476
O   O22       1.0  0.70950  0.40480  0.44030  1.0000 -0.4404519159
O   O23       1.0  0.11410  0.58450  0.77400  1.0000 -0.5501157525
O   O24       1.0  0.11450  0.89540  0.77500  1.0000 -0.6005355898
O   O25       1.0  0.41740  0.89440  0.76070  1.0000 -0.5697264853
O   O26       1.0  0.42670  0.58540  0.76780  1.0000 -0.6005355898
O   O27       1.0  0.21890  0.08010  0.77740  1.0000 -0.4404519159
O   O28       1.0  0.33640  0.39790  0.78000  1.0000 -0.4266196075
O   O29       1.0  0.01550  0.26440  0.22520  1.0000 -0.8919552896
O   O30       1.0  0.51400  0.23890  0.78900  1.0000 -0.8965091589
O   O31       1.0  0.92310  0.60630  0.15800  1.0000 -0.5697264853
O   O32       1.0  0.92170  0.91620  0.15580  1.0000 -0.5601984295
O   O33       1.0  0.60730  0.90030  0.83860  1.0000 -0.6005355898
O   O34       1.0  0.61960  0.59060  0.84310  1.0000 -0.5394309643
O   O35       1.0  0.84470  0.41530  0.05900  1.0000 -0.404296476
O   O36       1.0  0.70950  0.09520  0.94030  1.0000 -0.4404519159
O   O37       1.0  0.11410  0.91550  0.27400  1.0000 -0.5501157525
O   O38       1.0  0.11450  0.60460  0.27500  1.0000 -0.6005355898
O   O39       1.0  0.41740  0.60560  0.26070  1.0000 -0.5697264853
O   O40       1.0  0.42670  0.91460  0.26780  1.0000 -0.6005355898
O   O41       1.0  0.21890  0.41990  0.27740  1.0000 -0.4404519159
O   O42       1.0  0.33640  0.10210  0.28000  1.0000 -0.4266196075
O   O43       1.0  0.98450  0.76440  0.27480  1.0000 -0.8919552896
O   O44       1.0  0.48600  0.73890  0.71100  1.0000 -0.8965091589
O   O45       1.0  0.07690  0.10630  0.34200  1.0000 -0.5697264853
O   O46       1.0  0.07830  0.41620  0.34420  1.0000 -0.5601984295
O   O47       1.0  0.39270  0.40030  0.66140  1.0000 -0.6005355898
O   O48       1.0  0.38040  0.09060  0.65690  1.0000 -0.5394309643
O   O49       1.0  0.15530  0.91530  0.44100  1.0000 -0.404296476
O   O50       1.0  0.29050  0.59520  0.55970  1.0000 -0.4404519159
O   O51       1.0  0.88590  0.41550  0.22600  1.0000 -0.5501157525
O   O52       1.0  0.88550  0.10460  0.22500  1.0000 -0.6005355898
O   O53       1.0  0.58260  0.10560  0.23930  1.0000 -0.5697264853
O   O54       1.0  0.57330  0.41460  0.23220  1.0000 -0.6005355898
O   O55       1.0  0.78110  0.91990  0.22260  1.0000 -0.4404519159
O   O56       1.0  0.66360  0.60210  0.22000  1.0000 -0.4266196075
