# DDEC6 charges by PACMAN v1.1 (https://github.com/mtap-research/PACMAN-charge/)
data_2020[Zn][bex]2[ASR]1
_chemical_formula_sum              "Zn2 H26 C44 N4 O12"
_cell_length_a       9.27
_cell_length_b       10.714
_cell_length_c       12.75
_cell_angle_alpha    94.79
_cell_angle_beta     99.19
_cell_angle_gamma    114.21

_symmetry_space_group_name_H-M    "P 1"
_symmetry_Int_Tables_number       1

loop_
  _symmetry_equiv_pos_as_xyz
  'x, y, z'

loop_
  _atom_site_type_symbol
  _atom_site_label
  _atom_site_symmetry_multiplicity
  _atom_site_fract_x
  _atom_site_fract_y
  _atom_site_fract_z
  _atom_site_occupancy
  _atom_site_charge
Zn  Zn1       1.0  0.86366  0.70513  0.98912  1.0000 0.8448444773
Zn  Zn2       1.0  0.13634  0.29487  0.01088  1.0000 0.8448444773
H   H1        1.0  0.99880  0.53880  0.10970  1.0000 0.1144448146
H   H2        1.0  0.92530  0.35310  0.19840  1.0000 0.1320355007
H   H3        1.0  0.59230  0.56320  0.11350  1.0000 0.1144448146
H   H4        1.0  0.50510  0.37630  0.20150  1.0000 0.1320355007
H   H5        1.0  0.86170  0.21330  0.31250  1.0000 0.1529243012
H   H6        1.0  0.76770  0.00210  0.36810  1.0000 0.1320355007
H   H7        1.0  0.40270  0.15060  0.20420  1.0000 0.1529243012
H   H8        1.0  0.31640  0.94000  0.26110  1.0000 0.1400029231
H   H9        1.0  0.35910  0.70580  0.20710  1.0000 0.1400029231
H   H10       1.0  0.58470  0.89580  0.51100  1.0000 0.1186141078
H   H11       1.0  0.49820  0.68230  0.56790  1.0000 0.1186141078
H   H12       1.0  0.34920  0.48170  0.44510  1.0000 0.1186141078
H   H13       1.0  0.39110  0.78300  0.04740  1.0000 0.1186141078
H   H14       1.0  0.00120  0.46120  0.89030  1.0000 0.1144448146
H   H15       1.0  0.07470  0.64690  0.80160  1.0000 0.1320355007
H   H16       1.0  0.40770  0.43680  0.88650  1.0000 0.1144448146
H   H17       1.0  0.49490  0.62370  0.79850  1.0000 0.1320355007
H   H18       1.0  0.13830  0.78670  0.68750  1.0000 0.1529243012
H   H19       1.0  0.23230  0.99790  0.63190  1.0000 0.1320355007
H   H20       1.0  0.59730  0.84940  0.79580  1.0000 0.1529243012
H   H21       1.0  0.68360  0.06000  0.73890  1.0000 0.1400029231
H   H22       1.0  0.64090  0.29420  0.79290  1.0000 0.1400029231
H   H23       1.0  0.41530  0.10420  0.48900  1.0000 0.1186141078
H   H24       1.0  0.50180  0.31770  0.43210  1.0000 0.1186141078
H   H25       1.0  0.65080  0.51830  0.55490  1.0000 0.1186141078
H   H26       1.0  0.60890  0.21700  0.95260  1.0000 0.1186141078
C   C1        1.0  0.89740  0.50430  0.12716  1.0000 0.100081314
C   C2        1.0  0.85390  0.39240  0.18006  1.0000 -0.1699635665
C   C3        1.0  0.65860  0.51850  0.12930  1.0000 0.100081314
C   C4        1.0  0.60500  0.40600  0.18220  1.0000 -0.1699635665
C   C5        1.0  0.70200  0.33790  0.20614  1.0000 0.100081314
C   C6        1.0  0.64360  0.20640  0.25020  1.0000 0.1186141078
C   C7        1.0  0.75070  0.15880  0.30110  1.0000 -0.1619323771
C   C8        1.0  0.69480  0.03300  0.33440  1.0000 0.0456647445
C   C9        1.0  0.47800  0.12150  0.23665  1.0000 -0.1619323771
C   C10       1.0  0.42670  0.99610  0.27087  1.0000 0.0327471737
C   C11       1.0  0.47870  0.81880  0.35397  1.0000 0.1400029231
C   C12       1.0  0.38830  0.70010  0.27915  1.0000 -0.1754932385
C   C13       1.0  0.34150  0.57190  0.31263  1.0000 -0.001189544
C   C14       1.0  0.52240  0.81450  0.46190  1.0000 -0.1979648005
C   C15       1.0  0.47190  0.68720  0.49530  1.0000 -0.0671925228
C   C16       1.0  0.38250  0.56710  0.42160  1.0000 -0.1148167904
C   C17       1.0  0.25720  0.43890  0.23320  1.0000 0.5409902502
C   C18       1.0  0.15670  0.85630  0.99199  1.0000 0.5324628521
C   C19       1.0  0.33470  0.93300  0.99725  1.0000 -0.0518455598
C   C20       1.0  0.43520  0.87080  0.02845  1.0000 -0.1542602014
C   C21       1.0  0.39880  0.06390  0.96777  1.0000 -0.0346549954
C   C22       1.0  0.30080  0.14360  0.93918  1.0000 0.5704302956
C   C23       1.0  0.10260  0.49570  0.87284  1.0000 0.100081314
C   C24       1.0  0.14610  0.60760  0.81994  1.0000 -0.1699635665
C   C25       1.0  0.34140  0.48150  0.87070  1.0000 0.100081314
C   C26       1.0  0.39500  0.59400  0.81780  1.0000 -0.1699635665
C   C27       1.0  0.29800  0.66210  0.79386  1.0000 0.100081314
C   C28       1.0  0.35640  0.79360  0.74980  1.0000 0.1186141078
C   C29       1.0  0.24930  0.84120  0.69890  1.0000 -0.1619323771
C   C30       1.0  0.30520  0.96700  0.66560  1.0000 0.0456647445
C   C31       1.0  0.52200  0.87850  0.76335  1.0000 -0.1619323771
C   C32       1.0  0.57330  0.00390  0.72913  1.0000 0.0327471737
C   C33       1.0  0.52130  0.18120  0.64603  1.0000 0.1400029231
C   C34       1.0  0.61170  0.29990  0.72085  1.0000 -0.1754932385
C   C35       1.0  0.65850  0.42810  0.68737  1.0000 -0.001189544
C   C36       1.0  0.47760  0.18550  0.53810  1.0000 -0.1979648005
C   C37       1.0  0.52810  0.31280  0.50470  1.0000 -0.0671925228
C   C38       1.0  0.61750  0.43290  0.57840  1.0000 -0.1148167904
C   C39       1.0  0.74280  0.56110  0.76680  1.0000 0.5409902502
C   C40       1.0  0.84330  0.14370  0.00801  1.0000 0.5324628521
C   C41       1.0  0.66530  0.06700  0.00275  1.0000 -0.0518455598
C   C42       1.0  0.56480  0.12920  0.97155  1.0000 -0.1542602014
C   C43       1.0  0.60120  0.93610  0.03223  1.0000 -0.0346549954
C   C44       1.0  0.69920  0.85640  0.06082  1.0000 0.5704302956
N   N1        1.0  0.53410  0.95300  0.31862  1.0000 0.0379179586
N   N2        1.0  0.80110  0.56620  0.09952  1.0000 -0.2238178383
N   N3        1.0  0.46590  0.04700  0.68138  1.0000 0.0379179586
N   N4        1.0  0.19890  0.43380  0.90048  1.0000 -0.2238178383
O   O1        1.0  0.22570  0.45096  0.13420  1.0000 -0.5600393843
O   O2        1.0  0.22870  0.32960  0.26661  1.0000 -0.5176733564
O   O3        1.0  0.05860  0.87440  0.92487  1.0000 -0.4728802871
O   O4        1.0  0.11100  0.77100  0.05454  1.0000 -0.5296166371
O   O5        1.0  0.26120  0.15490  0.84553  1.0000 -0.536565883
O   O6        1.0  0.27336  0.19888  0.02145  1.0000 -0.5474228095
O   O7        1.0  0.77430  0.54904  0.86580  1.0000 -0.5600393843
O   O8        1.0  0.77130  0.67040  0.73339  1.0000 -0.5176733564
O   O9        1.0  0.94140  0.12560  0.07513  1.0000 -0.4728802871
O   O10       1.0  0.88900  0.22900  0.94546  1.0000 -0.5296166371
O   O11       1.0  0.73880  0.84510  0.15447  1.0000 -0.536565883
O   O12       1.0  0.72664  0.80112  0.97855  1.0000 -0.5474228095
