# DDEC6 charges by PACMAN v1.1 (https://github.com/mtap-research/PACMAN-charge/)
data_2020[In][nan]3[ASR]2
_chemical_formula_sum              "In24 H192 C336 N16 O104"
_cell_length_a       16.2749
_cell_length_b       31.1452
_cell_length_c       41.7208
_cell_angle_alpha    90
_cell_angle_beta     90
_cell_angle_gamma    90

_symmetry_space_group_name_H-M    "P 1"
_symmetry_Int_Tables_number       1

loop_
  _symmetry_equiv_pos_as_xyz
  'x, y, z'

loop_
  _atom_site_type_symbol
  _atom_site_label
  _atom_site_symmetry_multiplicity
  _atom_site_fract_x
  _atom_site_fract_y
  _atom_site_fract_z
  _atom_site_occupancy
  _atom_site_charge
In  In1       1.0  0.96714  0.55811  0.51954  1.0000 1.4797738783
In  In2       1.0  0.54257  0.27641  0.76227  1.0000 1.4503011964
In  In3       1.0  0.04050  0.52736  0.44339  1.0000 1.4612678252
In  In4       1.0  0.39171  0.21541  0.72206  1.0000 1.4612678252
In  In5       1.0  0.47642  0.30644  0.68497  1.0000 1.4797738783
In  In6       1.0  0.88718  0.46619  0.48163  1.0000 1.4503011964
In  In7       1.0  0.03286  0.44189  0.01954  1.0000 1.4797738783
In  In8       1.0  0.45743  0.72359  0.26227  1.0000 1.4503011964
In  In9       1.0  0.95950  0.47264  0.94339  1.0000 1.4612678252
In  In10      1.0  0.60829  0.78459  0.22206  1.0000 1.4612678252
In  In11      1.0  0.52358  0.69356  0.18497  1.0000 1.4715032888
In  In12      1.0  0.11282  0.53381  0.98163  1.0000 1.4503011964
In  In13      1.0  0.03286  0.05811  0.51954  1.0000 1.4797738783
In  In14      1.0  0.45743  0.77641  0.76227  1.0000 1.4503011964
In  In15      1.0  0.95950  0.02736  0.44339  1.0000 1.4612678252
In  In16      1.0  0.60829  0.71541  0.72206  1.0000 1.4612678252
In  In17      1.0  0.52358  0.80644  0.68497  1.0000 1.4715032888
In  In18      1.0  0.11282  0.96619  0.48163  1.0000 1.4503011964
In  In19      1.0  0.96714  0.94189  0.01954  1.0000 1.4797738783
In  In20      1.0  0.54257  0.22359  0.26227  1.0000 1.4503011964
In  In21      1.0  0.04050  0.97264  0.94339  1.0000 1.4612678252
In  In22      1.0  0.39171  0.28459  0.22206  1.0000 1.4612678252
In  In23      1.0  0.47642  0.19356  0.18497  1.0000 1.4715032888
In  In24      1.0  0.88718  0.03381  0.98163  1.0000 1.4503011964
H   H1        1.0  0.73550  0.61600  0.52750  1.0000 0.121101288
H   H2        1.0  0.71000  0.33960  0.65410  1.0000 0.1280585195
H   H3        1.0  0.81670  0.52790  0.30650  1.0000 0.1280585195
H   H4        1.0  0.99620  0.34610  0.60920  1.0000 0.121101288
H   H5        1.0  0.61390  0.57080  0.21730  1.0000 0.121101288
H   H6        1.0  0.55560  0.60790  0.30630  1.0000 0.121101288
H   H7        1.0  0.82640  0.74220  0.46650  1.0000 0.1280585195
H   H8        1.0  0.84150  0.35950  0.63620  1.0000 0.121101288
H   H9        1.0  0.80940  0.90900  0.42100  1.0000 0.121101288
H   H10       1.0  0.24670  0.36400  0.66930  1.0000 0.121101288
H   H11       1.0  0.75090  0.40600  0.29910  1.0000 0.1280585195
H   H12       1.0  0.87940  0.68040  0.48750  1.0000 0.121101288
H   H13       1.0  0.89570  0.53230  0.35420  1.0000 0.121101288
H   H14       1.0  0.55360  0.46680  0.26480  1.0000 0.121101288
H   H15       1.0  0.68520  0.72270  0.39670  1.0000 0.1280585195
H   H16       1.0  0.53020  0.59390  0.59750  1.0000 0.121101288
H   H17       1.0  0.61700  0.54400  0.32450  1.0000 0.121101288
H   H18       1.0  0.50190  0.53370  0.52240  1.0000 0.121101288
H   H19       1.0  0.87990  0.70370  0.37900  1.0000 0.1280585195
H   H20       1.0  0.61140  0.64580  0.53700  1.0000 0.1280585195
H   H21       1.0  0.75090  0.84450  0.40780  1.0000 0.1280585195
H   H22       1.0  0.44520  0.73300  0.60050  1.0000 0.121101288
H   H23       1.0  0.60610  0.71860  0.35220  1.0000 0.121101288
H   H24       1.0  0.93410  0.33610  0.72180  1.0000 0.121101288
H   H25       1.0  0.74600  0.44950  0.39670  1.0000 0.121101288
H   H26       1.0  0.94000  0.64360  0.39970  1.0000 0.121101288
H   H27       1.0  0.98540  0.38580  0.56020  1.0000 0.1280585195
H   H28       1.0  0.00270  0.84690  0.45310  1.0000 0.121101288
H   H29       1.0  0.42290  0.58770  0.48610  1.0000 0.121101288
H   H30       1.0  0.82840  0.81120  0.35670  1.0000 0.121101288
H   H31       1.0  0.00790  0.28900  0.68920  1.0000 0.121101288
H   H32       1.0  0.95600  0.78490  0.43400  1.0000 0.121101288
H   H33       1.0  0.69340  0.34200  0.28320  1.0000 0.121101288
H   H34       1.0  0.95700  0.48880  0.61460  1.0000 0.121101288
H   H35       1.0  0.66360  0.44830  0.35190  1.0000 0.1280585195
H   H36       1.0  0.95440  0.44580  0.66010  1.0000 0.121101288
H   H37       1.0  0.62830  0.50300  0.51150  1.0000 0.121101288
H   H38       1.0  0.75630  0.80140  0.30720  1.0000 0.121101288
H   H39       1.0  0.42340  0.68940  0.55500  1.0000 0.1280585195
H   H40       1.0  0.56790  0.63660  0.63930  1.0000 0.121101288
H   H41       1.0  0.13430  0.25600  0.69690  1.0000 0.121101288
H   H42       1.0  0.80390  0.31740  0.74070  1.0000 0.121101288
H   H43       1.0  0.12100  0.39490  0.66070  1.0000 0.121101288
H   H44       1.0  0.68470  0.51070  0.23730  1.0000 0.1280585195
H   H45       1.0  0.33420  0.60810  0.57440  1.0000 0.121101288
H   H46       1.0  0.20390  0.58920  0.55690  1.0000 0.121101288
H   H47       1.0  0.29570  0.56100  0.47090  1.0000 0.121101288
H   H48       1.0  0.48610  0.40260  0.25640  1.0000 0.121101288
H   H49       1.0  0.26450  0.38400  0.02750  1.0000 0.121101288
H   H50       1.0  0.29000  0.66040  0.15410  1.0000 0.1280585195
H   H51       1.0  0.18330  0.47210  0.80650  1.0000 0.1280585195
H   H52       1.0  0.00380  0.65390  0.10920  1.0000 0.121101288
H   H53       1.0  0.38610  0.42920  0.71730  1.0000 0.121101288
H   H54       1.0  0.44440  0.39210  0.80630  1.0000 0.121101288
H   H55       1.0  0.17360  0.25780  0.96650  1.0000 0.1280585195
H   H56       1.0  0.15850  0.64050  0.13620  1.0000 0.121101288
H   H57       1.0  0.19060  0.09100  0.92100  1.0000 0.121101288
H   H58       1.0  0.75330  0.63600  0.16930  1.0000 0.121101288
H   H59       1.0  0.24910  0.59400  0.79910  1.0000 0.1280585195
H   H60       1.0  0.12060  0.31960  0.98750  1.0000 0.121101288
H   H61       1.0  0.10430  0.46770  0.85420  1.0000 0.121101288
H   H62       1.0  0.44640  0.53320  0.76480  1.0000 0.121101288
H   H63       1.0  0.31480  0.27730  0.89670  1.0000 0.1280585195
H   H64       1.0  0.46980  0.40610  0.09750  1.0000 0.121101288
H   H65       1.0  0.38300  0.45600  0.82450  1.0000 0.121101288
H   H66       1.0  0.49810  0.46630  0.02240  1.0000 0.121101288
H   H67       1.0  0.12010  0.29630  0.87900  1.0000 0.1280585195
H   H68       1.0  0.38860  0.35420  0.03700  1.0000 0.1280585195
H   H69       1.0  0.24910  0.15550  0.90780  1.0000 0.1280585195
H   H70       1.0  0.55480  0.26700  0.10050  1.0000 0.121101288
H   H71       1.0  0.39390  0.28140  0.85220  1.0000 0.121101288
H   H72       1.0  0.06590  0.66390  0.22180  1.0000 0.121101288
H   H73       1.0  0.25400  0.55050  0.89670  1.0000 0.121101288
H   H74       1.0  0.06000  0.35640  0.89970  1.0000 0.121101288
H   H75       1.0  0.01460  0.61420  0.06020  1.0000 0.1280585195
H   H76       1.0  0.99730  0.15310  0.95310  1.0000 0.121101288
H   H77       1.0  0.57710  0.41230  0.98610  1.0000 0.121101288
H   H78       1.0  0.17160  0.18880  0.85670  1.0000 0.121101288
H   H79       1.0  0.99210  0.71100  0.18920  1.0000 0.121101288
H   H80       1.0  0.04400  0.21510  0.93400  1.0000 0.121101288
H   H81       1.0  0.30660  0.65800  0.78320  1.0000 0.121101288
H   H82       1.0  0.04300  0.51120  0.11460  1.0000 0.121101288
H   H83       1.0  0.33640  0.55170  0.85190  1.0000 0.1280585195
H   H84       1.0  0.04560  0.55420  0.16010  1.0000 0.121101288
H   H85       1.0  0.37170  0.49700  0.01150  1.0000 0.121101288
H   H86       1.0  0.24370  0.19860  0.80720  1.0000 0.121101288
H   H87       1.0  0.57660  0.31060  0.05500  1.0000 0.1280585195
H   H88       1.0  0.43210  0.36340  0.13930  1.0000 0.121101288
H   H89       1.0  0.86570  0.74400  0.19690  1.0000 0.121101288
H   H90       1.0  0.19610  0.68260  0.24070  1.0000 0.121101288
H   H91       1.0  0.87900  0.60510  0.16070  1.0000 0.121101288
H   H92       1.0  0.31530  0.48930  0.73730  1.0000 0.1280585195
H   H93       1.0  0.66580  0.39190  0.07440  1.0000 0.121101288
H   H94       1.0  0.79610  0.41080  0.05690  1.0000 0.121101288
H   H95       1.0  0.70430  0.43900  0.97090  1.0000 0.121101288
H   H96       1.0  0.51390  0.59740  0.75640  1.0000 0.121101288
H   H97       1.0  0.26450  0.11600  0.52750  1.0000 0.121101288
H   H98       1.0  0.29000  0.83960  0.65410  1.0000 0.1280585195
H   H99       1.0  0.18330  0.02790  0.30650  1.0000 0.1280585195
H   H100      1.0  0.00380  0.84610  0.60920  1.0000 0.121101288
H   H101      1.0  0.38610  0.07080  0.21730  1.0000 0.121101288
H   H102      1.0  0.44440  0.10790  0.30630  1.0000 0.121101288
H   H103      1.0  0.17360  0.24220  0.46650  1.0000 0.1280585195
H   H104      1.0  0.15850  0.85950  0.63620  1.0000 0.121101288
H   H105      1.0  0.19060  0.40900  0.42100  1.0000 0.121101288
H   H106      1.0  0.75330  0.86400  0.66930  1.0000 0.121101288
H   H107      1.0  0.24910  0.90600  0.29910  1.0000 0.1280585195
H   H108      1.0  0.12060  0.18040  0.48750  1.0000 0.121101288
H   H109      1.0  0.10430  0.03230  0.35420  1.0000 0.121101288
H   H110      1.0  0.44640  0.96680  0.26480  1.0000 0.121101288
H   H111      1.0  0.31480  0.22270  0.39670  1.0000 0.1280585195
H   H112      1.0  0.46980  0.09390  0.59750  1.0000 0.121101288
H   H113      1.0  0.38300  0.04400  0.32450  1.0000 0.121101288
H   H114      1.0  0.49810  0.03370  0.52240  1.0000 0.121101288
H   H115      1.0  0.12010  0.20370  0.37900  1.0000 0.1280585195
H   H116      1.0  0.38860  0.14580  0.53700  1.0000 0.1280585195
H   H117      1.0  0.24910  0.34450  0.40780  1.0000 0.1280585195
H   H118      1.0  0.55480  0.23300  0.60050  1.0000 0.121101288
H   H119      1.0  0.39390  0.21860  0.35220  1.0000 0.121101288
H   H120      1.0  0.06590  0.83610  0.72180  1.0000 0.121101288
H   H121      1.0  0.25400  0.94950  0.39670  1.0000 0.121101288
H   H122      1.0  0.06000  0.14360  0.39970  1.0000 0.121101288
H   H123      1.0  0.01460  0.88580  0.56020  1.0000 0.1280585195
H   H124      1.0  0.99730  0.34690  0.45310  1.0000 0.121101288
H   H125      1.0  0.57710  0.08770  0.48610  1.0000 0.121101288
H   H126      1.0  0.17160  0.31120  0.35670  1.0000 0.121101288
H   H127      1.0  0.99210  0.78900  0.68920  1.0000 0.121101288
H   H128      1.0  0.04400  0.28490  0.43400  1.0000 0.121101288
H   H129      1.0  0.30660  0.84200  0.28320  1.0000 0.121101288
H   H130      1.0  0.04300  0.98880  0.61460  1.0000 0.121101288
H   H131      1.0  0.33640  0.94830  0.35190  1.0000 0.1280585195
H   H132      1.0  0.04560  0.94580  0.66010  1.0000 0.121101288
H   H133      1.0  0.37170  0.00300  0.51150  1.0000 0.121101288
H   H134      1.0  0.24370  0.30140  0.30720  1.0000 0.121101288
H   H135      1.0  0.57660  0.18940  0.55500  1.0000 0.1280585195
H   H136      1.0  0.43210  0.13660  0.63930  1.0000 0.121101288
H   H137      1.0  0.86570  0.75600  0.69690  1.0000 0.121101288
H   H138      1.0  0.19610  0.81740  0.74070  1.0000 0.121101288
H   H139      1.0  0.87900  0.89490  0.66070  1.0000 0.121101288
H   H140      1.0  0.31530  0.01070  0.23730  1.0000 0.1280585195
H   H141      1.0  0.66580  0.10810  0.57440  1.0000 0.121101288
H   H142      1.0  0.79610  0.08920  0.55690  1.0000 0.121101288
H   H143      1.0  0.70430  0.06100  0.47090  1.0000 0.121101288
H   H144      1.0  0.51390  0.90260  0.25640  1.0000 0.121101288
H   H145      1.0  0.73550  0.88400  0.02750  1.0000 0.121101288
H   H146      1.0  0.71000  0.16040  0.15410  1.0000 0.1280585195
H   H147      1.0  0.81670  0.97210  0.80650  1.0000 0.1280585195
H   H148      1.0  0.99620  0.15390  0.10920  1.0000 0.121101288
H   H149      1.0  0.61390  0.92920  0.71730  1.0000 0.121101288
H   H150      1.0  0.55560  0.89210  0.80630  1.0000 0.121101288
H   H151      1.0  0.82640  0.75780  0.96650  1.0000 0.1280585195
H   H152      1.0  0.84150  0.14050  0.13620  1.0000 0.121101288
H   H153      1.0  0.80940  0.59100  0.92100  1.0000 0.121101288
H   H154      1.0  0.24670  0.13600  0.16930  1.0000 0.121101288
H   H155      1.0  0.75090  0.09400  0.79910  1.0000 0.1280585195
H   H156      1.0  0.87940  0.81960  0.98750  1.0000 0.121101288
H   H157      1.0  0.89570  0.96770  0.85420  1.0000 0.121101288
H   H158      1.0  0.55360  0.03320  0.76480  1.0000 0.121101288
H   H159      1.0  0.68520  0.77730  0.89670  1.0000 0.1280585195
H   H160      1.0  0.53020  0.90610  0.09750  1.0000 0.121101288
H   H161      1.0  0.61700  0.95600  0.82450  1.0000 0.121101288
H   H162      1.0  0.50190  0.96630  0.02240  1.0000 0.121101288
H   H163      1.0  0.87990  0.79630  0.87900  1.0000 0.1280585195
H   H164      1.0  0.61140  0.85420  0.03700  1.0000 0.1280585195
H   H165      1.0  0.75090  0.65550  0.90780  1.0000 0.1280585195
H   H166      1.0  0.44520  0.76700  0.10050  1.0000 0.121101288
H   H167      1.0  0.60610  0.78140  0.85220  1.0000 0.121101288
H   H168      1.0  0.93410  0.16390  0.22180  1.0000 0.121101288
H   H169      1.0  0.74600  0.05050  0.89670  1.0000 0.121101288
H   H170      1.0  0.94000  0.85640  0.89970  1.0000 0.121101288
H   H171      1.0  0.98540  0.11420  0.06020  1.0000 0.1280585195
H   H172      1.0  0.00270  0.65310  0.95310  1.0000 0.121101288
H   H173      1.0  0.42290  0.91230  0.98610  1.0000 0.121101288
H   H174      1.0  0.82840  0.68880  0.85670  1.0000 0.121101288
H   H175      1.0  0.00790  0.21100  0.18920  1.0000 0.121101288
H   H176      1.0  0.95600  0.71510  0.93400  1.0000 0.121101288
H   H177      1.0  0.69340  0.15800  0.78320  1.0000 0.121101288
H   H178      1.0  0.95700  0.01120  0.11460  1.0000 0.121101288
H   H179      1.0  0.66360  0.05170  0.85190  1.0000 0.1280585195
H   H180      1.0  0.95440  0.05420  0.16010  1.0000 0.121101288
H   H181      1.0  0.62830  0.99700  0.01150  1.0000 0.121101288
H   H182      1.0  0.75630  0.69860  0.80720  1.0000 0.121101288
H   H183      1.0  0.42340  0.81060  0.05500  1.0000 0.1280585195
H   H184      1.0  0.56790  0.86340  0.13930  1.0000 0.121101288
H   H185      1.0  0.13430  0.24400  0.19690  1.0000 0.121101288
H   H186      1.0  0.80390  0.18260  0.24070  1.0000 0.121101288
H   H187      1.0  0.12100  0.10510  0.16070  1.0000 0.121101288
H   H188      1.0  0.68470  0.98930  0.73730  1.0000 0.1280585195
H   H189      1.0  0.33420  0.89190  0.07440  1.0000 0.121101288
H   H190      1.0  0.20390  0.91080  0.05690  1.0000 0.121101288
H   H191      1.0  0.29570  0.93900  0.97090  1.0000 0.1147708111
H   H192      1.0  0.48610  0.09740  0.75640  1.0000 0.121101288
C   C1        1.0  0.68840  0.59920  0.52620  1.0000 -0.0954976044
C   C2        1.0  0.75500  0.33820  0.66780  1.0000 -0.0881499743
C   C3        1.0  0.80240  0.51170  0.32430  1.0000 -0.1989354844
C   C4        1.0  0.98500  0.37540  0.61020  1.0000 -0.23863074
C   C5        1.0  0.69390  0.55720  0.51780  1.0000 -0.0486231372
C   C6        1.0  0.62280  0.75740  0.29520  1.0000 0.600107139
C   C7        1.0  0.58110  0.59440  0.25970  1.0000 -0.0430117814
C   C8        1.0  0.61650  0.56600  0.23930  1.0000 -0.0834223194
C   C9        1.0  0.54880  0.32290  0.25730  1.0000 0.5918979906
C   C10       1.0  0.77840  0.53890  0.51220  1.0000 0.600107139
C   C11       1.0  0.53610  0.63350  0.24550  1.0000 0.5918979906
C   C12       1.0  0.95450  0.46780  0.55270  1.0000 0.600107139
C   C13       1.0  0.57960  0.58840  0.29220  1.0000 -0.0881499743
C   C14       1.0  0.84940  0.72200  0.45280  1.0000 -0.1717675999
C   C15       1.0  0.67430  0.76030  0.32450  1.0000 -0.0614502555
C   C16       1.0  0.20420  0.30690  0.68530  1.0000 -0.0614502555
C   C17       1.0  0.89870  0.35100  0.67710  1.0000 0.1600953327
C   C18       1.0  0.83430  0.35100  0.65730  1.0000 -0.193937621
C   C19       1.0  0.66200  0.31070  0.70885  1.0000 0.600107139
C   C20       1.0  0.87950  0.49420  0.41050  1.0000 0.600107139
C   C21       1.0  0.83820  0.88370  0.42470  1.0000 -0.0834223194
C   C22       1.0  0.19900  0.34850  0.67350  1.0000 -0.0881499743
C   C23       1.0  0.28570  0.28650  0.69010  1.0000 0.600107139
C   C24       1.0  0.69850  0.40560  0.29020  1.0000 -0.1989354844
C   C25       1.0  0.88350  0.68560  0.46560  1.0000 -0.0834223194
C   C26       1.0  0.39140  0.59970  0.53320  1.0000 0.1774563622
C   C27       1.0  0.15530  0.56030  0.50119  1.0000 0.600107139
C   C28       1.0  0.85030  0.51420  0.35360  1.0000 -0.0881499743
C   C29       1.0  0.91600  0.88550  0.43910  1.0000 -0.0715818829
C   C30       1.0  0.57910  0.44130  0.27070  1.0000 -0.1989354844
C   C31       1.0  0.69860  0.73940  0.37890  1.0000 -0.1803039655
C   C32       1.0  0.84790  0.72940  0.42180  1.0000 0.1436845213
C   C33       1.0  0.76540  0.76630  0.38060  1.0000 0.1509309504
C   C34       1.0  0.51470  0.62270  0.59720  1.0000 -0.1803039655
C   C35       1.0  0.05010  0.34430  0.67270  1.0000 0.1774563622
C   C36       1.0  0.61790  0.54980  0.30260  1.0000 -0.1989354844
C   C37       1.0  0.54930  0.55030  0.52370  1.0000 -0.2066872435
C   C38       1.0  0.54320  0.59440  0.53290  1.0000 0.1684631966
C   C39       1.0  0.52900  0.71640  0.65300  1.0000 0.6064536832
C   C40       1.0  0.88180  0.69960  0.40110  1.0000 -0.1989354844
C   C41       1.0  0.61380  0.61660  0.53250  1.0000 -0.1803039655
C   C42       1.0  0.23690  0.57360  0.51140  1.0000 -0.0881499743
C   C43       1.0  0.80410  0.84530  0.41600  1.0000 -0.193937621
C   C44       1.0  0.46480  0.70500  0.60000  1.0000 -0.0881499743
C   C45       1.0  0.65220  0.73630  0.35240  1.0000 -0.0834223194
C   C46       1.0  0.47570  0.63630  0.57270  1.0000 0.1280585195
C   C47       1.0  0.84830  0.80790  0.41930  1.0000 0.1600953327
C   C48       1.0  0.92460  0.65600  0.44570  1.0000 -0.0715818829
C   C49       1.0  0.65460  0.44370  0.28650  1.0000 0.1684631966
C   C50       1.0  0.96300  0.44150  0.58300  1.0000 -0.0430117814
C   C51       1.0  0.88900  0.33720  0.70820  1.0000 -0.1989354844
C   C52       1.0  0.76030  0.46550  0.37880  1.0000 -0.0881499743
C   C53       1.0  0.91830  0.66380  0.41380  1.0000 -0.0834223194
C   C54       1.0  0.97890  0.39900  0.58010  1.0000 -0.0834223194
C   C55       1.0  0.95240  0.84720  0.44250  1.0000 -0.0834223194
C   C56       1.0  0.95360  0.92680  0.44900  1.0000 0.600107139
C   C57       1.0  0.37990  0.58660  0.50070  1.0000 -0.2066872435
C   C58       1.0  0.78590  0.79140  0.35520  1.0000 -0.1989354844
C   C59       1.0  0.73680  0.48550  0.32370  1.0000 0.1600953327
C   C60       1.0  0.65470  0.52170  0.28390  1.0000 0.1509309504
C   C61       1.0  0.05570  0.30410  0.68450  1.0000 -0.2066872435
C   C62       1.0  0.92410  0.80960  0.43220  1.0000 -0.1803039655
C   C63       1.0  0.66380  0.36730  0.28060  1.0000 -0.0881499743
C   C64       1.0  0.96040  0.45910  0.61250  1.0000 -0.0834223194
C   C65       1.0  0.71240  0.46380  0.35170  1.0000 -0.1989354844
C   C66       1.0  0.96270  0.43300  0.64020  1.0000 -0.193937621
C   C67       1.0  0.62460  0.53190  0.51680  1.0000 -0.0834223194
C   C68       1.0  0.74020  0.78650  0.32550  1.0000 -0.0834223194
C   C69       1.0  0.58770  0.36560  0.26760  1.0000 -0.0430117814
C   C70       1.0  0.45030  0.67820  0.57280  1.0000 -0.23863074
C   C71       1.0  0.96400  0.61680  0.45720  1.0000 0.5918979906
C   C72       1.0  0.53520  0.64770  0.62300  1.0000 -0.0881499743
C   C73       1.0  0.74660  0.32390  0.69800  1.0000 -0.0430117814
C   C74       1.0  0.13230  0.28440  0.69000  1.0000 -0.0834223194
C   C75       1.0  0.81160  0.32490  0.71940  1.0000 -0.0834223194
C   C76       1.0  0.12340  0.36670  0.66790  1.0000 -0.1989354844
C   C77       1.0  0.65710  0.52930  0.25110  1.0000 -0.2066872435
C   C78       1.0  0.97570  0.39290  0.63910  1.0000 0.1280585195
C   C79       1.0  0.50710  0.68900  0.62450  1.0000 -0.0430117814
C   C80       1.0  0.83150  0.49160  0.37930  1.0000 -0.0486231372
C   C81       1.0  0.32660  0.59980  0.55320  1.0000 -0.1989354844
C   C82       1.0  0.24830  0.58780  0.54290  1.0000 -0.0715818829
C   C83       1.0  0.30250  0.57210  0.49150  1.0000 -0.0715818829
C   C84       1.0  0.54020  0.40350  0.26350  1.0000 -0.0881499743
C   C85       1.0  0.31160  0.40080  0.02620  1.0000 -0.0954976044
C   C86       1.0  0.24500  0.66180  0.16780  1.0000 -0.0881499743
C   C87       1.0  0.19760  0.48830  0.82430  1.0000 -0.1989354844
C   C88       1.0  0.01500  0.62460  0.11020  1.0000 -0.23863074
C   C89       1.0  0.30610  0.44280  0.01780  1.0000 -0.0486231372
C   C90       1.0  0.37720  0.24260  0.79520  1.0000 0.600107139
C   C91       1.0  0.41890  0.40560  0.75970  1.0000 -0.0430117814
C   C92       1.0  0.38350  0.43400  0.73930  1.0000 -0.0834223194
C   C93       1.0  0.45120  0.67710  0.75730  1.0000 0.5918979906
C   C94       1.0  0.22160  0.46110  0.01220  1.0000 0.600107139
C   C95       1.0  0.46390  0.36650  0.74550  1.0000 0.5918979906
C   C96       1.0  0.04550  0.53220  0.05270  1.0000 0.600107139
C   C97       1.0  0.42040  0.41160  0.79220  1.0000 -0.0881499743
C   C98       1.0  0.15060  0.27800  0.95280  1.0000 -0.1717675999
C   C99       1.0  0.32570  0.23970  0.82450  1.0000 -0.0614502555
C   C100      1.0  0.79580  0.69310  0.18530  1.0000 -0.0614502555
C   C101      1.0  0.10130  0.64900  0.17710  1.0000 0.1600953327
C   C102      1.0  0.16570  0.64900  0.15730  1.0000 -0.193937621
C   C103      1.0  0.33800  0.68930  0.20885  1.0000 0.600107139
C   C104      1.0  0.12050  0.50580  0.91050  1.0000 0.600107139
C   C105      1.0  0.16180  0.11630  0.92470  1.0000 -0.0834223194
C   C106      1.0  0.80100  0.65150  0.17350  1.0000 -0.0881499743
C   C107      1.0  0.71430  0.71350  0.19010  1.0000 0.600107139
C   C108      1.0  0.30150  0.59440  0.79020  1.0000 -0.1989354844
C   C109      1.0  0.11650  0.31440  0.96560  1.0000 -0.0881499743
C   C110      1.0  0.60860  0.40030  0.03320  1.0000 0.1774563622
C   C111      1.0  0.84470  0.43970  0.00119  1.0000 0.600107139
C   C112      1.0  0.14970  0.48580  0.85360  1.0000 -0.0881499743
C   C113      1.0  0.08400  0.11450  0.93910  1.0000 -0.0715818829
C   C114      1.0  0.42090  0.55870  0.77070  1.0000 -0.1989354844
C   C115      1.0  0.30140  0.26060  0.87890  1.0000 -0.1803039655
C   C116      1.0  0.15210  0.27060  0.92180  1.0000 0.1436845213
C   C117      1.0  0.23460  0.23370  0.88060  1.0000 0.1509309504
C   C118      1.0  0.48530  0.37730  0.09720  1.0000 -0.1803039655
C   C119      1.0  0.94990  0.65570  0.17270  1.0000 0.1774563622
C   C120      1.0  0.38210  0.45020  0.80260  1.0000 -0.1989354844
C   C121      1.0  0.45070  0.44970  0.02370  1.0000 -0.2066872435
C   C122      1.0  0.45680  0.40560  0.03290  1.0000 0.1600953327
C   C123      1.0  0.47100  0.28360  0.15300  1.0000 0.6064536832
C   C124      1.0  0.11820  0.30040  0.90110  1.0000 -0.1989354844
C   C125      1.0  0.38620  0.38340  0.03250  1.0000 -0.1803039655
C   C126      1.0  0.76310  0.42640  0.01140  1.0000 -0.0881499743
C   C127      1.0  0.19590  0.15470  0.91600  1.0000 -0.193937621
C   C128      1.0  0.53520  0.29500  0.10000  1.0000 -0.0881499743
C   C129      1.0  0.34780  0.26370  0.85240  1.0000 -0.0834223194
C   C130      1.0  0.52430  0.36370  0.07270  1.0000 0.1280585195
C   C131      1.0  0.15170  0.19210  0.91930  1.0000 0.1600953327
C   C132      1.0  0.07540  0.34400  0.94570  1.0000 -0.0715818829
C   C133      1.0  0.34540  0.55630  0.78650  1.0000 0.1684631966
C   C134      1.0  0.03700  0.55850  0.08300  1.0000 -0.0430117814
C   C135      1.0  0.11100  0.66280  0.20820  1.0000 -0.1989354844
C   C136      1.0  0.23970  0.53450  0.87880  1.0000 -0.0881499743
C   C137      1.0  0.08170  0.33620  0.91380  1.0000 -0.0834223194
C   C138      1.0  0.02110  0.60100  0.08010  1.0000 -0.0834223194
C   C139      1.0  0.04760  0.15280  0.94250  1.0000 -0.0834223194
C   C140      1.0  0.04640  0.07320  0.94900  1.0000 0.600107139
C   C141      1.0  0.62010  0.41340  0.00070  1.0000 -0.2066872435
C   C142      1.0  0.21410  0.20860  0.85520  1.0000 -0.1989354844
C   C143      1.0  0.26320  0.51450  0.82370  1.0000 0.1600953327
C   C144      1.0  0.34530  0.47830  0.78390  1.0000 0.1509309504
C   C145      1.0  0.94430  0.69590  0.18450  1.0000 -0.2066872435
C   C146      1.0  0.07590  0.19040  0.93220  1.0000 -0.1803039655
C   C147      1.0  0.33620  0.63270  0.78060  1.0000 -0.0881499743
C   C148      1.0  0.03960  0.54090  0.11250  1.0000 -0.0881499743
C   C149      1.0  0.28760  0.53620  0.85170  1.0000 -0.1989354844
C   C150      1.0  0.03730  0.56700  0.14020  1.0000 -0.1989354844
C   C151      1.0  0.37540  0.46810  0.01680  1.0000 -0.0834223194
C   C152      1.0  0.25980  0.21350  0.82550  1.0000 -0.0834223194
C   C153      1.0  0.41230  0.63440  0.76760  1.0000 -0.0430117814
C   C154      1.0  0.54970  0.32180  0.07280  1.0000 -0.23863074
C   C155      1.0  0.03600  0.38320  0.95720  1.0000 0.5918979906
C   C156      1.0  0.46480  0.35230  0.12300  1.0000 -0.0881499743
C   C157      1.0  0.25340  0.67610  0.19800  1.0000 -0.0430117814
C   C158      1.0  0.86770  0.71560  0.19000  1.0000 -0.0834223194
C   C159      1.0  0.18840  0.67510  0.21940  1.0000 -0.0834223194
C   C160      1.0  0.87660  0.63330  0.16790  1.0000 -0.1989354844
C   C161      1.0  0.34290  0.47070  0.75110  1.0000 -0.2066872435
C   C162      1.0  0.02430  0.60710  0.13910  1.0000 0.1280585195
C   C163      1.0  0.49290  0.31100  0.12450  1.0000 -0.0430117814
C   C164      1.0  0.16850  0.50840  0.87930  1.0000 -0.0486231372
C   C165      1.0  0.67340  0.40020  0.05320  1.0000 -0.1989354844
C   C166      1.0  0.75170  0.41220  0.04290  1.0000 -0.0715818829
C   C167      1.0  0.69750  0.42790  0.99150  1.0000 -0.0715818829
C   C168      1.0  0.45980  0.59650  0.76350  1.0000 -0.0881499743
C   C169      1.0  0.31160  0.09920  0.52620  1.0000 -0.0954976044
C   C170      1.0  0.24500  0.83820  0.66780  1.0000 -0.0881499743
C   C171      1.0  0.19760  0.01170  0.32430  1.0000 -0.1989354844
C   C172      1.0  0.01500  0.87540  0.61020  1.0000 -0.23863074
C   C173      1.0  0.30610  0.05720  0.51780  1.0000 -0.0486231372
C   C174      1.0  0.37720  0.25740  0.29520  1.0000 0.600107139
C   C175      1.0  0.41890  0.09440  0.25970  1.0000 -0.0430117814
C   C176      1.0  0.38350  0.06600  0.23930  1.0000 -0.0881499743
C   C177      1.0  0.45120  0.82290  0.25730  1.0000 0.5918979906
C   C178      1.0  0.22160  0.03890  0.51220  1.0000 0.600107139
C   C179      1.0  0.46390  0.13350  0.24550  1.0000 0.5918979906
C   C180      1.0  0.04550  0.96780  0.55270  1.0000 0.600107139
C   C181      1.0  0.42040  0.08840  0.29220  1.0000 -0.0881499743
C   C182      1.0  0.15060  0.22200  0.45280  1.0000 -0.1717675999
C   C183      1.0  0.32570  0.26030  0.32450  1.0000 -0.0614502555
C   C184      1.0  0.79580  0.80690  0.68530  1.0000 -0.0614502555
C   C185      1.0  0.10130  0.85100  0.67710  1.0000 0.1600953327
C   C186      1.0  0.16570  0.85100  0.65730  1.0000 -0.193937621
C   C187      1.0  0.33800  0.81070  0.70885  1.0000 0.600107139
C   C188      1.0  0.12050  0.99420  0.41050  1.0000 0.600107139
C   C189      1.0  0.16180  0.38370  0.42470  1.0000 -0.0834223194
C   C190      1.0  0.80100  0.84850  0.67350  1.0000 -0.0881499743
C   C191      1.0  0.71430  0.78650  0.69010  1.0000 0.600107139
C   C192      1.0  0.30150  0.90560  0.29020  1.0000 -0.1989354844
C   C193      1.0  0.11650  0.18560  0.46560  1.0000 -0.0881499743
C   C194      1.0  0.60860  0.09970  0.53320  1.0000 0.1774563622
C   C195      1.0  0.84470  0.06030  0.50119  1.0000 0.600107139
C   C196      1.0  0.14970  0.01420  0.35360  1.0000 -0.0881499743
C   C197      1.0  0.08400  0.38550  0.43910  1.0000 -0.0715818829
C   C198      1.0  0.42090  0.94130  0.27070  1.0000 -0.1989354844
C   C199      1.0  0.30140  0.23940  0.37890  1.0000 -0.1803039655
C   C200      1.0  0.15210  0.22940  0.42180  1.0000 0.1436845213
C   C201      1.0  0.23460  0.26630  0.38060  1.0000 0.1509309504
C   C202      1.0  0.48530  0.12270  0.59720  1.0000 -0.1803039655
C   C203      1.0  0.94990  0.84430  0.67270  1.0000 0.1774563622
C   C204      1.0  0.38210  0.04980  0.30260  1.0000 -0.1989354844
C   C205      1.0  0.45070  0.05030  0.52370  1.0000 -0.2066872435
C   C206      1.0  0.45680  0.09440  0.53290  1.0000 0.1684631966
C   C207      1.0  0.47100  0.21640  0.65300  1.0000 0.6064536832
C   C208      1.0  0.11820  0.19960  0.40110  1.0000 -0.1989354844
C   C209      1.0  0.38620  0.11660  0.53250  1.0000 -0.1803039655
C   C210      1.0  0.76310  0.07360  0.51140  1.0000 -0.0881499743
C   C211      1.0  0.19590  0.34530  0.41600  1.0000 -0.193937621
C   C212      1.0  0.53520  0.20500  0.60000  1.0000 -0.0834223194
C   C213      1.0  0.34780  0.23630  0.35240  1.0000 -0.0834223194
C   C214      1.0  0.52430  0.13630  0.57270  1.0000 0.1280585195
C   C215      1.0  0.15170  0.30790  0.41930  1.0000 0.1600953327
C   C216      1.0  0.07540  0.15600  0.44570  1.0000 -0.0715818829
C   C217      1.0  0.34540  0.94370  0.28650  1.0000 0.1684631966
C   C218      1.0  0.03700  0.94150  0.58300  1.0000 -0.0430117814
C   C219      1.0  0.11100  0.83720  0.70820  1.0000 -0.1989354844
C   C220      1.0  0.23970  0.96550  0.37880  1.0000 -0.0881499743
C   C221      1.0  0.08170  0.16380  0.41380  1.0000 -0.0834223194
C   C222      1.0  0.02110  0.89900  0.58010  1.0000 -0.0834223194
C   C223      1.0  0.04760  0.34720  0.44250  1.0000 -0.0834223194
C   C224      1.0  0.04640  0.42680  0.44900  1.0000 0.600107139
C   C225      1.0  0.62010  0.08660  0.50070  1.0000 -0.2066872435
C   C226      1.0  0.21410  0.29140  0.35520  1.0000 -0.1989354844
C   C227      1.0  0.26320  0.98550  0.32370  1.0000 0.1600953327
C   C228      1.0  0.34530  0.02170  0.28390  1.0000 0.1509309504
C   C229      1.0  0.94430  0.80410  0.68450  1.0000 -0.2066872435
C   C230      1.0  0.07590  0.30960  0.43220  1.0000 -0.1803039655
C   C231      1.0  0.33620  0.86730  0.28060  1.0000 -0.0881499743
C   C232      1.0  0.03960  0.95910  0.61250  1.0000 -0.0881499743
C   C233      1.0  0.28760  0.96380  0.35170  1.0000 -0.1989354844
C   C234      1.0  0.03730  0.93300  0.64020  1.0000 -0.193937621
C   C235      1.0  0.37540  0.03190  0.51680  1.0000 -0.0834223194
C   C236      1.0  0.25980  0.28650  0.32550  1.0000 -0.0834223194
C   C237      1.0  0.41230  0.86560  0.26760  1.0000 -0.0430117814
C   C238      1.0  0.54970  0.17820  0.57280  1.0000 -0.23863074
C   C239      1.0  0.03600  0.11680  0.45720  1.0000 0.5918979906
C   C240      1.0  0.46480  0.14770  0.62300  1.0000 -0.0881499743
C   C241      1.0  0.25340  0.82390  0.69800  1.0000 -0.0430117814
C   C242      1.0  0.86770  0.78440  0.69000  1.0000 -0.0834223194
C   C243      1.0  0.18840  0.82490  0.71940  1.0000 -0.0834223194
C   C244      1.0  0.87660  0.86670  0.66790  1.0000 -0.1989354844
C   C245      1.0  0.34290  0.02930  0.25110  1.0000 -0.1989354844
C   C246      1.0  0.02430  0.89290  0.63910  1.0000 0.1280585195
C   C247      1.0  0.49290  0.18900  0.62450  1.0000 -0.0430117814
C   C248      1.0  0.16850  0.99160  0.37930  1.0000 -0.0486231372
C   C249      1.0  0.67340  0.09980  0.55320  1.0000 -0.1989354844
C   C250      1.0  0.75170  0.08780  0.54290  1.0000 -0.0715818829
C   C251      1.0  0.69750  0.07210  0.49150  1.0000 -0.0715818829
C   C252      1.0  0.45980  0.90350  0.26350  1.0000 -0.0881499743
C   C253      1.0  0.68840  0.90080  0.02620  1.0000 -0.0881499743
C   C254      1.0  0.75500  0.16180  0.16780  1.0000 -0.0881499743
C   C255      1.0  0.80240  0.98830  0.82430  1.0000 -0.1989354844
C   C256      1.0  0.98500  0.12460  0.11020  1.0000 -0.23863074
C   C257      1.0  0.69390  0.94280  0.01780  1.0000 -0.0486231372
C   C258      1.0  0.62280  0.74260  0.79520  1.0000 0.600107139
C   C259      1.0  0.58110  0.90560  0.75970  1.0000 -0.0430117814
C   C260      1.0  0.61650  0.93400  0.73930  1.0000 -0.0834223194
C   C261      1.0  0.54880  0.17710  0.75730  1.0000 0.5918979906
C   C262      1.0  0.77840  0.96110  0.01220  1.0000 0.600107139
C   C263      1.0  0.53610  0.86650  0.74550  1.0000 0.5918979906
C   C264      1.0  0.95450  0.03220  0.05270  1.0000 0.600107139
C   C265      1.0  0.57960  0.91160  0.79220  1.0000 -0.0881499743
C   C266      1.0  0.84940  0.77800  0.95280  1.0000 -0.1717675999
C   C267      1.0  0.67430  0.73970  0.82450  1.0000 -0.0614502555
C   C268      1.0  0.20420  0.19310  0.18530  1.0000 -0.0614502555
C   C269      1.0  0.89870  0.14900  0.17710  1.0000 0.1600953327
C   C270      1.0  0.83430  0.14900  0.15730  1.0000 -0.193937621
C   C271      1.0  0.66200  0.18930  0.20885  1.0000 0.600107139
C   C272      1.0  0.87950  0.00580  0.91050  1.0000 0.600107139
C   C273      1.0  0.83820  0.61630  0.92470  1.0000 -0.0834223194
C   C274      1.0  0.19900  0.15150  0.17350  1.0000 -0.0881499743
C   C275      1.0  0.28570  0.21350  0.19010  1.0000 0.600107139
C   C276      1.0  0.69850  0.09440  0.79020  1.0000 -0.1989354844
C   C277      1.0  0.88350  0.81440  0.96560  1.0000 -0.0834223194
C   C278      1.0  0.39140  0.90030  0.03320  1.0000 0.1774563622
C   C279      1.0  0.15530  0.93970  0.00119  1.0000 0.600107139
C   C280      1.0  0.85030  0.98580  0.85360  1.0000 -0.0881499743
C   C281      1.0  0.91600  0.61450  0.93910  1.0000 -0.0715818829
C   C282      1.0  0.57910  0.05870  0.77070  1.0000 -0.1989354844
C   C283      1.0  0.69860  0.76060  0.87890  1.0000 -0.1803039655
C   C284      1.0  0.84790  0.77060  0.92180  1.0000 0.1436845213
C   C285      1.0  0.76540  0.73370  0.88060  1.0000 0.1509309504
C   C286      1.0  0.51470  0.87730  0.09720  1.0000 -0.1803039655
C   C287      1.0  0.05010  0.15570  0.17270  1.0000 0.1774563622
C   C288      1.0  0.61790  0.95020  0.80260  1.0000 -0.1989354844
C   C289      1.0  0.54930  0.94970  0.02370  1.0000 -0.2066872435
C   C290      1.0  0.54320  0.90560  0.03290  1.0000 0.1684631966
C   C291      1.0  0.52900  0.78360  0.15300  1.0000 0.6064536832
C   C292      1.0  0.88180  0.80040  0.90110  1.0000 -0.1989354844
C   C293      1.0  0.61380  0.88340  0.03250  1.0000 -0.1803039655
C   C294      1.0  0.23690  0.92640  0.01140  1.0000 -0.0881499743
C   C295      1.0  0.80410  0.65470  0.91600  1.0000 -0.193937621
C   C296      1.0  0.46480  0.79500  0.10000  1.0000 -0.0881499743
C   C297      1.0  0.65220  0.76370  0.85240  1.0000 -0.0834223194
C   C298      1.0  0.47570  0.86370  0.07270  1.0000 0.1280585195
C   C299      1.0  0.84830  0.69210  0.91930  1.0000 0.1600953327
C   C300      1.0  0.92460  0.84400  0.94570  1.0000 -0.0715818829
C   C301      1.0  0.65460  0.05630  0.78650  1.0000 0.1684631966
C   C302      1.0  0.96300  0.05850  0.08300  1.0000 -0.0430117814
C   C303      1.0  0.88900  0.16280  0.20820  1.0000 -0.1989354844
C   C304      1.0  0.76030  0.03450  0.87880  1.0000 -0.0834223194
C   C305      1.0  0.91830  0.83620  0.91380  1.0000 -0.0834223194
C   C306      1.0  0.97890  0.10100  0.08010  1.0000 -0.0834223194
C   C307      1.0  0.95240  0.65280  0.94250  1.0000 -0.0834223194
C   C308      1.0  0.95360  0.57320  0.94900  1.0000 0.600107139
C   C309      1.0  0.37990  0.91340  0.00070  1.0000 -0.2066872435
C   C310      1.0  0.78590  0.70860  0.85520  1.0000 -0.1989354844
C   C311      1.0  0.73680  0.01450  0.82370  1.0000 0.1600953327
C   C312      1.0  0.65470  0.97830  0.78390  1.0000 0.1509309504
C   C313      1.0  0.05570  0.19590  0.18450  1.0000 -0.2066872435
C   C314      1.0  0.92410  0.69040  0.93220  1.0000 -0.1803039655
C   C315      1.0  0.66380  0.13270  0.78060  1.0000 -0.0881499743
C   C316      1.0  0.96040  0.04090  0.11250  1.0000 -0.0881499743
C   C317      1.0  0.71240  0.03620  0.85170  1.0000 -0.1989354844
C   C318      1.0  0.96270  0.06700  0.14020  1.0000 -0.193937621
C   C319      1.0  0.62460  0.96810  0.01680  1.0000 -0.0834223194
C   C320      1.0  0.74020  0.71350  0.82550  1.0000 -0.0834223194
C   C321      1.0  0.58770  0.13440  0.76760  1.0000 -0.0430117814
C   C322      1.0  0.45030  0.82180  0.07280  1.0000 -0.23863074
C   C323      1.0  0.96400  0.88320  0.95720  1.0000 0.5918979906
C   C324      1.0  0.53520  0.85230  0.12300  1.0000 -0.0881499743
C   C325      1.0  0.74660  0.17610  0.19800  1.0000 -0.0430117814
C   C326      1.0  0.13230  0.21560  0.19000  1.0000 -0.0834223194
C   C327      1.0  0.81160  0.17510  0.21940  1.0000 -0.0834223194
C   C328      1.0  0.12340  0.13330  0.16790  1.0000 -0.1989354844
C   C329      1.0  0.65710  0.97070  0.75110  1.0000 -0.2066872435
C   C330      1.0  0.97570  0.10710  0.13910  1.0000 0.1280585195
C   C331      1.0  0.50710  0.81100  0.12450  1.0000 -0.0430117814
C   C332      1.0  0.83150  0.00840  0.87930  1.0000 -0.0486231372
C   C333      1.0  0.32660  0.90020  0.05320  1.0000 -0.1989354844
C   C334      1.0  0.24830  0.91220  0.04290  1.0000 -0.0715818829
C   C335      1.0  0.30250  0.92790  0.99150  1.0000 -0.0715818829
C   C336      1.0  0.54020  0.09650  0.76350  1.0000 -0.0881499743
N   N1        1.0  0.81420  0.76930  0.40910  1.0000 -0.1803039655
N   N2        1.0  0.46920  0.61100  0.54380  1.0000 -0.1717675999
N   N3        1.0  0.97770  0.36640  0.66650  1.0000 -0.1717675999
N   N4        1.0  0.68850  0.48330  0.29570  1.0000 -0.1717675999
N   N5        1.0  0.18580  0.23070  0.90910  1.0000 -0.1803039655
N   N6        1.0  0.53080  0.38900  0.04380  1.0000 -0.1717675999
N   N7        1.0  0.02230  0.63360  0.16650  1.0000 -0.1717675999
N   N8        1.0  0.31150  0.51670  0.79570  1.0000 -0.1717675999
N   N9        1.0  0.18580  0.26930  0.40910  1.0000 -0.1803039655
N   N10       1.0  0.53080  0.11100  0.54380  1.0000 -0.1717675999
N   N11       1.0  0.02230  0.86640  0.66650  1.0000 -0.1717675999
N   N12       1.0  0.31150  0.98330  0.29570  1.0000 -0.1717675999
N   N13       1.0  0.81420  0.73070  0.90910  1.0000 -0.1803039655
N   N14       1.0  0.46920  0.88900  0.04380  1.0000 -0.1717675999
N   N15       1.0  0.97770  0.13360  0.16650  1.0000 -0.1717675999
N   N16       1.0  0.68850  0.01670  0.79570  1.0000 -0.1717675999
O   O1        1.0  0.78100  0.50240  0.50036  1.0000 -0.5493999965
O   O2        1.0  0.28770  0.25200  0.70604  1.0000 -0.5683344968
O   O3        1.0  0.65250  0.77580  0.27098  1.0000 -0.5683344968
O   O4        1.0  0.83550  0.56020  0.52160  1.0000 -0.5493999965
O   O5        1.0  0.58410  0.29003  0.26511  1.0000 -0.5382301397
O   O6        1.0  0.99690  0.59180  0.43979  1.0000 -0.5105260499
O   O7        1.0  0.47140  0.26608  0.72315  1.0000 -1.0753806121
O   O8        1.0  0.09870  0.56250  0.52139  1.0000 -0.5683344968
O   O9        1.0  0.50020  0.65630  0.26580  1.0000 -0.5610320644
O   O10       1.0  0.96750  0.50810  0.55611  1.0000 -0.5832321979
O   O11       1.0  0.50530  0.75500  0.65184  1.0000 -0.5683344968
O   O12       1.0  0.54060  0.63760  0.21696  1.0000 -0.5344043262
O   O13       1.0  0.96700  0.51651  0.48189  1.0000 -1.0753806121
O   O14       1.0  0.34650  0.30520  0.67769  1.0000 -0.5832321979
O   O15       1.0  0.55490  0.73920  0.29712  1.0000 -0.5610320644
O   O16       1.0  0.60870  0.31250  0.68741  1.0000 -0.5683344968
O   O17       1.0  0.48520  0.32700  0.24180  1.0000 -0.5610320644
O   O18       1.0  0.96480  0.61380  0.48808  1.0000 -0.5872389265
O   O19       1.0  0.65320  0.29590  0.73612  1.0000 -0.5493999965
O   O20       1.0  0.84260  0.47880  0.43410  1.0000 -0.5610320644
O   O21       1.0  0.14580  0.54772  0.47235  1.0000 -0.5832321979
O   O22       1.0  0.94540  0.51060  0.40856  1.0000 -0.5170484818
O   O23       1.0  0.91460  0.96124  0.44174  1.0000 -0.5832321979
O   O24       1.0  0.02270  0.92370  0.46130  1.0000 -0.5610320644
O   O25       1.0  0.57110  0.69960  0.67384  1.0000 -0.5493999965
O   O26       1.0  0.92720  0.44700  0.52998  1.0000 -0.5493999965
O   O27       1.0  0.21900  0.49760  0.00036  1.0000 -0.5493999965
O   O28       1.0  0.71230  0.74800  0.20604  1.0000 -0.5683344968
O   O29       1.0  0.34750  0.22420  0.77098  1.0000 -0.5683344968
O   O30       1.0  0.16450  0.43980  0.02160  1.0000 -0.5493999965
O   O31       1.0  0.41590  0.70997  0.76511  1.0000 -0.5382301397
O   O32       1.0  0.00310  0.40820  0.93979  1.0000 -0.5105260499
O   O33       1.0  0.52860  0.73392  0.22315  1.0000 -1.0739738471
O   O34       1.0  0.90130  0.43750  0.02139  1.0000 -0.5683344968
O   O35       1.0  0.49980  0.34370  0.76580  1.0000 -0.5610320644
O   O36       1.0  0.03250  0.49190  0.05611  1.0000 -0.5832321979
O   O37       1.0  0.49470  0.24500  0.15184  1.0000 -0.5683344968
O   O38       1.0  0.45940  0.36240  0.71696  1.0000 -0.5382301397
O   O39       1.0  0.03300  0.48349  0.98189  1.0000 -1.0739738471
O   O40       1.0  0.65350  0.69480  0.17769  1.0000 -0.5832321979
O   O41       1.0  0.44510  0.26080  0.79712  1.0000 -0.5610320644
O   O42       1.0  0.39130  0.68750  0.18741  1.0000 -0.5683344968
O   O43       1.0  0.51480  0.67300  0.74180  1.0000 -0.5610320644
O   O44       1.0  0.03520  0.38620  0.98808  1.0000 -0.5872389265
O   O45       1.0  0.34680  0.70410  0.23612  1.0000 -0.5493999965
O   O46       1.0  0.15740  0.52120  0.93410  1.0000 -0.5493999965
O   O47       1.0  0.85420  0.45228  0.97235  1.0000 -0.5832321979
O   O48       1.0  0.05460  0.48940  0.90856  1.0000 -0.5170484818
O   O49       1.0  0.08540  0.03876  0.94174  1.0000 -0.5832321979
O   O50       1.0  0.97730  0.07630  0.96130  1.0000 -0.5610320644
O   O51       1.0  0.42890  0.30040  0.17384  1.0000 -0.5493999965
O   O52       1.0  0.07280  0.55300  0.02998  1.0000 -0.5493999965
O   O53       1.0  0.21900  0.00240  0.50036  1.0000 -0.5493999965
O   O54       1.0  0.71230  0.75200  0.70604  1.0000 -0.5683344968
O   O55       1.0  0.34750  0.27580  0.27098  1.0000 -0.5683344968
O   O56       1.0  0.16450  0.06020  0.52160  1.0000 -0.5493999965
O   O57       1.0  0.41590  0.79003  0.26511  1.0000 -0.5382301397
O   O58       1.0  0.00310  0.09180  0.43979  1.0000 -0.5105260499
O   O59       1.0  0.52860  0.76608  0.72315  1.0000 -1.0739738471
O   O60       1.0  0.90130  0.06250  0.52139  1.0000 -0.5683344968
O   O61       1.0  0.49980  0.15630  0.26580  1.0000 -0.5610320644
O   O62       1.0  0.03250  0.00810  0.55611  1.0000 -0.5832321979
O   O63       1.0  0.49470  0.25500  0.65184  1.0000 -0.5683344968
O   O64       1.0  0.45940  0.13760  0.21696  1.0000 -0.5382301397
O   O65       1.0  0.03300  0.01651  0.48189  1.0000 -1.0753806121
O   O66       1.0  0.65350  0.80520  0.67769  1.0000 -0.5832321979
O   O67       1.0  0.44510  0.23920  0.29712  1.0000 -0.5610320644
O   O68       1.0  0.39130  0.81250  0.68741  1.0000 -0.5683344968
O   O69       1.0  0.51480  0.82700  0.24180  1.0000 -0.5610320644
O   O70       1.0  0.03520  0.11380  0.48808  1.0000 -0.5872389265
O   O71       1.0  0.34680  0.79590  0.73612  1.0000 -0.5493999965
O   O72       1.0  0.15740  0.97880  0.43410  1.0000 -0.5610320644
O   O73       1.0  0.85420  0.04772  0.47235  1.0000 -0.5832321979
O   O74       1.0  0.05460  0.01060  0.40856  1.0000 -0.5170484818
O   O75       1.0  0.08540  0.46124  0.44174  1.0000 -0.5832321979
O   O76       1.0  0.97730  0.42370  0.46130  1.0000 -0.5610320644
O   O77       1.0  0.42890  0.19960  0.67384  1.0000 -0.5493999965
O   O78       1.0  0.07280  0.94700  0.52998  1.0000 -0.5382301397
O   O79       1.0  0.78100  0.99760  0.00036  1.0000 -0.5493999965
O   O80       1.0  0.28770  0.24800  0.20604  1.0000 -0.5683344968
O   O81       1.0  0.65250  0.72420  0.77098  1.0000 -0.5683344968
O   O82       1.0  0.83550  0.93980  0.02160  1.0000 -0.5493999965
O   O83       1.0  0.58410  0.20997  0.76511  1.0000 -0.5382301397
O   O84       1.0  0.99690  0.90820  0.93979  1.0000 -0.5105260499
O   O85       1.0  0.47140  0.23392  0.22315  1.0000 -1.0739738471
O   O86       1.0  0.09870  0.93750  0.02139  1.0000 -0.5683344968
O   O87       1.0  0.50020  0.84370  0.76580  1.0000 -0.5610320644
O   O88       1.0  0.96750  0.99190  0.05611  1.0000 -0.5832321979
O   O89       1.0  0.50530  0.74500  0.15184  1.0000 -0.5683344968
O   O90       1.0  0.54060  0.86240  0.71696  1.0000 -0.5382301397
O   O91       1.0  0.96700  0.98349  0.98189  1.0000 -1.0739738471
O   O92       1.0  0.34650  0.19480  0.17769  1.0000 -0.5832321979
O   O93       1.0  0.55490  0.76080  0.79712  1.0000 -0.5610320644
O   O94       1.0  0.60870  0.18750  0.18741  1.0000 -0.5683344968
O   O95       1.0  0.48520  0.17300  0.74180  1.0000 -0.5610320644
O   O96       1.0  0.96480  0.88620  0.98808  1.0000 -0.5872389265
O   O97       1.0  0.65320  0.20410  0.23612  1.0000 -0.5493999965
O   O98       1.0  0.84260  0.02120  0.93410  1.0000 -0.5610320644
O   O99       1.0  0.14580  0.95228  0.97235  1.0000 -0.5832321979
O   O100      1.0  0.94540  0.98940  0.90856  1.0000 -0.5170484818
O   O101      1.0  0.91460  0.53876  0.94174  1.0000 -0.5832321979
O   O102      1.0  0.02270  0.57630  0.96130  1.0000 -0.5610320644
O   O103      1.0  0.57110  0.80040  0.17384  1.0000 -0.5493999965
O   O104      1.0  0.92720  0.05300  0.02998  1.0000 -0.5493999965
