# DDEC6 charges by PACMAN v1.1 (https://github.com/mtap-research/PACMAN-charge/)
data_2020[Zn][tbo]3[ASR]1
_chemical_formula_sum              "Zn12 H24 C72 O48"
_cell_length_a       18.798
_cell_length_b       18.798
_cell_length_c       18.798
_cell_angle_alpha    60
_cell_angle_beta     60
_cell_angle_gamma    60

_symmetry_space_group_name_H-M    "P 1"
_symmetry_Int_Tables_number       1

loop_
  _symmetry_equiv_pos_as_xyz
  'x, y, z'

loop_
  _atom_site_type_symbol
  _atom_site_label
  _atom_site_symmetry_multiplicity
  _atom_site_fract_x
  _atom_site_fract_y
  _atom_site_fract_z
  _atom_site_occupancy
  _atom_site_charge
Zn  Zn1       1.0  0.07930  0.50000  0.50000  1.0000 0.9479038478
Zn  Zn2       1.0  0.50000  0.92070  0.07930  1.0000 0.9479038478
Zn  Zn3       1.0  0.50000  0.07930  0.92070  1.0000 0.9479038478
Zn  Zn4       1.0  0.92070  0.50000  0.50000  1.0000 0.9479038478
Zn  Zn5       1.0  0.50000  0.50000  0.07930  1.0000 0.9479038478
Zn  Zn6       1.0  0.92070  0.07930  0.50000  1.0000 0.9479038478
Zn  Zn7       1.0  0.07930  0.92070  0.50000  1.0000 0.9479038478
Zn  Zn8       1.0  0.50000  0.50000  0.92070  1.0000 0.9479038478
Zn  Zn9       1.0  0.50000  0.07930  0.50000  1.0000 0.9479038478
Zn  Zn10      1.0  0.07930  0.50000  0.92070  1.0000 0.9479038478
Zn  Zn11      1.0  0.92070  0.50000  0.07930  1.0000 0.9479038478
Zn  Zn12      1.0  0.50000  0.92070  0.50000  1.0000 0.9479038478
H   H1        1.0  0.01703  0.52487  0.22905  1.0000 0.1281575174
H   H2        1.0  0.22905  0.22905  0.01703  1.0000 0.1281575174
H   H3        1.0  0.52487  0.01703  0.22905  1.0000 0.1281575174
H   H4        1.0  0.22905  0.22905  0.52487  1.0000 0.1281575174
H   H5        1.0  0.52487  0.22905  0.01703  1.0000 0.1281575174
H   H6        1.0  0.22905  0.01703  0.22905  1.0000 0.1281575174
H   H7        1.0  0.01703  0.22905  0.52487  1.0000 0.1281575174
H   H8        1.0  0.22905  0.52487  0.22905  1.0000 0.1281575174
H   H9        1.0  0.22905  0.01703  0.52487  1.0000 0.1281575174
H   H10       1.0  0.01703  0.22905  0.22905  1.0000 0.1281575174
H   H11       1.0  0.22905  0.52487  0.01703  1.0000 0.1281575174
H   H12       1.0  0.52487  0.22905  0.22905  1.0000 0.1281575174
H   H13       1.0  0.98297  0.77095  0.77095  1.0000 0.1281575174
H   H14       1.0  0.77095  0.47513  0.98297  1.0000 0.1281575174
H   H15       1.0  0.47513  0.77095  0.77095  1.0000 0.1281575174
H   H16       1.0  0.77095  0.98297  0.47513  1.0000 0.1281575174
H   H17       1.0  0.47513  0.77095  0.98297  1.0000 0.1281575174
H   H18       1.0  0.77095  0.47513  0.77095  1.0000 0.1281575174
H   H19       1.0  0.98297  0.77095  0.47513  1.0000 0.1281575174
H   H20       1.0  0.77095  0.98297  0.77095  1.0000 0.1281575174
H   H21       1.0  0.77095  0.77095  0.47513  1.0000 0.1281575174
H   H22       1.0  0.98297  0.47513  0.77095  1.0000 0.1281575174
H   H23       1.0  0.77095  0.77095  0.98297  1.0000 0.1281575174
H   H24       1.0  0.47513  0.98297  0.77095  1.0000 0.1281575174
C   C1        1.0  0.07320  0.52760  0.19960  1.0000 -0.0641475309
C   C2        1.0  0.19960  0.19960  0.07320  1.0000 -0.0641475309
C   C3        1.0  0.52760  0.07320  0.19960  1.0000 -0.0641475309
C   C4        1.0  0.19960  0.19960  0.52760  1.0000 -0.0678685998
C   C5        1.0  0.52760  0.19960  0.07320  1.0000 -0.0678685998
C   C6        1.0  0.19960  0.07320  0.19960  1.0000 -0.0641475309
C   C7        1.0  0.07320  0.19960  0.52760  1.0000 -0.0641475309
C   C8        1.0  0.19960  0.52760  0.19960  1.0000 -0.0678685998
C   C9        1.0  0.19960  0.07320  0.52760  1.0000 -0.0641475309
C   C10       1.0  0.07320  0.19960  0.19960  1.0000 -0.0641475309
C   C11       1.0  0.19960  0.52760  0.07320  1.0000 -0.0641475309
C   C12       1.0  0.52760  0.19960  0.19960  1.0000 -0.0678685998
C   C13       1.0  0.92680  0.80040  0.80040  1.0000 -0.0641475309
C   C14       1.0  0.80040  0.47240  0.92680  1.0000 -0.0641475309
C   C15       1.0  0.47240  0.80040  0.80040  1.0000 -0.0641475309
C   C16       1.0  0.80040  0.92680  0.47240  1.0000 -0.0678685998
C   C17       1.0  0.47240  0.80040  0.92680  1.0000 -0.0641475309
C   C18       1.0  0.80040  0.47240  0.80040  1.0000 -0.0641475309
C   C19       1.0  0.92680  0.80040  0.47240  1.0000 -0.0678685998
C   C20       1.0  0.80040  0.92680  0.80040  1.0000 -0.0678685998
C   C21       1.0  0.80040  0.80040  0.47240  1.0000 -0.0678685998
C   C22       1.0  0.92680  0.47240  0.80040  1.0000 -0.0678685998
C   C23       1.0  0.80040  0.80040  0.92680  1.0000 -0.0641475309
C   C24       1.0  0.47240  0.92680  0.80040  1.0000 -0.0641475309
C   C25       1.0  0.11340  0.52980  0.24340  1.0000 -0.0678685998
C   C26       1.0  0.07030  0.52370  0.33570  1.0000 0.5947356206
C   C27       1.0  0.24340  0.11340  0.11340  1.0000 -0.0678685998
C   C28       1.0  0.33570  0.07030  0.07030  1.0000 0.5947356206
C   C29       1.0  0.52980  0.11340  0.11340  1.0000 -0.0678685998
C   C30       1.0  0.52370  0.07030  0.07030  1.0000 0.5947356206
C   C31       1.0  0.11340  0.24340  0.52980  1.0000 -0.0678685998
C   C32       1.0  0.07030  0.33570  0.52370  1.0000 0.5954826237
C   C33       1.0  0.52980  0.24340  0.11340  1.0000 -0.0678685998
C   C34       1.0  0.52370  0.33570  0.07030  1.0000 0.5947356206
C   C35       1.0  0.11340  0.11340  0.24340  1.0000 -0.0678685998
C   C36       1.0  0.07030  0.07030  0.33570  1.0000 0.5954826237
C   C37       1.0  0.11340  0.11340  0.52980  1.0000 -0.0678685998
C   C38       1.0  0.07030  0.07030  0.52370  1.0000 0.5954826237
C   C39       1.0  0.24340  0.52980  0.11340  1.0000 -0.0678685998
C   C40       1.0  0.33570  0.52370  0.07030  1.0000 0.5947356206
C   C41       1.0  0.24340  0.11340  0.52980  1.0000 -0.0678685998
C   C42       1.0  0.33570  0.07030  0.52370  1.0000 0.5954826237
C   C43       1.0  0.11340  0.24340  0.11340  1.0000 -0.0678685998
C   C44       1.0  0.07030  0.33570  0.07030  1.0000 0.5947356206
C   C45       1.0  0.11340  0.52980  0.11340  1.0000 -0.0678685998
C   C46       1.0  0.07030  0.52370  0.07030  1.0000 0.5954826237
C   C47       1.0  0.52980  0.11340  0.24340  1.0000 -0.0678685998
C   C48       1.0  0.52370  0.07030  0.33570  1.0000 0.5947356206
C   C49       1.0  0.88660  0.88660  0.75660  1.0000 -0.0678685998
C   C50       1.0  0.92970  0.92970  0.66430  1.0000 0.5947356206
C   C51       1.0  0.75660  0.47020  0.88660  1.0000 -0.0678685998
C   C52       1.0  0.66430  0.47630  0.92970  1.0000 0.5947356206
C   C53       1.0  0.47020  0.75660  0.88660  1.0000 -0.0678685998
C   C54       1.0  0.47630  0.66430  0.92970  1.0000 0.5947356206
C   C55       1.0  0.88660  0.88660  0.47020  1.0000 -0.0678685998
C   C56       1.0  0.92970  0.92970  0.47630  1.0000 0.5947356206
C   C57       1.0  0.47020  0.88660  0.88660  1.0000 -0.0678685998
C   C58       1.0  0.47630  0.92970  0.92970  1.0000 0.5947356206
C   C59       1.0  0.88660  0.47020  0.75660  1.0000 -0.0678685998
C   C60       1.0  0.92970  0.47630  0.66430  1.0000 0.5947356206
C   C61       1.0  0.88660  0.75660  0.47020  1.0000 -0.0678685998
C   C62       1.0  0.92970  0.66430  0.47630  1.0000 0.5947356206
C   C63       1.0  0.75660  0.88660  0.88660  1.0000 -0.0678685998
C   C64       1.0  0.66430  0.92970  0.92970  1.0000 0.5947356206
C   C65       1.0  0.75660  0.88660  0.47020  1.0000 -0.0678685998
C   C66       1.0  0.66430  0.92970  0.47630  1.0000 0.5947356206
C   C67       1.0  0.88660  0.47020  0.88660  1.0000 -0.0678685998
C   C68       1.0  0.92970  0.47630  0.92970  1.0000 0.5947356206
C   C69       1.0  0.88660  0.75660  0.88660  1.0000 -0.0678685998
C   C70       1.0  0.92970  0.66430  0.92970  1.0000 0.5947356206
C   C71       1.0  0.47020  0.88660  0.75660  1.0000 -0.0678685998
C   C72       1.0  0.47630  0.92970  0.66430  1.0000 0.5947356206
O   O1        1.0  0.11190  0.51990  0.37290  1.0000 -0.531794578
O   O2        1.0  0.37290  0.99530  0.11190  1.0000 -0.531794578
O   O3        1.0  0.51990  0.11190  0.99530  1.0000 -0.531794578
O   O4        1.0  0.99530  0.37290  0.51990  1.0000 -0.531794578
O   O5        1.0  0.51990  0.37290  0.11190  1.0000 -0.531794578
O   O6        1.0  0.99530  0.11190  0.37290  1.0000 -0.531794578
O   O7        1.0  0.11190  0.99530  0.51990  1.0000 -0.531794578
O   O8        1.0  0.37290  0.51990  0.99530  1.0000 -0.531794578
O   O9        1.0  0.37290  0.11190  0.51990  1.0000 -0.531794578
O   O10       1.0  0.11190  0.37290  0.99530  1.0000 -0.531794578
O   O11       1.0  0.99530  0.51990  0.11190  1.0000 -0.531794578
O   O12       1.0  0.51990  0.99530  0.37290  1.0000 -0.531794578
O   O13       1.0  0.88810  0.00470  0.62710  1.0000 -0.531794578
O   O14       1.0  0.62710  0.48010  0.88810  1.0000 -0.531794578
O   O15       1.0  0.48010  0.62710  0.00470  1.0000 -0.531794578
O   O16       1.0  0.00470  0.88810  0.48010  1.0000 -0.531794578
O   O17       1.0  0.48010  0.00470  0.88810  1.0000 -0.531794578
O   O18       1.0  0.00470  0.48010  0.62710  1.0000 -0.531794578
O   O19       1.0  0.88810  0.62710  0.48010  1.0000 -0.531794578
O   O20       1.0  0.62710  0.88810  0.00470  1.0000 -0.531794578
O   O21       1.0  0.62710  0.00470  0.48010  1.0000 -0.531794578
O   O22       1.0  0.88810  0.48010  0.00470  1.0000 -0.531794578
O   O23       1.0  0.00470  0.62710  0.88810  1.0000 -0.531794578
O   O24       1.0  0.48010  0.88810  0.62710  1.0000 -0.531794578
O   O25       1.0  0.88810  0.48010  0.62710  1.0000 -0.531794578
O   O26       1.0  0.62710  0.00470  0.88810  1.0000 -0.531794578
O   O27       1.0  0.48010  0.88810  0.00470  1.0000 -0.531794578
O   O28       1.0  0.00470  0.62710  0.48010  1.0000 -0.531794578
O   O29       1.0  0.48010  0.62710  0.88810  1.0000 -0.531794578
O   O30       1.0  0.00470  0.88810  0.62710  1.0000 -0.531794578
O   O31       1.0  0.88810  0.00470  0.48010  1.0000 -0.531794578
O   O32       1.0  0.62710  0.48010  0.00470  1.0000 -0.531794578
O   O33       1.0  0.62710  0.88810  0.48010  1.0000 -0.531794578
O   O34       1.0  0.88810  0.62710  0.00470  1.0000 -0.531794578
O   O35       1.0  0.00470  0.48010  0.88810  1.0000 -0.531794578
O   O36       1.0  0.48010  0.00470  0.62710  1.0000 -0.531794578
O   O37       1.0  0.11190  0.99530  0.37290  1.0000 -0.531794578
O   O38       1.0  0.37290  0.51990  0.11190  1.0000 -0.531794578
O   O39       1.0  0.51990  0.37290  0.99530  1.0000 -0.531794578
O   O40       1.0  0.99530  0.11190  0.51990  1.0000 -0.531794578
O   O41       1.0  0.51990  0.99530  0.11190  1.0000 -0.531794578
O   O42       1.0  0.99530  0.51990  0.37290  1.0000 -0.531794578
O   O43       1.0  0.11190  0.37290  0.51990  1.0000 -0.531794578
O   O44       1.0  0.37290  0.11190  0.99530  1.0000 -0.531794578
O   O45       1.0  0.37290  0.99530  0.51990  1.0000 -0.531794578
O   O46       1.0  0.11190  0.51990  0.99530  1.0000 -0.531794578
O   O47       1.0  0.99530  0.37290  0.11190  1.0000 -0.531794578
O   O48       1.0  0.51990  0.11190  0.37290  1.0000 -0.531794578
