# DDEC6 charges by PACMAN v1.1 (https://github.com/mtap-research/PACMAN-charge/)
data_2020[Gd][pts]3[ASR]1
_chemical_formula_sum              "Gd4 H12 C32 O24"
_cell_length_a       9.0752
_cell_length_b       9.6427
_cell_length_c       17.2313
_cell_angle_alpha    90
_cell_angle_beta     103.075
_cell_angle_gamma    90

_symmetry_space_group_name_H-M    "P 1"
_symmetry_Int_Tables_number       1

loop_
  _symmetry_equiv_pos_as_xyz
  'x, y, z'

loop_
  _atom_site_type_symbol
  _atom_site_label
  _atom_site_symmetry_multiplicity
  _atom_site_fract_x
  _atom_site_fract_y
  _atom_site_fract_z
  _atom_site_occupancy
  _atom_site_charge
Gd  Gd1       1.0  0.35901  0.29408  0.78716  1.0000 2.0208076657
Gd  Gd2       1.0  0.14099  0.79408  0.21284  1.0000 2.0208076657
Gd  Gd3       1.0  0.64099  0.70592  0.21284  1.0000 2.0208076657
Gd  Gd4       1.0  0.85901  0.20592  0.78716  1.0000 2.0208076657
H   H1        1.0  0.80130  0.36390  0.59580  1.0000 0.3396686882
H   H2        1.0  0.68720  0.54510  0.43230  1.0000 0.1275051505
H   H3        1.0  0.76190  0.01680  0.03580  1.0000 0.1421084263
H   H4        1.0  0.69870  0.86390  0.40420  1.0000 0.3396686882
H   H5        1.0  0.81280  0.04510  0.56770  1.0000 0.1275051505
H   H6        1.0  0.73810  0.51680  0.96420  1.0000 0.1421084263
H   H7        1.0  0.19870  0.63610  0.40420  1.0000 0.3396686882
H   H8        1.0  0.31280  0.45490  0.56770  1.0000 0.1275051505
H   H9        1.0  0.23810  0.98320  0.96420  1.0000 0.1421084263
H   H10       1.0  0.30130  0.13610  0.59580  1.0000 0.3396686882
H   H11       1.0  0.18720  0.95490  0.43230  1.0000 0.1275051505
H   H12       1.0  0.26190  0.48320  0.03580  1.0000 0.1421084263
C   C1        1.0  0.67030  0.12400  0.89420  1.0000 0.6286695422
C   C2        1.0  0.53870  0.42240  0.57260  1.0000 -0.1996606543
C   C3        1.0  0.64720  0.45240  0.52900  1.0000 0.2672710911
C   C4        1.0  0.56840  0.34660  0.64580  1.0000 0.6482204021
C   C5        1.0  0.42450  0.05290  0.92270  1.0000 0.3396686882
C   C6        1.0  0.61010  0.52640  0.46010  1.0000 -0.1996606543
C   C7        1.0  0.65470  0.00990  0.02120  1.0000 -0.1652198016
C   C8        1.0  0.57970  0.05970  0.94770  1.0000 -0.1531515746
C   C9        1.0  0.82970  0.62400  0.10580  1.0000 0.6286695422
C   C10       1.0  0.96130  0.92240  0.42740  1.0000 -0.1996606543
C   C11       1.0  0.85280  0.95240  0.47100  1.0000 0.2672710911
C   C12       1.0  0.93160  0.84660  0.35420  1.0000 0.6482204021
C   C13       1.0  0.07550  0.55290  0.07730  1.0000 0.3396686882
C   C14       1.0  0.88990  0.02640  0.53990  1.0000 -0.1996606543
C   C15       1.0  0.84530  0.50990  0.97880  1.0000 -0.1652198016
C   C16       1.0  0.92030  0.55970  0.05230  1.0000 -0.1531515746
C   C17       1.0  0.32970  0.87600  0.10580  1.0000 0.6286695422
C   C18       1.0  0.46130  0.57760  0.42740  1.0000 -0.1996606543
C   C19       1.0  0.35280  0.54760  0.47100  1.0000 0.2672710911
C   C20       1.0  0.43160  0.65340  0.35420  1.0000 0.6482204021
C   C21       1.0  0.57550  0.94710  0.07730  1.0000 0.3396686882
C   C22       1.0  0.38990  0.47360  0.53990  1.0000 -0.1996606543
C   C23       1.0  0.34530  0.99010  0.97880  1.0000 -0.1652198016
C   C24       1.0  0.42030  0.94030  0.05230  1.0000 -0.1531515746
C   C25       1.0  0.17030  0.37600  0.89420  1.0000 0.6286695422
C   C26       1.0  0.03870  0.07760  0.57260  1.0000 -0.1996606543
C   C27       1.0  0.14720  0.04760  0.52900  1.0000 0.2672710911
C   C28       1.0  0.06840  0.15340  0.64580  1.0000 0.6482204021
C   C29       1.0  0.92450  0.44710  0.92270  1.0000 0.3396686882
C   C30       1.0  0.11010  0.97360  0.46010  1.0000 -0.1996606543
C   C31       1.0  0.15470  0.49010  0.02120  1.0000 -0.164671871
C   C32       1.0  0.07970  0.44030  0.94770  1.0000 -0.1531515746
O   O1        1.0  0.45790  0.29610  0.67250  1.0000 -0.7027020781
O   O2        1.0  0.33910  0.09170  0.85360  1.0000 -0.6461358844
O   O3        1.0  0.70640  0.33380  0.68320  1.0000 -0.6629936873
O   O4        1.0  0.79010  0.40450  0.55170  1.0000 -0.444295603
O   O5        1.0  0.60920  0.19600  0.83560  1.0000 -0.7136327803
O   O6        1.0  0.80880  0.09950  0.90760  1.0000 -0.6266039192
O   O7        1.0  0.04210  0.79610  0.32750  1.0000 -0.7027020781
O   O8        1.0  0.16090  0.59170  0.14640  1.0000 -0.6461358844
O   O9        1.0  0.79360  0.83380  0.31680  1.0000 -0.6629936873
O   O10       1.0  0.70990  0.90450  0.44830  1.0000 -0.444295603
O   O11       1.0  0.89080  0.69600  0.16440  1.0000 -0.7136327803
O   O12       1.0  0.69120  0.59950  0.09240  1.0000 -0.6266039192
O   O13       1.0  0.54210  0.70390  0.32750  1.0000 -0.7027020781
O   O14       1.0  0.66090  0.90830  0.14640  1.0000 -0.6461358844
O   O15       1.0  0.29360  0.66620  0.31680  1.0000 -0.6629936873
O   O16       1.0  0.20990  0.59550  0.44830  1.0000 -0.444295603
O   O17       1.0  0.39080  0.80400  0.16440  1.0000 -0.7136327803
O   O18       1.0  0.19120  0.90050  0.09240  1.0000 -0.6266039192
O   O19       1.0  0.95790  0.20390  0.67250  1.0000 -0.7027020781
O   O20       1.0  0.83910  0.40830  0.85360  1.0000 -0.6461358844
O   O21       1.0  0.20640  0.16620  0.68320  1.0000 -0.6629936873
O   O22       1.0  0.29010  0.09550  0.55170  1.0000 -0.444295603
O   O23       1.0  0.10920  0.30400  0.83560  1.0000 -0.7136327803
O   O24       1.0  0.30880  0.40050  0.90760  1.0000 -0.6266039192
