# DDEC6 charges by PACMAN v1.1 (https://github.com/mtap-research/PACMAN-charge/)
data_2020[UFe][hcb]2[ASR]1
_chemical_formula_sum              "U8 Fe4 H176 C288 N24 O48"
_cell_length_a       14.714
_cell_length_b       22.455
_cell_length_c       26.199
_cell_angle_alpha    90
_cell_angle_beta     97.041
_cell_angle_gamma    90

_symmetry_space_group_name_H-M    "P 1"
_symmetry_Int_Tables_number       1

loop_
  _symmetry_equiv_pos_as_xyz
  'x, y, z'

loop_
  _atom_site_type_symbol
  _atom_site_label
  _atom_site_symmetry_multiplicity
  _atom_site_fract_x
  _atom_site_fract_y
  _atom_site_fract_z
  _atom_site_occupancy
  _atom_site_charge
U   U1        1.0  0.17424  0.76014  0.76927  1.0000 1.8242081208
U   U2        1.0  0.30507  0.40217  0.55465  1.0000 1.7776714964
U   U3        1.0  0.82576  0.26014  0.73073  1.0000 1.8300230307
U   U4        1.0  0.69493  0.90217  0.94535  1.0000 1.7776714964
U   U5        1.0  0.82576  0.23986  0.23073  1.0000 1.8300230307
U   U6        1.0  0.69493  0.59783  0.44535  1.0000 1.7776714964
U   U7        1.0  0.17424  0.73986  0.26927  1.0000 1.8242081208
U   U8        1.0  0.30507  0.09783  0.05465  1.0000 1.7776714964
Fe  Fe1       1.0  0.73675  0.65199  0.19102  1.0000 0.3349217279
Fe  Fe2       1.0  0.26325  0.15199  0.30898  1.0000 0.3349217279
Fe  Fe3       1.0  0.26325  0.34801  0.80898  1.0000 0.3349217279
Fe  Fe4       1.0  0.73675  0.84801  0.69102  1.0000 0.335485856
H   H1        1.0  0.64846  0.71747  0.01692  1.0000 0.1291396172
H   H2        1.0  0.82001  0.44591  0.22546  1.0000 0.1368104216
H   H3        1.0  0.53973  0.56184  0.57337  1.0000 0.1197756713
H   H4        1.0  0.43779  0.79587  0.90021  1.0000 0.1291396172
H   H5        1.0  0.13684  0.20587  0.56210  1.0000 0.1105762047
H   H6        1.0  0.94189  0.66453  0.34913  1.0000 0.1368104216
H   H7        1.0  0.82122  0.62723  0.60094  1.0000 0.1105762047
H   H8        1.0  0.76931  0.45251  0.66547  1.0000 0.1105762047
H   H9        1.0  0.31284  0.95547  0.74368  1.0000 0.1197756713
H   H10       1.0  0.03532  0.68405  0.12112  1.0000 0.1368104216
H   H11       1.0  0.33607  0.04481  0.70577  1.0000 0.1105762047
H   H12       1.0  0.40827  0.67610  0.18526  1.0000 0.1291396172
H   H13       1.0  0.63167  0.40712  0.63575  1.0000 0.1197756713
H   H14       1.0  0.94686  0.68094  0.63441  1.0000 0.1105762047
H   H15       1.0  0.66417  0.62892  0.29540  1.0000 0.1105762047
H   H16       1.0  0.39504  0.20647  0.62984  1.0000 0.1197756713
H   H17       1.0  0.67775  0.60644  0.60283  1.0000 0.1025237981
H   H18       1.0  0.89133  0.49866  0.29655  1.0000 0.1291396172
H   H19       1.0  0.74167  0.86925  0.23234  1.0000 0.1105762047
H   H20       1.0  0.69190  0.78485  0.18632  1.0000 0.1105762047
H   H21       1.0  0.52618  0.63764  0.32661  1.0000 0.1368104216
H   H22       1.0  0.53713  0.78012  0.97365  1.0000 0.1105762047
H   H23       1.0  0.94411  0.65431  0.18125  1.0000 0.1197756713
H   H24       1.0  0.43861  0.68615  0.09812  1.0000 0.1291396172
H   H25       1.0  0.08059  0.61564  0.38275  1.0000 0.1105762047
H   H26       1.0  0.90215  0.48076  0.38683  1.0000 0.1105762047
H   H27       1.0  0.91117  0.76653  0.32514  1.0000 0.1291396172
H   H28       1.0  0.39631  0.65966  0.27139  1.0000 0.1197756713
H   H29       1.0  0.85639  0.85999  0.30075  1.0000 0.1025237981
H   H30       1.0  0.17683  0.57032  0.44787  1.0000 0.1197756713
H   H31       1.0  0.98970  0.56699  0.75199  1.0000 0.1105762047
H   H32       1.0  0.28120  0.66059  0.93809  1.0000 0.1105762047
H   H33       1.0  0.73960  0.40265  0.15382  1.0000 0.1291396172
H   H34       1.0  0.99871  0.43562  0.45136  1.0000 0.1197756713
H   H35       1.0  0.80907  0.72778  0.02789  1.0000 0.1291396172
H   H36       1.0  0.12227  0.10772  0.58604  1.0000 0.1105762047
H   H37       1.0  0.96846  0.72015  0.04252  1.0000 0.1197756713
H   H38       1.0  0.38045  0.10842  0.65255  1.0000 0.1105762047
H   H39       1.0  0.86443  0.51144  0.71786  1.0000 0.1025237981
H   H40       1.0  0.13026  0.01101  0.59632  1.0000 0.1105762047
H   H41       1.0  0.65478  0.46266  0.09360  1.0000 0.1291396172
H   H42       1.0  0.37813  0.64629  0.01324  1.0000 0.1105762047
H   H43       1.0  0.10553  0.92215  0.63521  1.0000 0.1197756713
H   H44       1.0  0.65229  0.56443  0.10663  1.0000 0.1025237981
H   H45       1.0  0.35154  0.21747  0.48308  1.0000 0.1291396172
H   H46       1.0  0.17999  0.94591  0.27454  1.0000 0.1368104216
H   H47       1.0  0.46027  0.06184  0.92663  1.0000 0.1197756713
H   H48       1.0  0.56221  0.29587  0.59979  1.0000 0.1291396172
H   H49       1.0  0.86316  0.70587  0.93790  1.0000 0.1105762047
H   H50       1.0  0.05811  0.16453  0.15087  1.0000 0.1368104216
H   H51       1.0  0.17878  0.12723  0.89906  1.0000 0.1105762047
H   H52       1.0  0.23069  0.95251  0.83453  1.0000 0.1105762047
H   H53       1.0  0.68716  0.45547  0.75632  1.0000 0.1197756713
H   H54       1.0  0.96468  0.18405  0.37888  1.0000 0.1368104216
H   H55       1.0  0.66393  0.54481  0.79423  1.0000 0.1105762047
H   H56       1.0  0.59173  0.17610  0.31474  1.0000 0.1291396172
H   H57       1.0  0.36833  0.90712  0.86425  1.0000 0.1197756713
H   H58       1.0  0.05314  0.18094  0.86559  1.0000 0.1105762047
H   H59       1.0  0.33583  0.12892  0.20460  1.0000 0.1105762047
H   H60       1.0  0.60496  0.70647  0.87016  1.0000 0.1197756713
H   H61       1.0  0.32225  0.10644  0.89717  1.0000 0.1025237981
H   H62       1.0  0.10867  0.99866  0.20345  1.0000 0.1291396172
H   H63       1.0  0.25833  0.36925  0.26766  1.0000 0.1105762047
H   H64       1.0  0.30810  0.28485  0.31368  1.0000 0.1105762047
H   H65       1.0  0.47382  0.13764  0.17339  1.0000 0.1368104216
H   H66       1.0  0.46287  0.28012  0.52635  1.0000 0.1105762047
H   H67       1.0  0.05589  0.15431  0.31875  1.0000 0.1197756713
H   H68       1.0  0.56139  0.18615  0.40188  1.0000 0.1291396172
H   H69       1.0  0.91941  0.11564  0.11725  1.0000 0.1105762047
H   H70       1.0  0.09785  0.98076  0.11317  1.0000 0.1105762047
H   H71       1.0  0.08883  0.26653  0.17486  1.0000 0.1291396172
H   H72       1.0  0.60369  0.15966  0.22861  1.0000 0.1197756713
H   H73       1.0  0.14361  0.35999  0.19925  1.0000 0.1025237981
H   H74       1.0  0.82317  0.07032  0.05213  1.0000 0.1197756713
H   H75       1.0  0.01030  0.06699  0.74801  1.0000 0.1105762047
H   H76       1.0  0.71880  0.16059  0.56191  1.0000 0.1105762047
H   H77       1.0  0.26040  0.90265  0.34618  1.0000 0.1291396172
H   H78       1.0  0.00129  0.93562  0.04864  1.0000 0.1197756713
H   H79       1.0  0.19093  0.22778  0.47211  1.0000 0.1291396172
H   H80       1.0  0.87773  0.60772  0.91396  1.0000 0.1105762047
H   H81       1.0  0.03154  0.22015  0.45748  1.0000 0.1197756713
H   H82       1.0  0.61955  0.60842  0.84745  1.0000 0.1105762047
H   H83       1.0  0.13557  0.01144  0.78214  1.0000 0.1025237981
H   H84       1.0  0.86974  0.51101  0.90368  1.0000 0.1105762047
H   H85       1.0  0.34522  0.96266  0.40640  1.0000 0.1291396172
H   H86       1.0  0.62187  0.14629  0.48676  1.0000 0.1105762047
H   H87       1.0  0.89447  0.42215  0.86479  1.0000 0.1197756713
H   H88       1.0  0.34771  0.06443  0.39337  1.0000 0.1025237981
H   H89       1.0  0.35154  0.28253  0.98308  1.0000 0.1291396172
H   H90       1.0  0.17999  0.55409  0.77454  1.0000 0.1368104216
H   H91       1.0  0.46027  0.43816  0.42663  1.0000 0.1197756713
H   H92       1.0  0.56221  0.20413  0.09979  1.0000 0.1291396172
H   H93       1.0  0.86316  0.79413  0.43790  1.0000 0.1105762047
H   H94       1.0  0.05811  0.33547  0.65087  1.0000 0.1368104216
H   H95       1.0  0.17878  0.37277  0.39906  1.0000 0.1105762047
H   H96       1.0  0.23069  0.54749  0.33453  1.0000 0.1105762047
H   H97       1.0  0.68716  0.04453  0.25632  1.0000 0.1197756713
H   H98       1.0  0.96468  0.31595  0.87888  1.0000 0.1368104216
H   H99       1.0  0.66393  0.95519  0.29423  1.0000 0.1105762047
H   H100      1.0  0.59173  0.32390  0.81474  1.0000 0.1291396172
H   H101      1.0  0.36833  0.59288  0.36425  1.0000 0.1197756713
H   H102      1.0  0.05314  0.31906  0.36559  1.0000 0.1105762047
H   H103      1.0  0.33583  0.37108  0.70460  1.0000 0.1105762047
H   H104      1.0  0.60496  0.79353  0.37016  1.0000 0.1197756713
H   H105      1.0  0.32225  0.39356  0.39717  1.0000 0.1025237981
H   H106      1.0  0.10867  0.50134  0.70345  1.0000 0.1291396172
H   H107      1.0  0.25833  0.13075  0.76766  1.0000 0.1105762047
H   H108      1.0  0.30810  0.21515  0.81368  1.0000 0.1105762047
H   H109      1.0  0.47382  0.36236  0.67339  1.0000 0.1368104216
H   H110      1.0  0.46287  0.21988  0.02635  1.0000 0.1105762047
H   H111      1.0  0.05589  0.34569  0.81875  1.0000 0.1197756713
H   H112      1.0  0.56139  0.31385  0.90188  1.0000 0.1291396172
H   H113      1.0  0.91941  0.38436  0.61725  1.0000 0.1105762047
H   H114      1.0  0.09785  0.51924  0.61317  1.0000 0.1105762047
H   H115      1.0  0.08883  0.23347  0.67486  1.0000 0.1291396172
H   H116      1.0  0.60369  0.34034  0.72861  1.0000 0.1197756713
H   H117      1.0  0.14361  0.14001  0.69925  1.0000 0.1025237981
H   H118      1.0  0.82317  0.42968  0.55213  1.0000 0.1197756713
H   H119      1.0  0.01030  0.43301  0.24801  1.0000 0.1105762047
H   H120      1.0  0.71880  0.33941  0.06191  1.0000 0.1105762047
H   H121      1.0  0.26040  0.59735  0.84618  1.0000 0.1291396172
H   H122      1.0  0.00129  0.56438  0.54864  1.0000 0.1197756713
H   H123      1.0  0.19093  0.27222  0.97211  1.0000 0.1291396172
H   H124      1.0  0.87773  0.89228  0.41396  1.0000 0.1105762047
H   H125      1.0  0.03154  0.27985  0.95748  1.0000 0.1197756713
H   H126      1.0  0.61955  0.89158  0.34745  1.0000 0.1105762047
H   H127      1.0  0.13557  0.48856  0.28214  1.0000 0.1025237981
H   H128      1.0  0.86974  0.98899  0.40368  1.0000 0.1105762047
H   H129      1.0  0.34522  0.53734  0.90640  1.0000 0.1291396172
H   H130      1.0  0.62187  0.35371  0.98676  1.0000 0.1105762047
H   H131      1.0  0.89447  0.07785  0.36479  1.0000 0.1197756713
H   H132      1.0  0.34771  0.43557  0.89337  1.0000 0.1025237981
H   H133      1.0  0.64846  0.78253  0.51692  1.0000 0.1291396172
H   H134      1.0  0.82001  0.05409  0.72546  1.0000 0.1368104216
H   H135      1.0  0.53973  0.93816  0.07337  1.0000 0.1197756713
H   H136      1.0  0.43779  0.70413  0.40021  1.0000 0.1291396172
H   H137      1.0  0.13684  0.29413  0.06210  1.0000 0.1105762047
H   H138      1.0  0.94189  0.83547  0.84913  1.0000 0.1368104216
H   H139      1.0  0.82122  0.87277  0.10094  1.0000 0.1105762047
H   H140      1.0  0.76931  0.04749  0.16547  1.0000 0.1105762047
H   H141      1.0  0.31284  0.54453  0.24368  1.0000 0.1197756713
H   H142      1.0  0.03532  0.81595  0.62112  1.0000 0.1368104216
H   H143      1.0  0.33607  0.45519  0.20577  1.0000 0.1105762047
H   H144      1.0  0.40827  0.82390  0.68526  1.0000 0.1291396172
H   H145      1.0  0.63167  0.09288  0.13575  1.0000 0.1197756713
H   H146      1.0  0.94686  0.81906  0.13441  1.0000 0.1105762047
H   H147      1.0  0.66417  0.87108  0.79540  1.0000 0.1105762047
H   H148      1.0  0.39504  0.29353  0.12984  1.0000 0.1197756713
H   H149      1.0  0.67775  0.89356  0.10283  1.0000 0.1025237981
H   H150      1.0  0.89133  0.00134  0.79655  1.0000 0.1291396172
H   H151      1.0  0.74167  0.63075  0.73234  1.0000 0.1105762047
H   H152      1.0  0.69190  0.71515  0.68632  1.0000 0.1105762047
H   H153      1.0  0.52618  0.86236  0.82661  1.0000 0.1368104216
H   H154      1.0  0.53713  0.71988  0.47365  1.0000 0.1105762047
H   H155      1.0  0.94411  0.84569  0.68125  1.0000 0.1197756713
H   H156      1.0  0.43861  0.81385  0.59812  1.0000 0.1291396172
H   H157      1.0  0.08059  0.88436  0.88275  1.0000 0.1105762047
H   H158      1.0  0.90215  0.01924  0.88683  1.0000 0.1105762047
H   H159      1.0  0.91117  0.73347  0.82514  1.0000 0.1291396172
H   H160      1.0  0.39631  0.84034  0.77139  1.0000 0.1197756713
H   H161      1.0  0.85639  0.64001  0.80075  1.0000 0.1025237981
H   H162      1.0  0.17683  0.92968  0.94787  1.0000 0.1197756713
H   H163      1.0  0.98970  0.93301  0.25199  1.0000 0.1105762047
H   H164      1.0  0.28120  0.83941  0.43809  1.0000 0.1105762047
H   H165      1.0  0.73960  0.09735  0.65382  1.0000 0.1291396172
H   H166      1.0  0.99871  0.06438  0.95136  1.0000 0.1197756713
H   H167      1.0  0.80907  0.77222  0.52789  1.0000 0.1291396172
H   H168      1.0  0.12227  0.39228  0.08604  1.0000 0.1105762047
H   H169      1.0  0.96846  0.77985  0.54252  1.0000 0.1197756713
H   H170      1.0  0.38045  0.39158  0.15255  1.0000 0.1105762047
H   H171      1.0  0.86443  0.98856  0.21786  1.0000 0.1025237981
H   H172      1.0  0.13026  0.48899  0.09632  1.0000 0.1105762047
H   H173      1.0  0.65478  0.03734  0.59360  1.0000 0.1291396172
H   H174      1.0  0.37813  0.85371  0.51324  1.0000 0.1105762047
H   H175      1.0  0.10553  0.57785  0.13521  1.0000 0.1197756713
H   H176      1.0  0.65229  0.93557  0.60663  1.0000 0.1025237981
C   C1        1.0  0.26700  0.21707  0.59465  1.0000 -0.0489441079
C   C2        1.0  0.73870  0.53429  0.63748  1.0000 0.0612552816
C   C3        1.0  0.62610  0.70620  0.04717  1.0000 -0.2306268727
C   C4        1.0  0.34990  0.72859  0.91122  1.0000 -0.0385969101
C   C5        1.0  0.83220  0.72176  0.27007  1.0000 0.1368104216
C   C6        1.0  0.78520  0.46940  0.20120  1.0000 -0.1780419955
C   C7        1.0  0.28700  0.73970  0.86342  1.0000 0.5272501586
C   C8        1.0  0.57130  0.48031  0.60128  1.0000 -0.0228025648
C   C9        1.0  0.85700  0.65984  0.28295  1.0000 0.1489359764
C   C10       1.0  0.58580  0.53950  0.59183  1.0000 -0.1003246354
C   C11       1.0  0.27630  0.28120  0.58253  1.0000 0.5101619167
C   C12       1.0  0.42660  0.76540  0.92263  1.0000 -0.0903111184
C   C13       1.0  0.97880  0.63118  0.69840  1.0000 -0.0385969101
C   C14       1.0  0.18580  0.18670  0.58116  1.0000 -0.12801584
C   C15       1.0  0.56350  0.67670  0.13830  1.0000 0.1489359764
C   C16       1.0  0.91240  0.63825  0.32514  1.0000 -0.2378535858
C   C17       1.0  0.19110  0.87195  0.71992  1.0000 0.5101619167
C   C18       1.0  0.05190  0.67220  0.72230  1.0000 0.5229929192
C   C19       1.0  0.54430  0.66280  0.19074  1.0000 0.1291396172
C   C20       1.0  0.20630  0.92938  0.69398  1.0000 -0.0385969101
C   C21       1.0  0.85410  0.61517  0.63180  1.0000 -0.1586421192
C   C22       1.0  0.68620  0.69335  0.09066  1.0000 0.1489359764
C   C23       1.0  0.72330  0.47474  0.64685  1.0000 -0.1487074814
C   C24       1.0  0.27510  0.96661  0.71412  1.0000 -0.1115085977
C   C25       1.0  0.98350  0.55190  0.37647  1.0000 0.0612552816
C   C26       1.0  0.97200  0.68660  0.11394  1.0000 -0.1487074814
C   C27       1.0  0.28910  0.02020  0.69119  1.0000 -0.1705262637
C   C28       1.0  0.09890  0.49770  0.45547  1.0000 -0.0385969101
C   C29       1.0  0.92410  0.57710  0.33184  1.0000 0.1105762047
C   C30       1.0  0.82590  0.56461  0.65636  1.0000 0.0612552816
C   C31       1.0  0.16580  0.46660  0.49401  1.0000 0.5272501586
C   C32       1.0  0.46000  0.66690  0.20797  1.0000 -0.1921845721
C   C33       1.0  0.83000  0.56270  0.25140  1.0000 0.1489359764
C   C34       1.0  0.78630  0.69250  0.09554  1.0000 0.1291396172
C   C35       1.0  0.23520  0.03865  0.64690  1.0000 0.0612552816
C   C36       1.0  0.64060  0.44724  0.62908  1.0000 -0.1003246354
C   C37       1.0  0.92920  0.64770  0.65194  1.0000 -0.1115085977
C   C38       1.0  0.61260  0.63890  0.27289  1.0000 0.0503310459
C   C39       1.0  0.33940  0.18700  0.62130  1.0000 -0.1179084163
C   C40       1.0  0.66890  0.56640  0.60967  1.0000 -0.1705262637
C   C41       1.0  0.88290  0.53960  0.29357  1.0000 -0.2306268727
C   C42       1.0  0.76640  0.83220  0.24178  1.0000 -0.1402969258
C   C43       1.0  0.73630  0.78109  0.21464  1.0000 0.0503310459
C   C44       1.0  0.78100  0.52998  0.20799  1.0000 0.1368104216
C   C45       1.0  0.52980  0.64360  0.29179  1.0000 -0.1402969258
C   C46       1.0  0.48520  0.75640  0.96682  1.0000 -0.1487074814
C   C47       1.0  0.91650  0.66870  0.14985  1.0000 0.0612552816
C   C48       1.0  0.50110  0.68800  0.09571  1.0000 -0.2306268727
C   C49       1.0  0.06450  0.57917  0.39588  1.0000 -0.1586421192
C   C50       1.0  0.53230  0.70210  0.04877  1.0000 0.1105762047
C   C51       1.0  0.95810  0.49830  0.39851  1.0000 -0.1586421192
C   C52       1.0  0.86620  0.77090  0.29719  1.0000 -0.1780419955
C   C53       1.0  0.48130  0.45223  0.58266  1.0000 0.5403543515
C   C54       1.0  0.46760  0.71210  0.00166  1.0000 0.0612552816
C   C55       1.0  0.45290  0.65710  0.25910  1.0000 -0.0623083869
C   C56       1.0  0.83330  0.82640  0.28279  1.0000 -0.0489441079
C   C57       1.0  0.12210  0.55196  0.43510  1.0000 -0.0903111184
C   C58       1.0  0.95490  0.57966  0.72192  1.0000 -0.12801584
C   C59       1.0  0.33250  0.68470  0.94539  1.0000 -0.1115085977
C   C60       1.0  0.73780  0.44370  0.15860  1.0000 -0.0489441079
C   C61       1.0  0.01560  0.47140  0.43732  1.0000 -0.0903111184
C   C62       1.0  0.83750  0.71210  0.05862  1.0000 -0.1780419955
C   C63       1.0  0.17680  0.12780  0.59590  1.0000 -0.1705262637
C   C64       1.0  0.93250  0.70830  0.06750  1.0000 -0.0623083869
C   C65       1.0  0.24790  0.09874  0.62499  1.0000 0.0612552816
C   C66       1.0  0.33020  0.12840  0.63550  1.0000 -0.1586421192
C   C67       1.0  0.87940  0.54619  0.70147  1.0000 -0.1705262637
C   C68       1.0  0.16700  0.00040  0.62640  1.0000 -0.1586421192
C   C69       1.0  0.68730  0.47930  0.12280  1.0000 -0.1586421192
C   C70       1.0  0.39050  0.67610  0.99043  1.0000 -0.1705262637
C   C71       1.0  0.15240  0.94690  0.64960  1.0000 -0.1179084163
C   C72       1.0  0.68580  0.54040  0.13100  1.0000 0.0380942207
C   C73       1.0  0.73300  0.71707  0.90535  1.0000 -0.0489441079
C   C74       1.0  0.26130  0.03429  0.86252  1.0000 0.0612552816
C   C75       1.0  0.37390  0.20620  0.45283  1.0000 -0.2306268727
C   C76       1.0  0.65010  0.22859  0.58878  1.0000 -0.0385969101
C   C77       1.0  0.16780  0.22176  0.22993  1.0000 0.1368104216
C   C78       1.0  0.21480  0.96940  0.29880  1.0000 -0.1780419955
C   C79       1.0  0.71300  0.23970  0.63658  1.0000 0.5272501586
C   C80       1.0  0.42870  0.98031  0.89872  1.0000 -0.0228025648
C   C81       1.0  0.14300  0.15984  0.21705  1.0000 0.1489359764
C   C82       1.0  0.41420  0.03950  0.90817  1.0000 -0.1003246354
C   C83       1.0  0.72370  0.78120  0.91747  1.0000 0.5101619167
C   C84       1.0  0.57340  0.26540  0.57737  1.0000 -0.0903111184
C   C85       1.0  0.02120  0.13118  0.80160  1.0000 -0.0385969101
C   C86       1.0  0.81420  0.68670  0.91884  1.0000 -0.12801584
C   C87       1.0  0.43650  0.17670  0.36170  1.0000 0.1489359764
C   C88       1.0  0.08760  0.13825  0.17486  1.0000 -0.2378535858
C   C89       1.0  0.80890  0.37195  0.78008  1.0000 0.5101619167
C   C90       1.0  0.94810  0.17220  0.77770  1.0000 0.5229929192
C   C91       1.0  0.45570  0.16280  0.30926  1.0000 0.1291396172
C   C92       1.0  0.79370  0.42938  0.80602  1.0000 -0.0385969101
C   C93       1.0  0.14590  0.11517  0.86820  1.0000 -0.1586421192
C   C94       1.0  0.31380  0.19335  0.40934  1.0000 0.1489359764
C   C95       1.0  0.27670  0.97474  0.85315  1.0000 -0.1487074814
C   C96       1.0  0.72490  0.46661  0.78588  1.0000 -0.1115085977
C   C97       1.0  0.01650  0.05190  0.12353  1.0000 0.0612552816
C   C98       1.0  0.02800  0.18660  0.38606  1.0000 -0.1487074814
C   C99       1.0  0.71090  0.52020  0.80881  1.0000 -0.1705262637
C   C100      1.0  0.90110  0.99770  0.04453  1.0000 -0.0385969101
C   C101      1.0  0.07590  0.07710  0.16816  1.0000 0.1105762047
C   C102      1.0  0.17410  0.06461  0.84364  1.0000 0.0612552816
C   C103      1.0  0.83420  0.96660  0.00599  1.0000 0.5272501586
C   C104      1.0  0.54000  0.16690  0.29203  1.0000 -0.1921845721
C   C105      1.0  0.17000  0.06270  0.24860  1.0000 0.1489359764
C   C106      1.0  0.21370  0.19250  0.40446  1.0000 0.1291396172
C   C107      1.0  0.76480  0.53865  0.85310  1.0000 0.0612552816
C   C108      1.0  0.35940  0.94724  0.87092  1.0000 -0.1003246354
C   C109      1.0  0.07080  0.14770  0.84806  1.0000 -0.1115085977
C   C110      1.0  0.38740  0.13890  0.22711  1.0000 0.0503310459
C   C111      1.0  0.66060  0.68700  0.87870  1.0000 -0.1179084163
C   C112      1.0  0.33110  0.06640  0.89033  1.0000 -0.1705262637
C   C113      1.0  0.11710  0.03960  0.20643  1.0000 -0.2306268727
C   C114      1.0  0.23360  0.33220  0.25822  1.0000 -0.1402969258
C   C115      1.0  0.26370  0.28109  0.28536  1.0000 0.0503310459
C   C116      1.0  0.21900  0.02998  0.29201  1.0000 0.1368104216
C   C117      1.0  0.47020  0.14360  0.20821  1.0000 -0.1402969258
C   C118      1.0  0.51480  0.25640  0.53318  1.0000 -0.1487074814
C   C119      1.0  0.08350  0.16870  0.35015  1.0000 0.0612552816
C   C120      1.0  0.49890  0.18800  0.40429  1.0000 -0.2306268727
C   C121      1.0  0.93550  0.07917  0.10412  1.0000 -0.1586421192
C   C122      1.0  0.46770  0.20210  0.45123  1.0000 0.1105762047
C   C123      1.0  0.04190  0.99830  0.10149  1.0000 -0.1586421192
C   C124      1.0  0.13380  0.27090  0.20281  1.0000 -0.1780419955
C   C125      1.0  0.51870  0.95223  0.91734  1.0000 0.5403543515
C   C126      1.0  0.53240  0.21210  0.49834  1.0000 0.0612552816
C   C127      1.0  0.54710  0.15710  0.24090  1.0000 -0.0623083869
C   C128      1.0  0.16670  0.32640  0.21721  1.0000 -0.0489441079
C   C129      1.0  0.87790  0.05196  0.06490  1.0000 -0.0903111184
C   C130      1.0  0.04510  0.07966  0.77808  1.0000 -0.12801584
C   C131      1.0  0.66750  0.18470  0.55461  1.0000 -0.1115085977
C   C132      1.0  0.26220  0.94370  0.34140  1.0000 -0.0489441079
C   C133      1.0  0.98440  0.97140  0.06268  1.0000 -0.0903111184
C   C134      1.0  0.16250  0.21210  0.44138  1.0000 -0.1780419955
C   C135      1.0  0.82320  0.62780  0.90410  1.0000 -0.1705262637
C   C136      1.0  0.06750  0.20830  0.43250  1.0000 -0.0623083869
C   C137      1.0  0.75210  0.59874  0.87501  1.0000 0.0612552816
C   C138      1.0  0.66980  0.62840  0.86450  1.0000 -0.1586421192
C   C139      1.0  0.12060  0.04619  0.79853  1.0000 -0.1705262637
C   C140      1.0  0.83300  0.50040  0.87360  1.0000 -0.1586421192
C   C141      1.0  0.31270  0.97930  0.37720  1.0000 -0.1705262637
C   C142      1.0  0.60950  0.17610  0.50957  1.0000 -0.1705262637
C   C143      1.0  0.84760  0.44690  0.85040  1.0000 -0.1179084163
C   C144      1.0  0.31420  0.04040  0.36900  1.0000 0.0380942207
C   C145      1.0  0.73300  0.78293  0.40535  1.0000 -0.0489441079
C   C146      1.0  0.26130  0.46571  0.36252  1.0000 0.0612552816
C   C147      1.0  0.37390  0.29380  0.95283  1.0000 -0.2306268727
C   C148      1.0  0.65010  0.27141  0.08878  1.0000 -0.0385969101
C   C149      1.0  0.16780  0.27824  0.72993  1.0000 0.1368104216
C   C150      1.0  0.21480  0.53060  0.79880  1.0000 -0.1780419955
C   C151      1.0  0.71300  0.26030  0.13658  1.0000 0.5272501586
C   C152      1.0  0.42870  0.51969  0.39872  1.0000 -0.0228025648
C   C153      1.0  0.14300  0.34016  0.71705  1.0000 0.1489359764
C   C154      1.0  0.41420  0.46050  0.40817  1.0000 -0.1003246354
C   C155      1.0  0.72370  0.71880  0.41747  1.0000 0.5101619167
C   C156      1.0  0.57340  0.23460  0.07737  1.0000 -0.0903111184
C   C157      1.0  0.02120  0.36882  0.30160  1.0000 -0.0385969101
C   C158      1.0  0.81420  0.81330  0.41884  1.0000 -0.12801584
C   C159      1.0  0.43650  0.32330  0.86170  1.0000 0.1489359764
C   C160      1.0  0.08760  0.36175  0.67486  1.0000 -0.2378535858
C   C161      1.0  0.80890  0.12805  0.28008  1.0000 0.5101619167
C   C162      1.0  0.94810  0.32780  0.27770  1.0000 0.5229929192
C   C163      1.0  0.45570  0.33720  0.80926  1.0000 0.1291396172
C   C164      1.0  0.79370  0.07062  0.30602  1.0000 -0.0385969101
C   C165      1.0  0.14590  0.38483  0.36820  1.0000 -0.1586421192
C   C166      1.0  0.31380  0.30665  0.90934  1.0000 0.1489359764
C   C167      1.0  0.27670  0.52526  0.35315  1.0000 -0.1487074814
C   C168      1.0  0.72490  0.03339  0.28588  1.0000 -0.1115085977
C   C169      1.0  0.01650  0.44810  0.62353  1.0000 0.0612552816
C   C170      1.0  0.02800  0.31340  0.88606  1.0000 -0.1487074814
C   C171      1.0  0.71090  0.97980  0.30881  1.0000 -0.1705262637
C   C172      1.0  0.90110  0.50230  0.54453  1.0000 -0.0385969101
C   C173      1.0  0.07590  0.42290  0.66816  1.0000 0.1105762047
C   C174      1.0  0.17410  0.43539  0.34364  1.0000 0.0612552816
C   C175      1.0  0.83420  0.53340  0.50599  1.0000 0.5272501586
C   C176      1.0  0.54000  0.33310  0.79203  1.0000 -0.1921845721
C   C177      1.0  0.17000  0.43730  0.74860  1.0000 0.1489359764
C   C178      1.0  0.21370  0.30750  0.90446  1.0000 0.1291396172
C   C179      1.0  0.76480  0.96135  0.35310  1.0000 0.0612552816
C   C180      1.0  0.35940  0.55276  0.37092  1.0000 -0.1003246354
C   C181      1.0  0.07080  0.35230  0.34806  1.0000 -0.1115085977
C   C182      1.0  0.38740  0.36110  0.72711  1.0000 0.0503310459
C   C183      1.0  0.66060  0.81300  0.37870  1.0000 -0.1179084163
C   C184      1.0  0.33110  0.43360  0.39033  1.0000 -0.1705262637
C   C185      1.0  0.11710  0.46040  0.70643  1.0000 -0.2306268727
C   C186      1.0  0.23360  0.16780  0.75822  1.0000 -0.1402969258
C   C187      1.0  0.26370  0.21891  0.78536  1.0000 0.0503310459
C   C188      1.0  0.21900  0.47002  0.79201  1.0000 0.1368104216
C   C189      1.0  0.47020  0.35640  0.70821  1.0000 -0.1402969258
C   C190      1.0  0.51480  0.24360  0.03318  1.0000 -0.1487074814
C   C191      1.0  0.08350  0.33130  0.85015  1.0000 0.0612552816
C   C192      1.0  0.49890  0.31200  0.90429  1.0000 -0.2306268727
C   C193      1.0  0.93550  0.42083  0.60412  1.0000 -0.1586421192
C   C194      1.0  0.46770  0.29790  0.95123  1.0000 0.1105762047
C   C195      1.0  0.04190  0.50170  0.60149  1.0000 -0.1586421192
C   C196      1.0  0.13380  0.22910  0.70281  1.0000 -0.1780419955
C   C197      1.0  0.51870  0.54777  0.41734  1.0000 0.5403543515
C   C198      1.0  0.53240  0.28790  0.99834  1.0000 0.0612552816
C   C199      1.0  0.54710  0.34290  0.74090  1.0000 -0.0623083869
C   C200      1.0  0.16670  0.17360  0.71721  1.0000 -0.0489441079
C   C201      1.0  0.87790  0.44804  0.56490  1.0000 -0.0903111184
C   C202      1.0  0.04510  0.42034  0.27808  1.0000 -0.12801584
C   C203      1.0  0.66750  0.31530  0.05461  1.0000 -0.1115085977
C   C204      1.0  0.26220  0.55630  0.84140  1.0000 -0.0489441079
C   C205      1.0  0.98440  0.52860  0.56268  1.0000 -0.0903111184
C   C206      1.0  0.16250  0.28790  0.94138  1.0000 -0.1780419955
C   C207      1.0  0.82320  0.87220  0.40410  1.0000 -0.1705262637
C   C208      1.0  0.06750  0.29170  0.93250  1.0000 -0.0623083869
C   C209      1.0  0.75210  0.90126  0.37501  1.0000 0.0612552816
C   C210      1.0  0.66980  0.87160  0.36450  1.0000 -0.1586421192
C   C211      1.0  0.12060  0.45381  0.29853  1.0000 -0.1705262637
C   C212      1.0  0.83300  0.99960  0.37360  1.0000 -0.1586421192
C   C213      1.0  0.31270  0.52070  0.87720  1.0000 -0.1586421192
C   C214      1.0  0.60950  0.32390  0.00957  1.0000 -0.1705262637
C   C215      1.0  0.84760  0.05310  0.35040  1.0000 -0.1179084163
C   C216      1.0  0.31420  0.45960  0.86900  1.0000 0.0380942207
C   C217      1.0  0.26700  0.28293  0.09465  1.0000 -0.0489441079
C   C218      1.0  0.73870  0.96571  0.13748  1.0000 0.0612552816
C   C219      1.0  0.62610  0.79380  0.54717  1.0000 -0.2306268727
C   C220      1.0  0.34990  0.77141  0.41122  1.0000 -0.0385969101
C   C221      1.0  0.83220  0.77824  0.77007  1.0000 0.1368104216
C   C222      1.0  0.78520  0.03060  0.70120  1.0000 -0.1780419955
C   C223      1.0  0.28700  0.76030  0.36342  1.0000 0.5272501586
C   C224      1.0  0.57130  0.01969  0.10128  1.0000 -0.0228025648
C   C225      1.0  0.85700  0.84016  0.78295  1.0000 0.1489359764
C   C226      1.0  0.58580  0.96050  0.09183  1.0000 -0.1003246354
C   C227      1.0  0.27630  0.21880  0.08253  1.0000 0.5101619167
C   C228      1.0  0.42660  0.73460  0.42263  1.0000 -0.0903111184
C   C229      1.0  0.97880  0.86882  0.19840  1.0000 -0.0385969101
C   C230      1.0  0.18580  0.31330  0.08116  1.0000 -0.1179084163
C   C231      1.0  0.56350  0.82330  0.63830  1.0000 0.1489359764
C   C232      1.0  0.91240  0.86175  0.82514  1.0000 -0.2378535858
C   C233      1.0  0.19110  0.62805  0.21992  1.0000 0.5101619167
C   C234      1.0  0.05190  0.82780  0.22230  1.0000 0.5229929192
C   C235      1.0  0.54430  0.83720  0.69074  1.0000 0.1291396172
C   C236      1.0  0.20630  0.57062  0.19398  1.0000 -0.0385969101
C   C237      1.0  0.85410  0.88483  0.13180  1.0000 -0.1586421192
C   C238      1.0  0.68620  0.80665  0.59066  1.0000 0.1489359764
C   C239      1.0  0.72330  0.02526  0.14685  1.0000 -0.1487074814
C   C240      1.0  0.27510  0.53339  0.21412  1.0000 -0.1115085977
C   C241      1.0  0.98350  0.94810  0.87647  1.0000 0.0612552816
C   C242      1.0  0.97200  0.81340  0.61394  1.0000 -0.1487074814
C   C243      1.0  0.28910  0.47980  0.19119  1.0000 -0.1705262637
C   C244      1.0  0.09890  0.00230  0.95547  1.0000 -0.0385969101
C   C245      1.0  0.92410  0.92290  0.83184  1.0000 0.1105762047
C   C246      1.0  0.82590  0.93539  0.15636  1.0000 0.0612552816
C   C247      1.0  0.16580  0.03340  0.99401  1.0000 0.5272501586
C   C248      1.0  0.46000  0.83310  0.70797  1.0000 -0.1921845721
C   C249      1.0  0.83000  0.93730  0.75140  1.0000 0.1489359764
C   C250      1.0  0.78630  0.80750  0.59554  1.0000 0.1291396172
C   C251      1.0  0.23520  0.46135  0.14690  1.0000 0.0612552816
C   C252      1.0  0.64060  0.05276  0.12908  1.0000 -0.1003246354
C   C253      1.0  0.92920  0.85230  0.15194  1.0000 -0.1115085977
C   C254      1.0  0.61260  0.86110  0.77289  1.0000 0.0503310459
C   C255      1.0  0.33940  0.31300  0.12130  1.0000 -0.1179084163
C   C256      1.0  0.66890  0.93360  0.10967  1.0000 -0.1705262637
C   C257      1.0  0.88290  0.96040  0.79357  1.0000 -0.2306268727
C   C258      1.0  0.76640  0.66780  0.74178  1.0000 -0.1402969258
C   C259      1.0  0.73630  0.71891  0.71464  1.0000 0.0503310459
C   C260      1.0  0.78100  0.97002  0.70799  1.0000 0.1368104216
C   C261      1.0  0.52980  0.85640  0.79179  1.0000 -0.1402969258
C   C262      1.0  0.48520  0.74360  0.46682  1.0000 -0.1487074814
C   C263      1.0  0.91650  0.83130  0.64985  1.0000 0.0612552816
C   C264      1.0  0.50110  0.81200  0.59571  1.0000 -0.2306268727
C   C265      1.0  0.06450  0.92083  0.89588  1.0000 -0.1586421192
C   C266      1.0  0.53230  0.79790  0.54877  1.0000 0.1105762047
C   C267      1.0  0.95810  0.00170  0.89851  1.0000 -0.1586421192
C   C268      1.0  0.86620  0.72910  0.79719  1.0000 -0.1780419955
C   C269      1.0  0.48130  0.04777  0.08266  1.0000 0.5403543515
C   C270      1.0  0.46760  0.78790  0.50166  1.0000 0.0612552816
C   C271      1.0  0.45290  0.84290  0.75910  1.0000 -0.0623083869
C   C272      1.0  0.83330  0.67360  0.78279  1.0000 -0.0489441079
C   C273      1.0  0.12210  0.94804  0.93510  1.0000 -0.0903111184
C   C274      1.0  0.95490  0.92034  0.22192  1.0000 -0.12801584
C   C275      1.0  0.33250  0.81530  0.44539  1.0000 -0.1115085977
C   C276      1.0  0.73780  0.05630  0.65860  1.0000 -0.0489441079
C   C277      1.0  0.01560  0.02860  0.93732  1.0000 -0.0903111184
C   C278      1.0  0.83750  0.78790  0.55862  1.0000 -0.1780419955
C   C279      1.0  0.17680  0.37220  0.09590  1.0000 -0.1705262637
C   C280      1.0  0.93250  0.79170  0.56750  1.0000 -0.0623083869
C   C281      1.0  0.24790  0.40126  0.12499  1.0000 0.0612552816
C   C282      1.0  0.33020  0.37160  0.13550  1.0000 -0.1586421192
C   C283      1.0  0.87940  0.95381  0.20147  1.0000 -0.1705262637
C   C284      1.0  0.16700  0.49960  0.12640  1.0000 -0.1586421192
C   C285      1.0  0.68730  0.02070  0.62280  1.0000 -0.1586421192
C   C286      1.0  0.39050  0.82390  0.49043  1.0000 -0.1705262637
C   C287      1.0  0.15240  0.55310  0.14960  1.0000 -0.1179084163
C   C288      1.0  0.68580  0.95960  0.63100  1.0000 0.0380942207
N   N1        1.0  0.81680  0.62228  0.24653  1.0000 -0.2378535858
N   N2        1.0  0.65420  0.67860  0.13503  1.0000 -0.2306268727
N   N3        1.0  0.82540  0.67099  0.14193  1.0000 -0.2070924016
N   N4        1.0  0.62190  0.64818  0.22270  1.0000 -0.2070924016
N   N5        1.0  0.76850  0.72711  0.22769  1.0000 -0.1981028514
N   N6        1.0  0.73130  0.56600  0.17313  1.0000 -0.1981028514
N   N7        1.0  0.18320  0.12228  0.25347  1.0000 -0.2378535858
N   N8        1.0  0.34580  0.17860  0.36497  1.0000 -0.2306268727
N   N9        1.0  0.17460  0.17099  0.35807  1.0000 -0.2070924016
N   N10       1.0  0.37810  0.14818  0.27730  1.0000 -0.2070924016
N   N11       1.0  0.23150  0.22711  0.27231  1.0000 -0.1981028514
N   N12       1.0  0.26870  0.06600  0.32687  1.0000 -0.1981028514
N   N13       1.0  0.18320  0.37772  0.75347  1.0000 -0.2378535858
N   N14       1.0  0.34580  0.32140  0.86497  1.0000 -0.2306268727
N   N15       1.0  0.17460  0.32901  0.85807  1.0000 -0.2070924016
N   N16       1.0  0.37810  0.35182  0.77730  1.0000 -0.2070924016
N   N17       1.0  0.23150  0.27289  0.77231  1.0000 -0.1981028514
N   N18       1.0  0.26870  0.43400  0.82687  1.0000 -0.1981028514
N   N19       1.0  0.81680  0.87772  0.74653  1.0000 -0.2378535858
N   N20       1.0  0.65420  0.82140  0.63503  1.0000 -0.2306268727
N   N21       1.0  0.82540  0.82901  0.64193  1.0000 -0.2070924016
N   N22       1.0  0.62190  0.85182  0.72270  1.0000 -0.2070924016
N   N23       1.0  0.76850  0.77289  0.72769  1.0000 -0.1981028514
N   N24       1.0  0.73130  0.93400  0.67313  1.0000 -0.1981028514
O   O1        1.0  0.23370  0.86107  0.76297  1.0000 -0.5644920068
O   O2        1.0  0.46720  0.39786  0.59116  1.0000 -0.597139989
O   O3        1.0  0.34980  0.30808  0.59809  1.0000 -0.5804033773
O   O4        1.0  0.09950  0.65896  0.76440  1.0000 -0.597139989
O   O5        1.0  0.29230  0.78821  0.83931  1.0000 -0.5879319456
O   O6        1.0  0.22900  0.70091  0.84676  1.0000 -0.5879319456
O   O7        1.0  0.21220  0.30881  0.55679  1.0000 -0.5804033773
O   O8        1.0  0.41820  0.48336  0.55880  1.0000 -0.5644920068
O   O9        1.0  0.24040  0.49150  0.51023  1.0000 -0.5679485
O   O10       1.0  0.13570  0.83378  0.69911  1.0000 -0.5804033773
O   O11       1.0  0.06330  0.72119  0.70117  1.0000 -0.5804033773
O   O12       1.0  0.14860  0.41483  0.50898  1.0000 -0.5879319456
O   O13       1.0  0.76630  0.36107  0.73703  1.0000 -0.5679485
O   O14       1.0  0.53280  0.89786  0.90884  1.0000 -0.597139989
O   O15       1.0  0.65020  0.80808  0.90191  1.0000 -0.5804033773
O   O16       1.0  0.90050  0.15896  0.73560  1.0000 -0.597139989
O   O17       1.0  0.70770  0.28821  0.66069  1.0000 -0.5879319456
O   O18       1.0  0.77100  0.20091  0.65324  1.0000 -0.5879319456
O   O19       1.0  0.78780  0.80881  0.94321  1.0000 -0.5804033773
O   O20       1.0  0.58180  0.98336  0.94120  1.0000 -0.5644920068
O   O21       1.0  0.75960  0.99150  0.98977  1.0000 -0.5679485
O   O22       1.0  0.86430  0.33378  0.80089  1.0000 -0.5804033773
O   O23       1.0  0.93670  0.22119  0.79883  1.0000 -0.5804033773
O   O24       1.0  0.85140  0.91483  0.99102  1.0000 -0.5879319456
O   O25       1.0  0.76630  0.13893  0.23703  1.0000 -0.5679485
O   O26       1.0  0.53280  0.60214  0.40884  1.0000 -0.597139989
O   O27       1.0  0.65020  0.69192  0.40191  1.0000 -0.5804033773
O   O28       1.0  0.90050  0.34104  0.23560  1.0000 -0.597139989
O   O29       1.0  0.70770  0.21179  0.16069  1.0000 -0.5879319456
O   O30       1.0  0.77100  0.29909  0.15324  1.0000 -0.5879319456
O   O31       1.0  0.78780  0.69119  0.44321  1.0000 -0.5804033773
O   O32       1.0  0.58180  0.51664  0.44120  1.0000 -0.5644920068
O   O33       1.0  0.75960  0.50850  0.48977  1.0000 -0.5679485
O   O34       1.0  0.86430  0.16622  0.30089  1.0000 -0.5804033773
O   O35       1.0  0.93670  0.27881  0.29883  1.0000 -0.5804033773
O   O36       1.0  0.85140  0.58517  0.49102  1.0000 -0.5879319456
O   O37       1.0  0.23370  0.63893  0.26297  1.0000 -0.5644920068
O   O38       1.0  0.46720  0.10214  0.09116  1.0000 -0.597139989
O   O39       1.0  0.34980  0.19192  0.09809  1.0000 -0.5804033773
O   O40       1.0  0.09950  0.84104  0.26440  1.0000 -0.597139989
O   O41       1.0  0.29230  0.71179  0.33931  1.0000 -0.5879319456
O   O42       1.0  0.22900  0.79909  0.34676  1.0000 -0.5879319456
O   O43       1.0  0.21220  0.19119  0.05679  1.0000 -0.5804033773
O   O44       1.0  0.41820  0.01664  0.05880  1.0000 -0.5644920068
O   O45       1.0  0.24040  0.00850  0.01023  1.0000 -0.5679485
O   O46       1.0  0.13570  0.66622  0.19911  1.0000 -0.5804033773
O   O47       1.0  0.06330  0.77881  0.20117  1.0000 -0.5804033773
O   O48       1.0  0.14860  0.08517  0.00898  1.0000 -0.5879319456
