# DDEC6 charges by PACMAN v1.1 (https://github.com/mtap-research/PACMAN-charge/)
data_2020[Zr][afw]3[ASR]1
_chemical_formula_sum              "Zr36 H324 C516 N48 O168"
_cell_length_a       31.7619
_cell_length_b       31.7619
_cell_length_c       31.7619
_cell_angle_alpha    112.799
_cell_angle_beta     112.799
_cell_angle_gamma    112.799

_symmetry_space_group_name_H-M    "P 1"
_symmetry_Int_Tables_number       1

loop_
  _symmetry_equiv_pos_as_xyz
  'x, y, z'

loop_
  _atom_site_type_symbol
  _atom_site_label
  _atom_site_symmetry_multiplicity
  _atom_site_fract_x
  _atom_site_fract_y
  _atom_site_fract_z
  _atom_site_occupancy
  _atom_site_charge
Zr  Zr1       1.0  0.38232  0.21001  0.93494  1.0000 2.3719157142
Zr  Zr2       1.0  0.43357  0.14747  0.98610  1.0000 2.363160052
Zr  Zr3       1.0  0.93494  0.38232  0.21001  1.0000 2.3771231553
Zr  Zr4       1.0  0.98610  0.43357  0.14747  1.0000 2.3719157142
Zr  Zr5       1.0  0.21001  0.93494  0.38232  1.0000 2.3719157142
Zr  Zr6       1.0  0.14747  0.98610  0.43357  1.0000 2.363160052
Zr  Zr7       1.0  0.11768  0.56506  0.28999  1.0000 2.3719157142
Zr  Zr8       1.0  0.06643  0.51390  0.35253  1.0000 2.363160052
Zr  Zr9       1.0  0.56506  0.28999  0.11768  1.0000 2.3719157142
Zr  Zr10      1.0  0.51390  0.35253  0.06643  1.0000 2.363160052
Zr  Zr11      1.0  0.28999  0.11768  0.56506  1.0000 2.3719157142
Zr  Zr12      1.0  0.35253  0.06643  0.51390  1.0000 2.363160052
Zr  Zr13      1.0  0.42742  0.25000  0.07258  1.0000 2.3409299037
Zr  Zr14      1.0  0.52062  0.25000  0.97938  1.0000 2.3264793139
Zr  Zr15      1.0  0.07258  0.42742  0.25000  1.0000 2.3409299037
Zr  Zr16      1.0  0.97938  0.52062  0.25000  1.0000 2.3264793139
Zr  Zr17      1.0  0.25000  0.07258  0.42742  1.0000 2.3409299037
Zr  Zr18      1.0  0.25000  0.97938  0.52062  1.0000 2.3264793139
Zr  Zr19      1.0  0.61768  0.78999  0.06506  1.0000 2.3771231553
Zr  Zr20      1.0  0.56643  0.85253  0.01390  1.0000 2.363160052
Zr  Zr21      1.0  0.06506  0.61768  0.78999  1.0000 2.3771231553
Zr  Zr22      1.0  0.01390  0.56643  0.85253  1.0000 2.3719157142
Zr  Zr23      1.0  0.78999  0.06506  0.61768  1.0000 2.3719157142
Zr  Zr24      1.0  0.85253  0.01390  0.56643  1.0000 2.363160052
Zr  Zr25      1.0  0.88232  0.43494  0.71001  1.0000 2.3771231553
Zr  Zr26      1.0  0.93357  0.48610  0.64747  1.0000 2.363160052
Zr  Zr27      1.0  0.43494  0.71001  0.88232  1.0000 2.3719157142
Zr  Zr28      1.0  0.48610  0.64747  0.93357  1.0000 2.363160052
Zr  Zr29      1.0  0.71001  0.88232  0.43494  1.0000 2.3719157142
Zr  Zr30      1.0  0.64747  0.93357  0.48610  1.0000 2.3719157142
Zr  Zr31      1.0  0.57258  0.75000  0.92742  1.0000 2.3409299037
Zr  Zr32      1.0  0.47938  0.75000  0.02062  1.0000 2.3264793139
Zr  Zr33      1.0  0.92742  0.57258  0.75000  1.0000 2.3409299037
Zr  Zr34      1.0  0.02062  0.47938  0.75000  1.0000 2.3264793139
Zr  Zr35      1.0  0.75000  0.92742  0.57258  1.0000 2.3409299037
Zr  Zr36      1.0  0.75000  0.02062  0.47938  1.0000 2.3264793139
H   H1        1.0  0.46760  0.30010  0.94650  1.0000 0.4123000136
H   H2        1.0  0.30070  0.04340  0.15140  1.0000 0.2767513288
H   H3        1.0  0.25700  0.04780  0.15050  1.0000 0.2678261191
H   H4        1.0  0.22330  0.67060  0.53450  1.0000 0.1268862498
H   H5        1.0  0.12230  0.83910  0.04780  1.0000 0.1206988458
H   H6        1.0  0.33650  0.84540  0.64940  1.0000 0.2678261191
H   H7        1.0  0.36780  0.89950  0.70560  1.0000 0.2678261191
H   H8        1.0  0.55040  0.96360  0.82520  1.0000 0.1206988458
H   H9        1.0  0.19530  0.87510  0.14580  1.0000 0.1122223315
H   H10       1.0  0.46050  0.80640  0.66970  1.0000 0.1206988458
H   H11       1.0  0.38930  0.79860  0.56450  1.0000 0.1206988458
H   H12       1.0  0.30000  0.71830  0.46830  1.0000 0.1206988458
H   H13       1.0  0.19610  0.88960  0.22410  1.0000 0.1206988458
H   H14       1.0  0.40250  0.92790  0.79400  1.0000 0.1122223315
H   H15       1.0  0.54260  0.12090  0.87610  1.0000 0.1206988458
H   H16       1.0  0.34590  0.02340  0.01400  1.0000 0.1206988458
H   H17       1.0  0.23880  0.05240  0.07110  1.0000 0.1122223315
H   H18       1.0  0.31100  0.75290  0.63030  1.0000 0.1206988458
H   H19       1.0  0.54040  0.04620  0.81890  1.0000 0.1122223315
H   H20       1.0  0.17280  0.88190  0.96230  1.0000 0.1206988458
H   H21       1.0  0.29720  0.11980  0.06710  1.0000 0.1268862498
H   H22       1.0  0.40680  0.00380  0.85450  1.0000 0.1206988458
H   H23       1.0  0.19530  0.01100  0.17550  1.0000 0.1122223315
H   H24       1.0  0.20050  0.02860  0.25620  1.0000 0.1268862498
H   H25       1.0  0.33440  0.13920  0.96100  1.0000 0.3752405873
H   H26       1.0  0.28840  0.95610  0.01910  1.0000 0.1122223315
H   H27       1.0  0.40340  0.17290  0.80970  1.0000 0.0887273935
H   H28       1.0  0.94650  0.46760  0.30010  1.0000 0.4123000136
H   H29       1.0  0.15140  0.30070  0.04340  1.0000 0.2767513288
H   H30       1.0  0.15050  0.25700  0.04780  1.0000 0.2767513288
H   H31       1.0  0.53450  0.22330  0.67060  1.0000 0.1268862498
H   H32       1.0  0.04780  0.12230  0.83910  1.0000 0.1206988458
H   H33       1.0  0.64940  0.33650  0.84540  1.0000 0.2678261191
H   H34       1.0  0.70560  0.36780  0.89950  1.0000 0.2678261191
H   H35       1.0  0.82520  0.55040  0.96360  1.0000 0.1206988458
H   H36       1.0  0.14580  0.19530  0.87510  1.0000 0.1122223315
H   H37       1.0  0.66970  0.46050  0.80640  1.0000 0.1206988458
H   H38       1.0  0.56450  0.38930  0.79860  1.0000 0.1206988458
H   H39       1.0  0.46830  0.30000  0.71830  1.0000 0.1206988458
H   H40       1.0  0.22410  0.19610  0.88960  1.0000 0.1206988458
H   H41       1.0  0.79400  0.40250  0.92790  1.0000 0.1122223315
H   H42       1.0  0.87610  0.54260  0.12090  1.0000 0.1206988458
H   H43       1.0  0.01400  0.34590  0.02340  1.0000 0.1206988458
H   H44       1.0  0.07110  0.23880  0.05240  1.0000 0.1122223315
H   H45       1.0  0.63030  0.31100  0.75290  1.0000 0.1206988458
H   H46       1.0  0.81890  0.54040  0.04620  1.0000 0.1122223315
H   H47       1.0  0.96230  0.17280  0.88190  1.0000 0.1206988458
H   H48       1.0  0.06710  0.29720  0.11980  1.0000 0.1268862498
H   H49       1.0  0.85450  0.40680  0.00380  1.0000 0.1206988458
H   H50       1.0  0.17550  0.19530  0.01100  1.0000 0.1122223315
H   H51       1.0  0.25620  0.20050  0.02860  1.0000 0.1268862498
H   H52       1.0  0.96100  0.33440  0.13920  1.0000 0.3752405873
H   H53       1.0  0.01910  0.28840  0.95610  1.0000 0.1122223315
H   H54       1.0  0.80970  0.40340  0.17290  1.0000 0.0887273935
H   H55       1.0  0.30010  0.94650  0.46760  1.0000 0.4123000136
H   H56       1.0  0.04340  0.15140  0.30070  1.0000 0.2767513288
H   H57       1.0  0.04780  0.15050  0.25700  1.0000 0.2678261191
H   H58       1.0  0.67060  0.53450  0.22330  1.0000 0.1268862498
H   H59       1.0  0.83910  0.04780  0.12230  1.0000 0.1206988458
H   H60       1.0  0.84540  0.64940  0.33650  1.0000 0.2678261191
H   H61       1.0  0.89950  0.70560  0.36780  1.0000 0.2678261191
H   H62       1.0  0.96360  0.82520  0.55040  1.0000 0.1206988458
H   H63       1.0  0.87510  0.14580  0.19530  1.0000 0.1122223315
H   H64       1.0  0.80640  0.66970  0.46050  1.0000 0.1206988458
H   H65       1.0  0.79860  0.56450  0.38930  1.0000 0.1206988458
H   H66       1.0  0.71830  0.46830  0.30000  1.0000 0.1206988458
H   H67       1.0  0.88960  0.22410  0.19610  1.0000 0.1206988458
H   H68       1.0  0.92790  0.79400  0.40250  1.0000 0.1122223315
H   H69       1.0  0.12090  0.87610  0.54260  1.0000 0.1206988458
H   H70       1.0  0.02340  0.01400  0.34590  1.0000 0.1206988458
H   H71       1.0  0.05240  0.07110  0.23880  1.0000 0.1122223315
H   H72       1.0  0.75290  0.63030  0.31100  1.0000 0.1206988458
H   H73       1.0  0.04620  0.81890  0.54040  1.0000 0.1122223315
H   H74       1.0  0.88190  0.96230  0.17280  1.0000 0.1206988458
H   H75       1.0  0.11980  0.06710  0.29720  1.0000 0.1268862498
H   H76       1.0  0.00380  0.85450  0.40680  1.0000 0.1206988458
H   H77       1.0  0.01100  0.17550  0.19530  1.0000 0.1122223315
H   H78       1.0  0.02860  0.25620  0.20050  1.0000 0.1268862498
H   H79       1.0  0.13920  0.96100  0.33440  1.0000 0.3752405873
H   H80       1.0  0.95610  0.01910  0.28840  1.0000 0.1122223315
H   H81       1.0  0.17290  0.80970  0.40340  1.0000 0.0887273935
H   H82       1.0  0.03240  0.55350  0.19990  1.0000 0.4123000136
H   H83       1.0  0.19930  0.34860  0.45660  1.0000 0.2767513288
H   H84       1.0  0.24300  0.34950  0.45220  1.0000 0.2767513288
H   H85       1.0  0.27670  0.96550  0.82940  1.0000 0.1268862498
H   H86       1.0  0.37770  0.45220  0.66090  1.0000 0.1206988458
H   H87       1.0  0.16350  0.85060  0.65460  1.0000 0.2678261191
H   H88       1.0  0.13220  0.79440  0.60050  1.0000 0.2678261191
H   H89       1.0  0.94960  0.67480  0.53640  1.0000 0.1206988458
H   H90       1.0  0.30470  0.35420  0.62490  1.0000 0.1122223315
H   H91       1.0  0.03950  0.83030  0.69360  1.0000 0.1206988458
H   H92       1.0  0.11070  0.93550  0.70140  1.0000 0.1206988458
H   H93       1.0  0.20000  0.03170  0.78170  1.0000 0.1206988458
H   H94       1.0  0.30390  0.27590  0.61040  1.0000 0.1206988458
H   H95       1.0  0.09750  0.70600  0.57210  1.0000 0.1122223315
H   H96       1.0  0.95740  0.62390  0.37910  1.0000 0.1206988458
H   H97       1.0  0.15410  0.48600  0.47660  1.0000 0.1206988458
H   H98       1.0  0.26120  0.42890  0.44760  1.0000 0.1122223315
H   H99       1.0  0.18900  0.86970  0.74710  1.0000 0.1206988458
H   H100      1.0  0.95960  0.68110  0.45380  1.0000 0.1122223315
H   H101      1.0  0.32720  0.53770  0.61810  1.0000 0.1206988458
H   H102      1.0  0.20280  0.43290  0.38020  1.0000 0.1268862498
H   H103      1.0  0.09320  0.64550  0.49620  1.0000 0.1206988458
H   H104      1.0  0.30470  0.32450  0.48900  1.0000 0.1122223315
H   H105      1.0  0.29950  0.24380  0.47140  1.0000 0.1268862498
H   H106      1.0  0.16560  0.53900  0.36080  1.0000 0.3752405873
H   H107      1.0  0.21160  0.48090  0.54390  1.0000 0.1122223315
H   H108      1.0  0.09660  0.69030  0.32710  1.0000 0.0887273935
H   H109      1.0  0.55350  0.19990  0.03240  1.0000 0.4123000136
H   H110      1.0  0.34860  0.45660  0.19930  1.0000 0.2767513288
H   H111      1.0  0.34950  0.45220  0.24300  1.0000 0.2678261191
H   H112      1.0  0.96550  0.82940  0.27670  1.0000 0.1268862498
H   H113      1.0  0.45220  0.66090  0.37770  1.0000 0.1206988458
H   H114      1.0  0.85060  0.65460  0.16350  1.0000 0.2678261191
H   H115      1.0  0.79440  0.60050  0.13220  1.0000 0.2678261191
H   H116      1.0  0.67480  0.53640  0.94960  1.0000 0.1206988458
H   H117      1.0  0.35420  0.62490  0.30470  1.0000 0.1122223315
H   H118      1.0  0.83030  0.69360  0.03950  1.0000 0.1206988458
H   H119      1.0  0.93550  0.70140  0.11070  1.0000 0.1206988458
H   H120      1.0  0.03170  0.78170  0.20000  1.0000 0.1206988458
H   H121      1.0  0.27590  0.61040  0.30390  1.0000 0.1206988458
H   H122      1.0  0.70600  0.57210  0.09750  1.0000 0.1122223315
H   H123      1.0  0.62390  0.37910  0.95740  1.0000 0.1206988458
H   H124      1.0  0.48600  0.47660  0.15410  1.0000 0.1206988458
H   H125      1.0  0.42890  0.44760  0.26120  1.0000 0.1122223315
H   H126      1.0  0.86970  0.74710  0.18900  1.0000 0.1206988458
H   H127      1.0  0.68110  0.45380  0.95960  1.0000 0.1122223315
H   H128      1.0  0.53770  0.61810  0.32720  1.0000 0.1206988458
H   H129      1.0  0.43290  0.38020  0.20280  1.0000 0.1268862498
H   H130      1.0  0.64550  0.49620  0.09320  1.0000 0.1268862498
H   H131      1.0  0.32450  0.48900  0.30470  1.0000 0.1122223315
H   H132      1.0  0.24380  0.47140  0.29950  1.0000 0.1268862498
H   H133      1.0  0.53900  0.36080  0.16560  1.0000 0.3752405873
H   H134      1.0  0.48090  0.54390  0.21160  1.0000 0.1122223315
H   H135      1.0  0.69030  0.32710  0.09660  1.0000 0.0887273935
H   H136      1.0  0.19990  0.03240  0.55350  1.0000 0.4123000136
H   H137      1.0  0.45660  0.19930  0.34860  1.0000 0.2767513288
H   H138      1.0  0.45220  0.24300  0.34950  1.0000 0.2678261191
H   H139      1.0  0.82940  0.27670  0.96550  1.0000 0.1268862498
H   H140      1.0  0.66090  0.37770  0.45220  1.0000 0.1206988458
H   H141      1.0  0.65460  0.16350  0.85060  1.0000 0.2678261191
H   H142      1.0  0.60050  0.13220  0.79440  1.0000 0.2678261191
H   H143      1.0  0.53640  0.94960  0.67480  1.0000 0.1206988458
H   H144      1.0  0.62490  0.30470  0.35420  1.0000 0.1122223315
H   H145      1.0  0.69360  0.03950  0.83030  1.0000 0.1206988458
H   H146      1.0  0.70140  0.11070  0.93550  1.0000 0.1206988458
H   H147      1.0  0.78170  0.20000  0.03170  1.0000 0.1206988458
H   H148      1.0  0.61040  0.30390  0.27590  1.0000 0.1206988458
H   H149      1.0  0.57210  0.09750  0.70600  1.0000 0.1122223315
H   H150      1.0  0.37910  0.95740  0.62390  1.0000 0.1206988458
H   H151      1.0  0.47660  0.15410  0.48600  1.0000 0.1206988458
H   H152      1.0  0.44760  0.26120  0.42890  1.0000 0.1122223315
H   H153      1.0  0.74710  0.18900  0.86970  1.0000 0.1206988458
H   H154      1.0  0.45380  0.95960  0.68110  1.0000 0.1122223315
H   H155      1.0  0.61810  0.32720  0.53770  1.0000 0.1206988458
H   H156      1.0  0.38020  0.20280  0.43290  1.0000 0.1268862498
H   H157      1.0  0.49620  0.09320  0.64550  1.0000 0.1206988458
H   H158      1.0  0.48900  0.30470  0.32450  1.0000 0.1122223315
H   H159      1.0  0.47140  0.29950  0.24380  1.0000 0.1268862498
H   H160      1.0  0.36080  0.16560  0.53900  1.0000 0.3752405873
H   H161      1.0  0.54390  0.21160  0.48090  1.0000 0.1122223315
H   H162      1.0  0.32710  0.09660  0.69030  1.0000 0.0887273935
H   H163      1.0  0.53240  0.69990  0.05350  1.0000 0.4123000136
H   H164      1.0  0.69930  0.95660  0.84860  1.0000 0.2767513288
H   H165      1.0  0.74300  0.95220  0.84950  1.0000 0.2678261191
H   H166      1.0  0.77670  0.32940  0.46550  1.0000 0.1268862498
H   H167      1.0  0.87770  0.16090  0.95220  1.0000 0.1206988458
H   H168      1.0  0.66350  0.15460  0.35060  1.0000 0.2678261191
H   H169      1.0  0.63220  0.10050  0.29440  1.0000 0.2678261191
H   H170      1.0  0.44960  0.03640  0.17480  1.0000 0.1206988458
H   H171      1.0  0.80470  0.12490  0.85420  1.0000 0.1122223315
H   H172      1.0  0.53950  0.19360  0.33030  1.0000 0.1206988458
H   H173      1.0  0.61070  0.20140  0.43550  1.0000 0.1206988458
H   H174      1.0  0.70000  0.28170  0.53170  1.0000 0.1206988458
H   H175      1.0  0.80390  0.11040  0.77590  1.0000 0.1206988458
H   H176      1.0  0.59750  0.07210  0.20600  1.0000 0.1122223315
H   H177      1.0  0.45740  0.87910  0.12390  1.0000 0.1206988458
H   H178      1.0  0.65410  0.97660  0.98600  1.0000 0.1206988458
H   H179      1.0  0.76120  0.94760  0.92890  1.0000 0.1122223315
H   H180      1.0  0.68900  0.24710  0.36970  1.0000 0.1206988458
H   H181      1.0  0.45960  0.95380  0.18110  1.0000 0.1122223315
H   H182      1.0  0.82720  0.11810  0.03770  1.0000 0.1206988458
H   H183      1.0  0.70280  0.88020  0.93290  1.0000 0.1268862498
H   H184      1.0  0.59320  0.99620  0.14550  1.0000 0.1206988458
H   H185      1.0  0.80470  0.98900  0.82450  1.0000 0.1122223315
H   H186      1.0  0.79950  0.97140  0.74380  1.0000 0.1268862498
H   H187      1.0  0.66560  0.86080  0.03900  1.0000 0.3752405873
H   H188      1.0  0.71160  0.04390  0.98090  1.0000 0.1122223315
H   H189      1.0  0.59660  0.82710  0.19030  1.0000 0.0887273935
H   H190      1.0  0.05350  0.53240  0.69990  1.0000 0.4123000136
H   H191      1.0  0.84860  0.69930  0.95660  1.0000 0.2767513288
H   H192      1.0  0.84950  0.74300  0.95220  1.0000 0.2767513288
H   H193      1.0  0.46550  0.77670  0.32940  1.0000 0.1268862498
H   H194      1.0  0.95220  0.87770  0.16090  1.0000 0.1206988458
H   H195      1.0  0.35060  0.66350  0.15460  1.0000 0.2678261191
H   H196      1.0  0.29440  0.63220  0.10050  1.0000 0.2678261191
H   H197      1.0  0.17480  0.44960  0.03640  1.0000 0.1206988458
H   H198      1.0  0.85420  0.80470  0.12490  1.0000 0.1122223315
H   H199      1.0  0.33030  0.53950  0.19360  1.0000 0.1206988458
H   H200      1.0  0.43550  0.61070  0.20140  1.0000 0.1206988458
H   H201      1.0  0.53170  0.70000  0.28170  1.0000 0.1206988458
H   H202      1.0  0.77590  0.80390  0.11040  1.0000 0.1206988458
H   H203      1.0  0.20600  0.59750  0.07210  1.0000 0.1122223315
H   H204      1.0  0.12390  0.45740  0.87910  1.0000 0.1206988458
H   H205      1.0  0.98600  0.65410  0.97660  1.0000 0.1206988458
H   H206      1.0  0.92890  0.76120  0.94760  1.0000 0.1122223315
H   H207      1.0  0.36970  0.68900  0.24710  1.0000 0.1206988458
H   H208      1.0  0.18110  0.45960  0.95380  1.0000 0.1122223315
H   H209      1.0  0.03770  0.82720  0.11810  1.0000 0.1206988458
H   H210      1.0  0.93290  0.70280  0.88020  1.0000 0.1268862498
H   H211      1.0  0.14550  0.59320  0.99620  1.0000 0.1206988458
H   H212      1.0  0.82450  0.80470  0.98900  1.0000 0.1122223315
H   H213      1.0  0.74380  0.79950  0.97140  1.0000 0.1268862498
H   H214      1.0  0.03900  0.66560  0.86080  1.0000 0.3752405873
H   H215      1.0  0.98090  0.71160  0.04390  1.0000 0.1122223315
H   H216      1.0  0.19030  0.59660  0.82710  1.0000 0.0887273935
H   H217      1.0  0.69990  0.05350  0.53240  1.0000 0.4123000136
H   H218      1.0  0.95660  0.84860  0.69930  1.0000 0.2767513288
H   H219      1.0  0.95220  0.84950  0.74300  1.0000 0.2678261191
H   H220      1.0  0.32940  0.46550  0.77670  1.0000 0.1268862498
H   H221      1.0  0.16090  0.95220  0.87770  1.0000 0.1206988458
H   H222      1.0  0.15460  0.35060  0.66350  1.0000 0.2678261191
H   H223      1.0  0.10050  0.29440  0.63220  1.0000 0.2678261191
H   H224      1.0  0.03640  0.17480  0.44960  1.0000 0.1206988458
H   H225      1.0  0.12490  0.85420  0.80470  1.0000 0.1122223315
H   H226      1.0  0.19360  0.33030  0.53950  1.0000 0.1206988458
H   H227      1.0  0.20140  0.43550  0.61070  1.0000 0.1206988458
H   H228      1.0  0.28170  0.53170  0.70000  1.0000 0.1206988458
H   H229      1.0  0.11040  0.77590  0.80390  1.0000 0.1206988458
H   H230      1.0  0.07210  0.20600  0.59750  1.0000 0.1122223315
H   H231      1.0  0.87910  0.12390  0.45740  1.0000 0.1206988458
H   H232      1.0  0.97660  0.98600  0.65410  1.0000 0.1206988458
H   H233      1.0  0.94760  0.92890  0.76120  1.0000 0.1122223315
H   H234      1.0  0.24710  0.36970  0.68900  1.0000 0.1206988458
H   H235      1.0  0.95380  0.18110  0.45960  1.0000 0.1122223315
H   H236      1.0  0.11810  0.03770  0.82720  1.0000 0.1206988458
H   H237      1.0  0.88020  0.93290  0.70280  1.0000 0.1268862498
H   H238      1.0  0.99620  0.14550  0.59320  1.0000 0.1206988458
H   H239      1.0  0.98900  0.82450  0.80470  1.0000 0.1122223315
H   H240      1.0  0.97140  0.74380  0.79950  1.0000 0.1268862498
H   H241      1.0  0.86080  0.03900  0.66560  1.0000 0.3752405873
H   H242      1.0  0.04390  0.98090  0.71160  1.0000 0.1122223315
H   H243      1.0  0.82710  0.19030  0.59660  1.0000 0.0887273935
H   H244      1.0  0.96760  0.44650  0.80010  1.0000 0.4123000136
H   H245      1.0  0.80070  0.65140  0.54340  1.0000 0.2767513288
H   H246      1.0  0.75700  0.65050  0.54780  1.0000 0.2678261191
H   H247      1.0  0.72330  0.03450  0.17060  1.0000 0.1268862498
H   H248      1.0  0.62230  0.54780  0.33910  1.0000 0.1206988458
H   H249      1.0  0.83650  0.14940  0.34540  1.0000 0.2678261191
H   H250      1.0  0.86780  0.20560  0.39950  1.0000 0.2678261191
H   H251      1.0  0.05040  0.32520  0.46360  1.0000 0.1206988458
H   H252      1.0  0.69530  0.64580  0.37510  1.0000 0.1122223315
H   H253      1.0  0.96050  0.16970  0.30640  1.0000 0.1206988458
H   H254      1.0  0.88930  0.06450  0.29860  1.0000 0.1206988458
H   H255      1.0  0.80000  0.96830  0.21830  1.0000 0.1206988458
H   H256      1.0  0.69610  0.72410  0.38960  1.0000 0.1206988458
H   H257      1.0  0.90250  0.29400  0.42790  1.0000 0.1122223315
H   H258      1.0  0.04260  0.37610  0.62090  1.0000 0.1206988458
H   H259      1.0  0.84590  0.51400  0.52340  1.0000 0.1206988458
H   H260      1.0  0.73880  0.57110  0.55240  1.0000 0.1122223315
H   H261      1.0  0.81100  0.13030  0.25290  1.0000 0.1206988458
H   H262      1.0  0.04040  0.31890  0.54620  1.0000 0.1122223315
H   H263      1.0  0.67280  0.46230  0.38190  1.0000 0.1206988458
H   H264      1.0  0.79720  0.56710  0.61980  1.0000 0.1268862498
H   H265      1.0  0.90680  0.35450  0.50380  1.0000 0.1206988458
H   H266      1.0  0.69530  0.67550  0.51100  1.0000 0.1122223315
H   H267      1.0  0.70050  0.75620  0.52860  1.0000 0.1268862498
H   H268      1.0  0.83440  0.46100  0.63920  1.0000 0.3752405873
H   H269      1.0  0.78840  0.51910  0.45610  1.0000 0.1122223315
H   H270      1.0  0.90340  0.30970  0.67290  1.0000 0.0887273935
H   H271      1.0  0.44650  0.80010  0.96760  1.0000 0.4123000136
H   H272      1.0  0.65140  0.54340  0.80070  1.0000 0.2767513288
H   H273      1.0  0.65050  0.54780  0.75700  1.0000 0.2678261191
H   H274      1.0  0.03450  0.17060  0.72330  1.0000 0.1268862498
H   H275      1.0  0.54780  0.33910  0.62230  1.0000 0.1206988458
H   H276      1.0  0.14940  0.34540  0.83650  1.0000 0.2678261191
H   H277      1.0  0.20560  0.39950  0.86780  1.0000 0.2678261191
H   H278      1.0  0.32520  0.46360  0.05040  1.0000 0.1206988458
H   H279      1.0  0.64580  0.37510  0.69530  1.0000 0.1122223315
H   H280      1.0  0.16970  0.30640  0.96050  1.0000 0.1206988458
H   H281      1.0  0.06450  0.29860  0.88930  1.0000 0.1206988458
H   H282      1.0  0.96830  0.21830  0.80000  1.0000 0.1206988458
H   H283      1.0  0.72410  0.38960  0.69610  1.0000 0.1206988458
H   H284      1.0  0.29400  0.42790  0.90250  1.0000 0.1122223315
H   H285      1.0  0.37610  0.62090  0.04260  1.0000 0.1206988458
H   H286      1.0  0.51400  0.52340  0.84590  1.0000 0.1206988458
H   H287      1.0  0.57110  0.55240  0.73880  1.0000 0.1122223315
H   H288      1.0  0.13030  0.25290  0.81100  1.0000 0.1206988458
H   H289      1.0  0.31890  0.54620  0.04040  1.0000 0.1122223315
H   H290      1.0  0.46230  0.38190  0.67280  1.0000 0.1206988458
H   H291      1.0  0.56710  0.61980  0.79720  1.0000 0.1268862498
H   H292      1.0  0.35450  0.50380  0.90680  1.0000 0.1206988458
H   H293      1.0  0.67550  0.51100  0.69530  1.0000 0.1122223315
H   H294      1.0  0.75620  0.52860  0.70050  1.0000 0.1268862498
H   H295      1.0  0.46100  0.63920  0.83440  1.0000 0.3752405873
H   H296      1.0  0.51910  0.45610  0.78840  1.0000 0.1122223315
H   H297      1.0  0.30970  0.67290  0.90340  1.0000 0.0887273935
H   H298      1.0  0.80010  0.96760  0.44650  1.0000 0.4123000136
H   H299      1.0  0.54340  0.80070  0.65140  1.0000 0.2767513288
H   H300      1.0  0.54780  0.75700  0.65050  1.0000 0.2767513288
H   H301      1.0  0.17060  0.72330  0.03450  1.0000 0.1268862498
H   H302      1.0  0.33910  0.62230  0.54780  1.0000 0.1206988458
H   H303      1.0  0.34540  0.83650  0.14940  1.0000 0.2678261191
H   H304      1.0  0.39950  0.86780  0.20560  1.0000 0.2678261191
H   H305      1.0  0.46360  0.05040  0.32520  1.0000 0.1206988458
H   H306      1.0  0.37510  0.69530  0.64580  1.0000 0.1122223315
H   H307      1.0  0.30640  0.96050  0.16970  1.0000 0.1206988458
H   H308      1.0  0.29860  0.88930  0.06450  1.0000 0.1206988458
H   H309      1.0  0.21830  0.80000  0.96830  1.0000 0.1206988458
H   H310      1.0  0.38960  0.69610  0.72410  1.0000 0.1206988458
H   H311      1.0  0.42790  0.90250  0.29400  1.0000 0.1122223315
H   H312      1.0  0.62090  0.04260  0.37610  1.0000 0.1206988458
H   H313      1.0  0.52340  0.84590  0.51400  1.0000 0.1206988458
H   H314      1.0  0.55240  0.73880  0.57110  1.0000 0.1122223315
H   H315      1.0  0.25290  0.81100  0.13030  1.0000 0.1206988458
H   H316      1.0  0.54620  0.04040  0.31890  1.0000 0.1122223315
H   H317      1.0  0.38190  0.67280  0.46230  1.0000 0.1206988458
H   H318      1.0  0.61980  0.79720  0.56710  1.0000 0.1268862498
H   H319      1.0  0.50380  0.90680  0.35450  1.0000 0.1206988458
H   H320      1.0  0.51100  0.69530  0.67550  1.0000 0.1122223315
H   H321      1.0  0.52860  0.70050  0.75620  1.0000 0.1268862498
H   H322      1.0  0.63920  0.83440  0.46100  1.0000 0.3752405873
H   H323      1.0  0.45610  0.78840  0.51910  1.0000 0.1122223315
H   H324      1.0  0.67290  0.90340  0.30970  1.0000 0.0887273935
C   C1        1.0  0.20784  0.97554  0.30279  1.0000 0.6315155524
C   C2        1.0  0.25651  0.69769  0.54047  1.0000 -0.0975159705
C   C3        1.0  0.14735  0.86817  0.04810  1.0000 -0.1797335312
C   C4        1.0  0.51320  0.88453  0.75076  1.0000 0.034985528
C   C5        1.0  0.47602  0.07021  0.87211  1.0000 -0.0409086503
C   C6        1.0  0.51567  0.93139  0.78549  1.0000 -0.1886954525
C   C7        1.0  0.21930  0.95319  0.04689  1.0000 -0.0409086503
C   C8        1.0  0.22608  0.96999  0.09915  1.0000 0.1800250951
C   C9        1.0  0.19566  0.90592  0.16781  1.0000 -0.1674863777
C   C10       1.0  0.46242  0.83789  0.69317  1.0000 -0.1797335312
C   C11       1.0  0.41671  0.88279  0.70337  1.0000 0.1800250951
C   C12       1.0  0.47119  0.97924  0.80018  1.0000 0.0783061429
C   C13       1.0  0.35533  0.77340  0.55866  1.0000 -0.1674863777
C   C14       1.0  0.30199  0.72558  0.50124  1.0000 -0.0975159705
C   C15       1.0  0.19742  0.91513  0.21519  1.0000 -0.0975159705
C   C16       1.0  0.56190  0.88460  0.77765  1.0000 0.2495457313
C   C17       1.0  0.43157  0.96724  0.81112  1.0000 -0.1797335312
C   C18       1.0  0.25257  0.68915  0.49262  1.0000 -0.0409086503
C   C19       1.0  0.10009  0.78996  0.94806  1.0000 0.2603884072
C   C20       1.0  0.20106  0.96205  0.24929  1.0000 -0.0497247595
C   C21       1.0  0.51447  0.08180  0.86032  1.0000 -0.090152257
C   C22       1.0  0.25691  0.99659  0.04523  1.0000 0.0735876324
C   C23       1.0  0.46865  0.93091  0.76264  1.0000 -0.0409086503
C   C24       1.0  0.19446  0.94078  0.15212  1.0000 0.0783061429
C   C25       1.0  0.32422  0.02952  0.02596  1.0000 -0.090152257
C   C26       1.0  0.18899  0.92661  0.09901  1.0000 -0.0206528719
C   C27       1.0  0.26064  0.04631  0.05952  1.0000 -0.1674863777
C   C28       1.0  0.30906  0.74597  0.59744  1.0000 -0.1797335312
C   C29       1.0  0.32771  0.07814  0.04003  1.0000 -0.0497247595
C   C30       1.0  0.51258  0.03705  0.82557  1.0000 -0.162072201
C   C31       1.0  0.17724  0.89374  0.99720  1.0000 -0.1797335312
C   C32       1.0  0.29527  0.08641  0.05715  1.0000 -0.0748003926
C   C33       1.0  0.43403  0.01253  0.84713  1.0000 -0.090152257
C   C34       1.0  0.47694  0.11727  0.91053  1.0000 0.6242818466
C   C35       1.0  0.36497  0.12147  0.03774  1.0000 0.6315155524
C   C36       1.0  0.19629  0.98678  0.18574  1.0000 -0.1510033688
C   C37       1.0  0.19942  0.99730  0.23365  1.0000 -0.090152257
C   C38       1.0  0.35866  0.78405  0.60660  1.0000 0.0735876324
C   C39       1.0  0.41425  0.83571  0.66870  1.0000 -0.0409086503
C   C40       1.0  0.14169  0.85160  0.99758  1.0000 0.0206571493
C   C41       1.0  0.19464  0.63765  0.43129  1.0000 0.6315155524
C   C42       1.0  0.28974  0.98905  0.02861  1.0000 -0.1674863777
C   C43       1.0  0.41740  0.19157  0.84903  1.0000 0.4411068596
C   C44       1.0  0.30279  0.20784  0.97554  1.0000 0.6315155524
C   C45       1.0  0.54047  0.25651  0.69769  1.0000 -0.0975159705
C   C46       1.0  0.04810  0.14735  0.86817  1.0000 -0.1797335312
C   C47       1.0  0.75076  0.51320  0.88453  1.0000 0.035755024
C   C48       1.0  0.87211  0.47602  0.07021  1.0000 -0.0409086503
C   C49       1.0  0.78549  0.51567  0.93139  1.0000 -0.1886954525
C   C50       1.0  0.04689  0.21930  0.95319  1.0000 -0.0409086503
C   C51       1.0  0.09915  0.22608  0.96999  1.0000 0.1800250951
C   C52       1.0  0.16781  0.19566  0.90592  1.0000 -0.1674863777
C   C53       1.0  0.69317  0.46242  0.83789  1.0000 -0.1797335312
C   C54       1.0  0.70337  0.41671  0.88279  1.0000 0.1800250951
C   C55       1.0  0.80018  0.47119  0.97924  1.0000 0.0783061429
C   C56       1.0  0.55866  0.35533  0.77340  1.0000 -0.1674863777
C   C57       1.0  0.50124  0.30199  0.72558  1.0000 -0.0975159705
C   C58       1.0  0.21519  0.19742  0.91513  1.0000 -0.0975159705
C   C59       1.0  0.77765  0.56190  0.88460  1.0000 0.2495457313
C   C60       1.0  0.81112  0.43157  0.96724  1.0000 -0.1797335312
C   C61       1.0  0.49262  0.25257  0.68915  1.0000 -0.0409086503
C   C62       1.0  0.94806  0.10009  0.78996  1.0000 0.2603884072
C   C63       1.0  0.24929  0.20106  0.96205  1.0000 -0.0497247595
C   C64       1.0  0.86032  0.51447  0.08180  1.0000 -0.090152257
C   C65       1.0  0.04523  0.25691  0.99659  1.0000 0.0735876324
C   C66       1.0  0.76264  0.46865  0.93091  1.0000 -0.0409086503
C   C67       1.0  0.15212  0.19446  0.94078  1.0000 0.0783061429
C   C68       1.0  0.02596  0.32422  0.02952  1.0000 -0.090152257
C   C69       1.0  0.09901  0.18899  0.92661  1.0000 -0.0206528719
C   C70       1.0  0.05952  0.26064  0.04631  1.0000 -0.1674863777
C   C71       1.0  0.59744  0.30906  0.74597  1.0000 -0.1797335312
C   C72       1.0  0.04003  0.32771  0.07814  1.0000 -0.0497247595
C   C73       1.0  0.82557  0.51258  0.03705  1.0000 -0.162072201
C   C74       1.0  0.99720  0.17724  0.89374  1.0000 -0.1797335312
C   C75       1.0  0.05715  0.29527  0.08641  1.0000 -0.0748003926
C   C76       1.0  0.84713  0.43403  0.01253  1.0000 -0.090152257
C   C77       1.0  0.91053  0.47694  0.11727  1.0000 0.6242818466
C   C78       1.0  0.03774  0.36497  0.12147  1.0000 0.6315155524
C   C79       1.0  0.18574  0.19629  0.98678  1.0000 -0.1510033688
C   C80       1.0  0.23365  0.19942  0.99730  1.0000 -0.090152257
C   C81       1.0  0.60660  0.35866  0.78405  1.0000 0.0735876324
C   C82       1.0  0.66870  0.41425  0.83571  1.0000 -0.0409086503
C   C83       1.0  0.99758  0.14169  0.85160  1.0000 0.0206571493
C   C84       1.0  0.43129  0.19464  0.63765  1.0000 0.6315155524
C   C85       1.0  0.02861  0.28974  0.98905  1.0000 -0.1674863777
C   C86       1.0  0.84903  0.41740  0.19157  1.0000 0.4463335118
C   C87       1.0  0.97554  0.30279  0.20784  1.0000 0.6315155524
C   C88       1.0  0.69769  0.54047  0.25651  1.0000 -0.0975159705
C   C89       1.0  0.86817  0.04810  0.14735  1.0000 -0.1797335312
C   C90       1.0  0.88453  0.75076  0.51320  1.0000 0.034985528
C   C91       1.0  0.07021  0.87211  0.47602  1.0000 -0.0409086503
C   C92       1.0  0.93139  0.78549  0.51567  1.0000 -0.1886954525
C   C93       1.0  0.95319  0.04689  0.21930  1.0000 -0.0409086503
C   C94       1.0  0.96999  0.09915  0.22608  1.0000 0.1800250951
C   C95       1.0  0.90592  0.16781  0.19566  1.0000 -0.1674863777
C   C96       1.0  0.83789  0.69317  0.46242  1.0000 -0.1797335312
C   C97       1.0  0.88279  0.70337  0.41671  1.0000 0.1800250951
C   C98       1.0  0.97924  0.80018  0.47119  1.0000 0.0783061429
C   C99       1.0  0.77340  0.55866  0.35533  1.0000 -0.1674863777
C   C100      1.0  0.72558  0.50124  0.30199  1.0000 -0.0975159705
C   C101      1.0  0.91513  0.21519  0.19742  1.0000 -0.0975159705
C   C102      1.0  0.88460  0.77765  0.56190  1.0000 0.2495457313
C   C103      1.0  0.96724  0.81112  0.43157  1.0000 -0.1797335312
C   C104      1.0  0.68915  0.49262  0.25257  1.0000 -0.0409086503
C   C105      1.0  0.78996  0.94806  0.10009  1.0000 0.2603884072
C   C106      1.0  0.96205  0.24929  0.20106  1.0000 -0.0497247595
C   C107      1.0  0.08180  0.86032  0.51447  1.0000 -0.090152257
C   C108      1.0  0.99659  0.04523  0.25691  1.0000 0.0735876324
C   C109      1.0  0.93091  0.76264  0.46865  1.0000 -0.0409086503
C   C110      1.0  0.94078  0.15212  0.19446  1.0000 0.0783061429
C   C111      1.0  0.02952  0.02596  0.32422  1.0000 -0.090152257
C   C112      1.0  0.92661  0.09901  0.18899  1.0000 -0.0206528719
C   C113      1.0  0.04631  0.05952  0.26064  1.0000 -0.1674863777
C   C114      1.0  0.74597  0.59744  0.30906  1.0000 -0.1797335312
C   C115      1.0  0.07814  0.04003  0.32771  1.0000 -0.0497247595
C   C116      1.0  0.03705  0.82557  0.51258  1.0000 -0.162072201
C   C117      1.0  0.89374  0.99720  0.17724  1.0000 -0.1797335312
C   C118      1.0  0.08641  0.05715  0.29527  1.0000 -0.0748003926
C   C119      1.0  0.01253  0.84713  0.43403  1.0000 -0.090152257
C   C120      1.0  0.11727  0.91053  0.47694  1.0000 0.6242818466
C   C121      1.0  0.12147  0.03774  0.36497  1.0000 0.6315155524
C   C122      1.0  0.98678  0.18574  0.19629  1.0000 -0.1510033688
C   C123      1.0  0.99730  0.23365  0.19942  1.0000 -0.090152257
C   C124      1.0  0.78405  0.60660  0.35866  1.0000 0.0735876324
C   C125      1.0  0.83571  0.66870  0.41425  1.0000 -0.0409086503
C   C126      1.0  0.85160  0.99758  0.14169  1.0000 0.0206571493
C   C127      1.0  0.63765  0.43129  0.19464  1.0000 0.6315155524
C   C128      1.0  0.98905  0.02861  0.28974  1.0000 -0.1674863777
C   C129      1.0  0.19157  0.84903  0.41740  1.0000 0.4411068596
C   C130      1.0  0.29216  0.19721  0.52446  1.0000 0.6315155524
C   C131      1.0  0.24349  0.95953  0.80231  1.0000 -0.0975159705
C   C132      1.0  0.35265  0.45190  0.63183  1.0000 -0.1797335312
C   C133      1.0  0.98680  0.74924  0.61547  1.0000 0.035755024
C   C134      1.0  0.02398  0.62789  0.42979  1.0000 -0.0409086503
C   C135      1.0  0.98433  0.71451  0.56861  1.0000 -0.1886954525
C   C136      1.0  0.28070  0.45311  0.54681  1.0000 -0.0409086503
C   C137      1.0  0.27392  0.40085  0.53001  1.0000 0.1800250951
C   C138      1.0  0.30434  0.33219  0.59408  1.0000 -0.1674863777
C   C139      1.0  0.03758  0.80683  0.66211  1.0000 -0.1797335312
C   C140      1.0  0.08329  0.79663  0.61721  1.0000 0.1800250951
C   C141      1.0  0.02881  0.69982  0.52076  1.0000 0.0783061429
C   C142      1.0  0.14467  0.94134  0.72660  1.0000 -0.1674863777
C   C143      1.0  0.19801  0.99876  0.77442  1.0000 -0.0975159705
C   C144      1.0  0.30258  0.28481  0.58487  1.0000 -0.0975159705
C   C145      1.0  0.93810  0.72235  0.61540  1.0000 0.2495457313
C   C146      1.0  0.06843  0.68888  0.53276  1.0000 -0.1797335312
C   C147      1.0  0.24743  0.00738  0.81085  1.0000 -0.0409086503
C   C148      1.0  0.39991  0.55194  0.71004  1.0000 0.2603884072
C   C149      1.0  0.29894  0.25071  0.53795  1.0000 -0.0497247595
C   C150      1.0  0.98553  0.63968  0.41820  1.0000 -0.090152257
C   C151      1.0  0.24309  0.45477  0.50341  1.0000 0.0735876324
C   C152      1.0  0.03135  0.73736  0.56909  1.0000 -0.0409086503
C   C153      1.0  0.30554  0.34788  0.55922  1.0000 0.0783061429
C   C154      1.0  0.17578  0.47404  0.47048  1.0000 -0.090152257
C   C155      1.0  0.31101  0.40099  0.57339  1.0000 -0.0206528719
C   C156      1.0  0.23936  0.44048  0.45369  1.0000 -0.1674863777
C   C157      1.0  0.19094  0.90256  0.75403  1.0000 -0.1797335312
C   C158      1.0  0.17229  0.45997  0.42186  1.0000 -0.0497247595
C   C159      1.0  0.98742  0.67443  0.46295  1.0000 -0.162072201
C   C160      1.0  0.32276  0.50280  0.60626  1.0000 -0.1797335312
C   C161      1.0  0.20473  0.44285  0.41359  1.0000 -0.0748003926
C   C162      1.0  0.06597  0.65287  0.48747  1.0000 -0.090152257
C   C163      1.0  0.02306  0.58947  0.38273  1.0000 0.6242818466
C   C164      1.0  0.13503  0.46226  0.37853  1.0000 0.6315155524
C   C165      1.0  0.30371  0.31426  0.51322  1.0000 -0.1510033688
C   C166      1.0  0.30058  0.26635  0.50270  1.0000 -0.090152257
C   C167      1.0  0.14134  0.89340  0.71595  1.0000 0.0735876324
C   C168      1.0  0.08575  0.83130  0.66429  1.0000 -0.0409086503
C   C169      1.0  0.35831  0.50242  0.64840  1.0000 0.0206571493
C   C170      1.0  0.30536  0.06871  0.86235  1.0000 0.6315155524
C   C171      1.0  0.21026  0.47139  0.51095  1.0000 -0.1674863777
C   C172      1.0  0.08260  0.65097  0.30843  1.0000 0.4411068596
C   C173      1.0  0.19721  0.52446  0.29216  1.0000 0.6315155524
C   C174      1.0  0.95953  0.80231  0.24349  1.0000 -0.0975159705
C   C175      1.0  0.45190  0.63183  0.35265  1.0000 -0.1797335312
C   C176      1.0  0.74924  0.61547  0.98680  1.0000 0.034985528
C   C177      1.0  0.62789  0.42979  0.02398  1.0000 -0.0409086503
C   C178      1.0  0.71451  0.56861  0.98433  1.0000 -0.1886954525
C   C179      1.0  0.45311  0.54681  0.28070  1.0000 -0.0409086503
C   C180      1.0  0.40085  0.53001  0.27392  1.0000 0.1800250951
C   C181      1.0  0.33219  0.59408  0.30434  1.0000 -0.1674863777
C   C182      1.0  0.80683  0.66211  0.03758  1.0000 -0.1797335312
C   C183      1.0  0.79663  0.61721  0.08329  1.0000 0.1800250951
C   C184      1.0  0.69982  0.52076  0.02881  1.0000 0.0783061429
C   C185      1.0  0.94134  0.72660  0.14467  1.0000 -0.1674863777
C   C186      1.0  0.99876  0.77442  0.19801  1.0000 -0.0975159705
C   C187      1.0  0.28481  0.58487  0.30258  1.0000 -0.0975159705
C   C188      1.0  0.72235  0.61540  0.93810  1.0000 0.2495457313
C   C189      1.0  0.68888  0.53276  0.06843  1.0000 -0.1797335312
C   C190      1.0  0.00738  0.81085  0.24743  1.0000 -0.0409086503
C   C191      1.0  0.55194  0.71004  0.39991  1.0000 0.2603884072
C   C192      1.0  0.25071  0.53795  0.29894  1.0000 -0.0497247595
C   C193      1.0  0.63968  0.41820  0.98553  1.0000 -0.090152257
C   C194      1.0  0.45477  0.50341  0.24309  1.0000 0.0735876324
C   C195      1.0  0.73736  0.56909  0.03135  1.0000 -0.0409086503
C   C196      1.0  0.34788  0.55922  0.30554  1.0000 0.0783061429
C   C197      1.0  0.47404  0.47048  0.17578  1.0000 -0.090152257
C   C198      1.0  0.40099  0.57339  0.31101  1.0000 -0.0206528719
C   C199      1.0  0.44048  0.45369  0.23936  1.0000 -0.1674863777
C   C200      1.0  0.90256  0.75403  0.19094  1.0000 -0.1797335312
C   C201      1.0  0.45997  0.42186  0.17229  1.0000 -0.0497247595
C   C202      1.0  0.67443  0.46295  0.98742  1.0000 -0.162072201
C   C203      1.0  0.50280  0.60626  0.32276  1.0000 -0.1797335312
C   C204      1.0  0.44285  0.41359  0.20473  1.0000 -0.0748003926
C   C205      1.0  0.65287  0.48747  0.06597  1.0000 -0.090152257
C   C206      1.0  0.58947  0.38273  0.02306  1.0000 0.6242818466
C   C207      1.0  0.46226  0.37853  0.13503  1.0000 0.6315155524
C   C208      1.0  0.31426  0.51322  0.30371  1.0000 -0.1510033688
C   C209      1.0  0.26635  0.50270  0.30058  1.0000 -0.090152257
C   C210      1.0  0.89340  0.71595  0.14134  1.0000 0.0735876324
C   C211      1.0  0.83130  0.66429  0.08575  1.0000 -0.0409086503
C   C212      1.0  0.50242  0.64840  0.35831  1.0000 0.0206571493
C   C213      1.0  0.06871  0.86235  0.30536  1.0000 0.6315155524
C   C214      1.0  0.47139  0.51095  0.21026  1.0000 -0.1674863777
C   C215      1.0  0.65097  0.30843  0.08260  1.0000 0.4463335118
C   C216      1.0  0.52446  0.29216  0.19721  1.0000 0.6315155524
C   C217      1.0  0.80231  0.24349  0.95953  1.0000 -0.0975159705
C   C218      1.0  0.63183  0.35265  0.45190  1.0000 -0.1797335312
C   C219      1.0  0.61547  0.98680  0.74924  1.0000 0.034985528
C   C220      1.0  0.42979  0.02398  0.62789  1.0000 -0.0409086503
C   C221      1.0  0.56861  0.98433  0.71451  1.0000 -0.1886954525
C   C222      1.0  0.54681  0.28070  0.45311  1.0000 -0.0409086503
C   C223      1.0  0.53001  0.27392  0.40085  1.0000 0.1800250951
C   C224      1.0  0.59408  0.30434  0.33219  1.0000 -0.1674863777
C   C225      1.0  0.66211  0.03758  0.80683  1.0000 -0.1674863777
C   C226      1.0  0.61721  0.08329  0.79663  1.0000 0.1800250951
C   C227      1.0  0.52076  0.02881  0.69982  1.0000 0.0783061429
C   C228      1.0  0.72660  0.14467  0.94134  1.0000 -0.1674863777
C   C229      1.0  0.77442  0.19801  0.99876  1.0000 -0.0975159705
C   C230      1.0  0.58487  0.30258  0.28481  1.0000 -0.0975159705
C   C231      1.0  0.61540  0.93810  0.72235  1.0000 0.2495457313
C   C232      1.0  0.53276  0.06843  0.68888  1.0000 -0.1797335312
C   C233      1.0  0.81085  0.24743  0.00738  1.0000 -0.0409086503
C   C234      1.0  0.71004  0.39991  0.55194  1.0000 0.2603884072
C   C235      1.0  0.53795  0.29894  0.25071  1.0000 -0.0497247595
C   C236      1.0  0.41820  0.98553  0.63968  1.0000 -0.090152257
C   C237      1.0  0.50341  0.24309  0.45477  1.0000 0.0735876324
C   C238      1.0  0.56909  0.03135  0.73736  1.0000 -0.0409086503
C   C239      1.0  0.55922  0.30554  0.34788  1.0000 0.0783061429
C   C240      1.0  0.47048  0.17578  0.47404  1.0000 -0.090152257
C   C241      1.0  0.57339  0.31101  0.40099  1.0000 -0.0206528719
C   C242      1.0  0.45369  0.23936  0.44048  1.0000 -0.1674863777
C   C243      1.0  0.75403  0.19094  0.90256  1.0000 -0.1797335312
C   C244      1.0  0.42186  0.17229  0.45997  1.0000 -0.0497247595
C   C245      1.0  0.46295  0.98742  0.67443  1.0000 -0.162072201
C   C246      1.0  0.60626  0.32276  0.50280  1.0000 -0.1797335312
C   C247      1.0  0.41359  0.20473  0.44285  1.0000 -0.0748003926
C   C248      1.0  0.48747  0.06597  0.65287  1.0000 -0.090152257
C   C249      1.0  0.38273  0.02306  0.58947  1.0000 0.6242818466
C   C250      1.0  0.37853  0.13503  0.46226  1.0000 0.6315155524
C   C251      1.0  0.51322  0.30371  0.31426  1.0000 -0.1510033688
C   C252      1.0  0.50270  0.30058  0.26635  1.0000 -0.090152257
C   C253      1.0  0.71595  0.14134  0.89340  1.0000 0.0735876324
C   C254      1.0  0.66429  0.08575  0.83130  1.0000 -0.0409086503
C   C255      1.0  0.64840  0.35831  0.50242  1.0000 0.0206571493
C   C256      1.0  0.86235  0.30536  0.06871  1.0000 0.6315155524
C   C257      1.0  0.51095  0.21026  0.47139  1.0000 -0.1674863777
C   C258      1.0  0.30843  0.08260  0.65097  1.0000 0.4411068596
C   C259      1.0  0.79216  0.02446  0.69721  1.0000 0.6315155524
C   C260      1.0  0.74349  0.30231  0.45953  1.0000 -0.0975159705
C   C261      1.0  0.85265  0.13183  0.95190  1.0000 -0.1797335312
C   C262      1.0  0.48680  0.11547  0.24924  1.0000 0.034985528
C   C263      1.0  0.52398  0.92979  0.12789  1.0000 -0.0409086503
C   C264      1.0  0.48433  0.06861  0.21451  1.0000 -0.1886954525
C   C265      1.0  0.78070  0.04681  0.95311  1.0000 -0.0409086503
C   C266      1.0  0.77392  0.03001  0.90085  1.0000 0.1800250951
C   C267      1.0  0.80434  0.09408  0.83219  1.0000 -0.1674863777
C   C268      1.0  0.53758  0.16211  0.30683  1.0000 -0.1797335312
C   C269      1.0  0.58329  0.11721  0.29663  1.0000 0.1800250951
C   C270      1.0  0.52881  0.02076  0.19982  1.0000 0.0783061429
C   C271      1.0  0.64467  0.22660  0.44134  1.0000 -0.1674863777
C   C272      1.0  0.69801  0.27442  0.49876  1.0000 -0.0975159705
C   C273      1.0  0.80258  0.08487  0.78481  1.0000 -0.0975159705
C   C274      1.0  0.43810  0.11540  0.22235  1.0000 0.2495457313
C   C275      1.0  0.56843  0.03276  0.18888  1.0000 -0.1797335312
C   C276      1.0  0.74743  0.31085  0.50738  1.0000 -0.0409086503
C   C277      1.0  0.89991  0.21004  0.05194  1.0000 0.2603884072
C   C278      1.0  0.79894  0.03795  0.75071  1.0000 -0.0497247595
C   C279      1.0  0.48553  0.91820  0.13968  1.0000 -0.090152257
C   C280      1.0  0.74309  0.00341  0.95477  1.0000 0.0735876324
C   C281      1.0  0.53135  0.06909  0.23736  1.0000 -0.0409086503
C   C282      1.0  0.80554  0.05922  0.84788  1.0000 0.0783061429
C   C283      1.0  0.67578  0.97048  0.97404  1.0000 -0.090152257
C   C284      1.0  0.81101  0.07339  0.90099  1.0000 -0.0206528719
C   C285      1.0  0.73936  0.95369  0.94048  1.0000 -0.1674863777
C   C286      1.0  0.69094  0.25403  0.40256  1.0000 -0.1797335312
C   C287      1.0  0.67229  0.92186  0.95997  1.0000 -0.0497247595
C   C288      1.0  0.48742  0.96295  0.17443  1.0000 -0.162072201
C   C289      1.0  0.82276  0.10626  0.00280  1.0000 -0.1797335312
C   C290      1.0  0.70473  0.91359  0.94285  1.0000 -0.0748003926
C   C291      1.0  0.56597  0.98747  0.15287  1.0000 -0.090152257
C   C292      1.0  0.52306  0.88273  0.08947  1.0000 0.6242818466
C   C293      1.0  0.63503  0.87853  0.96226  1.0000 0.6315155524
C   C294      1.0  0.80371  0.01322  0.81426  1.0000 -0.1510033688
C   C295      1.0  0.80058  0.00270  0.76635  1.0000 -0.090152257
C   C296      1.0  0.64134  0.21595  0.39340  1.0000 0.0735876324
C   C297      1.0  0.58575  0.16429  0.33130  1.0000 -0.0409086503
C   C298      1.0  0.85831  0.14840  0.00242  1.0000 0.0206571493
C   C299      1.0  0.80536  0.36235  0.56871  1.0000 0.6315155524
C   C300      1.0  0.71026  0.01095  0.97139  1.0000 -0.1674863777
C   C301      1.0  0.58260  0.80843  0.15097  1.0000 0.4463335118
C   C302      1.0  0.69721  0.79216  0.02446  1.0000 0.6315155524
C   C303      1.0  0.45953  0.74349  0.30231  1.0000 -0.0975159705
C   C304      1.0  0.95190  0.85265  0.13183  1.0000 -0.1797335312
C   C305      1.0  0.24924  0.48680  0.11547  1.0000 0.035755024
C   C306      1.0  0.12789  0.52398  0.92979  1.0000 -0.0409086503
C   C307      1.0  0.21451  0.48433  0.06861  1.0000 -0.1886954525
C   C308      1.0  0.95311  0.78070  0.04681  1.0000 -0.0409086503
C   C309      1.0  0.90085  0.77392  0.03001  1.0000 0.1800250951
C   C310      1.0  0.83219  0.80434  0.09408  1.0000 -0.1674863777
C   C311      1.0  0.30683  0.53758  0.16211  1.0000 -0.1797335312
C   C312      1.0  0.29663  0.58329  0.11721  1.0000 0.1800250951
C   C313      1.0  0.19982  0.52881  0.02076  1.0000 0.0783061429
C   C314      1.0  0.44134  0.64467  0.22660  1.0000 -0.1674863777
C   C315      1.0  0.49876  0.69801  0.27442  1.0000 -0.0975159705
C   C316      1.0  0.78481  0.80258  0.08487  1.0000 -0.0975159705
C   C317      1.0  0.22235  0.43810  0.11540  1.0000 0.2495457313
C   C318      1.0  0.18888  0.56843  0.03276  1.0000 -0.1797335312
C   C319      1.0  0.50738  0.74743  0.31085  1.0000 -0.0409086503
C   C320      1.0  0.05194  0.89991  0.21004  1.0000 0.2603884072
C   C321      1.0  0.75071  0.79894  0.03795  1.0000 -0.0497247595
C   C322      1.0  0.13968  0.48553  0.91820  1.0000 -0.090152257
C   C323      1.0  0.95477  0.74309  0.00341  1.0000 0.0735876324
C   C324      1.0  0.23736  0.53135  0.06909  1.0000 -0.0409086503
C   C325      1.0  0.84788  0.80554  0.05922  1.0000 0.0783061429
C   C326      1.0  0.97404  0.67578  0.97048  1.0000 -0.090152257
C   C327      1.0  0.90099  0.81101  0.07339  1.0000 -0.0206528719
C   C328      1.0  0.94048  0.73936  0.95369  1.0000 -0.1674863777
C   C329      1.0  0.40256  0.69094  0.25403  1.0000 -0.1797335312
C   C330      1.0  0.95997  0.67229  0.92186  1.0000 -0.0497247595
C   C331      1.0  0.17443  0.48742  0.96295  1.0000 -0.162072201
C   C332      1.0  0.00280  0.82276  0.10626  1.0000 -0.1797335312
C   C333      1.0  0.94285  0.70473  0.91359  1.0000 -0.0748003926
C   C334      1.0  0.15287  0.56597  0.98747  1.0000 -0.090152257
C   C335      1.0  0.08947  0.52306  0.88273  1.0000 0.6242818466
C   C336      1.0  0.96226  0.63503  0.87853  1.0000 0.6315155524
C   C337      1.0  0.81426  0.80371  0.01322  1.0000 -0.1510033688
C   C338      1.0  0.76635  0.80058  0.00270  1.0000 -0.090152257
C   C339      1.0  0.39340  0.64134  0.21595  1.0000 0.0735876324
C   C340      1.0  0.33130  0.58575  0.16429  1.0000 -0.0409086503
C   C341      1.0  0.00242  0.85831  0.14840  1.0000 0.0206571493
C   C342      1.0  0.56871  0.80536  0.36235  1.0000 0.6315155524
C   C343      1.0  0.97139  0.71026  0.01095  1.0000 -0.1674863777
C   C344      1.0  0.15097  0.58260  0.80843  1.0000 0.4411068596
C   C345      1.0  0.02446  0.69721  0.79216  1.0000 0.6315155524
C   C346      1.0  0.30231  0.45953  0.74349  1.0000 -0.0975159705
C   C347      1.0  0.13183  0.95190  0.85265  1.0000 -0.1797335312
C   C348      1.0  0.11547  0.24924  0.48680  1.0000 0.035755024
C   C349      1.0  0.92979  0.12789  0.52398  1.0000 -0.0409086503
C   C350      1.0  0.06861  0.21451  0.48433  1.0000 -0.1886954525
C   C351      1.0  0.04681  0.95311  0.78070  1.0000 -0.0409086503
C   C352      1.0  0.03001  0.90085  0.77392  1.0000 0.1800250951
C   C353      1.0  0.09408  0.83219  0.80434  1.0000 -0.1674863777
C   C354      1.0  0.16211  0.30683  0.53758  1.0000 -0.1797335312
C   C355      1.0  0.11721  0.29663  0.58329  1.0000 0.1800250951
C   C356      1.0  0.02076  0.19982  0.52881  1.0000 0.0783061429
C   C357      1.0  0.22660  0.44134  0.64467  1.0000 -0.1674863777
C   C358      1.0  0.27442  0.49876  0.69801  1.0000 -0.0975159705
C   C359      1.0  0.08487  0.78481  0.80258  1.0000 -0.0975159705
C   C360      1.0  0.11540  0.22235  0.43810  1.0000 0.2495457313
C   C361      1.0  0.03276  0.18888  0.56843  1.0000 -0.1797335312
C   C362      1.0  0.31085  0.50738  0.74743  1.0000 -0.0409086503
C   C363      1.0  0.21004  0.05194  0.89991  1.0000 0.2603884072
C   C364      1.0  0.03795  0.75071  0.79894  1.0000 -0.0497247595
C   C365      1.0  0.91820  0.13968  0.48553  1.0000 -0.090152257
C   C366      1.0  0.00341  0.95477  0.74309  1.0000 0.0735876324
C   C367      1.0  0.06909  0.23736  0.53135  1.0000 -0.0409086503
C   C368      1.0  0.05922  0.84788  0.80554  1.0000 0.0783061429
C   C369      1.0  0.97048  0.97404  0.67578  1.0000 -0.090152257
C   C370      1.0  0.07339  0.90099  0.81101  1.0000 -0.0206528719
C   C371      1.0  0.95369  0.94048  0.73936  1.0000 -0.1674863777
C   C372      1.0  0.25403  0.40256  0.69094  1.0000 -0.1797335312
C   C373      1.0  0.92186  0.95997  0.67229  1.0000 -0.0497247595
C   C374      1.0  0.96295  0.17443  0.48742  1.0000 -0.162072201
C   C375      1.0  0.10626  0.00280  0.82276  1.0000 -0.1797335312
C   C376      1.0  0.91359  0.94285  0.70473  1.0000 -0.0748003926
C   C377      1.0  0.98747  0.15287  0.56597  1.0000 -0.090152257
C   C378      1.0  0.88273  0.08947  0.52306  1.0000 0.6242818466
C   C379      1.0  0.87853  0.96226  0.63503  1.0000 0.6315155524
C   C380      1.0  0.01322  0.81426  0.80371  1.0000 -0.1510033688
C   C381      1.0  0.00270  0.76635  0.80058  1.0000 -0.090152257
C   C382      1.0  0.21595  0.39340  0.64134  1.0000 0.0735876324
C   C383      1.0  0.16429  0.33130  0.58575  1.0000 -0.0409086503
C   C384      1.0  0.14840  0.00242  0.85831  1.0000 0.0206571493
C   C385      1.0  0.36235  0.56871  0.80536  1.0000 0.6315155524
C   C386      1.0  0.01095  0.97139  0.71026  1.0000 -0.1674863777
C   C387      1.0  0.80843  0.15097  0.58260  1.0000 0.4411068596
C   C388      1.0  0.70784  0.80279  0.47554  1.0000 0.6315155524
C   C389      1.0  0.75651  0.04047  0.19769  1.0000 -0.0975159705
C   C390      1.0  0.64735  0.54810  0.36817  1.0000 -0.1797335312
C   C391      1.0  0.01320  0.25076  0.38453  1.0000 0.034985528
C   C392      1.0  0.97602  0.37211  0.57021  1.0000 -0.0409086503
C   C393      1.0  0.01567  0.28549  0.43139  1.0000 -0.1886954525
C   C394      1.0  0.71930  0.54689  0.45319  1.0000 -0.0409086503
C   C395      1.0  0.72608  0.59915  0.46999  1.0000 0.1800250951
C   C396      1.0  0.69566  0.66781  0.40592  1.0000 -0.1674863777
C   C397      1.0  0.96242  0.19317  0.33789  1.0000 -0.1797335312
C   C398      1.0  0.91671  0.20337  0.38279  1.0000 0.1800250951
C   C399      1.0  0.97119  0.30018  0.47924  1.0000 0.0783061429
C   C400      1.0  0.85533  0.05866  0.27340  1.0000 -0.1674863777
C   C401      1.0  0.80199  0.00124  0.22558  1.0000 -0.0975159705
C   C402      1.0  0.69742  0.71519  0.41513  1.0000 -0.0975159705
C   C403      1.0  0.06190  0.27765  0.38460  1.0000 0.2495457313
C   C404      1.0  0.93157  0.31112  0.46724  1.0000 -0.1797335312
C   C405      1.0  0.75257  0.99262  0.18915  1.0000 -0.0409086503
C   C406      1.0  0.60009  0.44806  0.28996  1.0000 0.2603884072
C   C407      1.0  0.70106  0.74929  0.46205  1.0000 -0.0497247595
C   C408      1.0  0.01447  0.36032  0.58180  1.0000 -0.090152257
C   C409      1.0  0.75691  0.54523  0.49659  1.0000 0.0735876324
C   C410      1.0  0.96865  0.26264  0.43091  1.0000 -0.0409086503
C   C411      1.0  0.69446  0.65212  0.44078  1.0000 0.0783061429
C   C412      1.0  0.82422  0.52596  0.52952  1.0000 -0.090152257
C   C413      1.0  0.68899  0.59901  0.42661  1.0000 -0.0206528719
C   C414      1.0  0.76064  0.55952  0.54631  1.0000 -0.1674863777
C   C415      1.0  0.80906  0.09744  0.24597  1.0000 -0.1797335312
C   C416      1.0  0.82771  0.54003  0.57814  1.0000 -0.0497247595
C   C417      1.0  0.01258  0.32557  0.53705  1.0000 -0.162072201
C   C418      1.0  0.67724  0.49720  0.39374  1.0000 -0.1797335312
C   C419      1.0  0.79527  0.55715  0.58641  1.0000 -0.0748003926
C   C420      1.0  0.93403  0.34713  0.51253  1.0000 -0.090152257
C   C421      1.0  0.97694  0.41053  0.61727  1.0000 0.6242818466
C   C422      1.0  0.86497  0.53774  0.62147  1.0000 0.6315155524
C   C423      1.0  0.69629  0.68574  0.48678  1.0000 -0.1510033688
C   C424      1.0  0.69942  0.73365  0.49730  1.0000 -0.090152257
C   C425      1.0  0.85866  0.10660  0.28405  1.0000 0.0735876324
C   C426      1.0  0.91425  0.16870  0.33571  1.0000 -0.0409086503
C   C427      1.0  0.64169  0.49758  0.35160  1.0000 0.0206571493
C   C428      1.0  0.69464  0.93129  0.13765  1.0000 0.6315155524
C   C429      1.0  0.78974  0.52861  0.48905  1.0000 -0.1674863777
C   C430      1.0  0.91740  0.34903  0.69157  1.0000 0.4411068596
C   C431      1.0  0.80279  0.47554  0.70784  1.0000 0.6315155524
C   C432      1.0  0.04047  0.19769  0.75651  1.0000 -0.0975159705
C   C433      1.0  0.54810  0.36817  0.64735  1.0000 -0.1797335312
C   C434      1.0  0.25076  0.38453  0.01320  1.0000 0.035755024
C   C435      1.0  0.37211  0.57021  0.97602  1.0000 -0.0409086503
C   C436      1.0  0.28549  0.43139  0.01567  1.0000 -0.1886954525
C   C437      1.0  0.54689  0.45319  0.71930  1.0000 -0.0409086503
C   C438      1.0  0.59915  0.46999  0.72608  1.0000 0.1800250951
C   C439      1.0  0.66781  0.40592  0.69566  1.0000 -0.1674863777
C   C440      1.0  0.19317  0.33789  0.96242  1.0000 -0.1797335312
C   C441      1.0  0.20337  0.38279  0.91671  1.0000 0.1800250951
C   C442      1.0  0.30018  0.47924  0.97119  1.0000 0.0783061429
C   C443      1.0  0.05866  0.27340  0.85533  1.0000 -0.1674863777
C   C444      1.0  0.00124  0.22558  0.80199  1.0000 -0.0975159705
C   C445      1.0  0.71519  0.41513  0.69742  1.0000 -0.0975159705
C   C446      1.0  0.27765  0.38460  0.06190  1.0000 0.2495457313
C   C447      1.0  0.31112  0.46724  0.93157  1.0000 -0.1797335312
C   C448      1.0  0.99262  0.18915  0.75257  1.0000 -0.0409086503
C   C449      1.0  0.44806  0.28996  0.60009  1.0000 0.2603884072
C   C450      1.0  0.74929  0.46205  0.70106  1.0000 -0.0497247595
C   C451      1.0  0.36032  0.58180  0.01447  1.0000 -0.090152257
C   C452      1.0  0.54523  0.49659  0.75691  1.0000 0.0735876324
C   C453      1.0  0.26264  0.43091  0.96865  1.0000 -0.0409086503
C   C454      1.0  0.65212  0.44078  0.69446  1.0000 0.0783061429
C   C455      1.0  0.52596  0.52952  0.82422  1.0000 -0.090152257
C   C456      1.0  0.59901  0.42661  0.68899  1.0000 -0.0206528719
C   C457      1.0  0.55952  0.54631  0.76064  1.0000 -0.1674863777
C   C458      1.0  0.09744  0.24597  0.80906  1.0000 -0.1797335312
C   C459      1.0  0.54003  0.57814  0.82771  1.0000 -0.0497247595
C   C460      1.0  0.32557  0.53705  0.01258  1.0000 -0.162072201
C   C461      1.0  0.49720  0.39374  0.67724  1.0000 -0.1797335312
C   C462      1.0  0.55715  0.58641  0.79527  1.0000 -0.0748003926
C   C463      1.0  0.34713  0.51253  0.93403  1.0000 -0.090152257
C   C464      1.0  0.41053  0.61727  0.97694  1.0000 0.6242818466
C   C465      1.0  0.53774  0.62147  0.86497  1.0000 0.6315155524
C   C466      1.0  0.68574  0.48678  0.69629  1.0000 -0.1510033688
C   C467      1.0  0.73365  0.49730  0.69942  1.0000 -0.090152257
C   C468      1.0  0.10660  0.28405  0.85866  1.0000 0.0735876324
C   C469      1.0  0.16870  0.33571  0.91425  1.0000 -0.0409086503
C   C470      1.0  0.49758  0.35160  0.64169  1.0000 0.0206571493
C   C471      1.0  0.93129  0.13765  0.69464  1.0000 0.6315155524
C   C472      1.0  0.52861  0.48905  0.78974  1.0000 -0.1674863777
C   C473      1.0  0.34903  0.69157  0.91740  1.0000 0.4463335118
C   C474      1.0  0.47554  0.70784  0.80279  1.0000 0.6315155524
C   C475      1.0  0.19769  0.75651  0.04047  1.0000 -0.0975159705
C   C476      1.0  0.36817  0.64735  0.54810  1.0000 -0.1797335312
C   C477      1.0  0.38453  0.01320  0.25076  1.0000 0.035755024
C   C478      1.0  0.57021  0.97602  0.37211  1.0000 -0.0409086503
C   C479      1.0  0.43139  0.01567  0.28549  1.0000 -0.1886954525
C   C480      1.0  0.45319  0.71930  0.54689  1.0000 -0.0409086503
C   C481      1.0  0.46999  0.72608  0.59915  1.0000 0.1800250951
C   C482      1.0  0.40592  0.69566  0.66781  1.0000 -0.1674863777
C   C483      1.0  0.33789  0.96242  0.19317  1.0000 -0.1797335312
C   C484      1.0  0.38279  0.91671  0.20337  1.0000 0.1800250951
C   C485      1.0  0.47924  0.97119  0.30018  1.0000 0.0783061429
C   C486      1.0  0.27340  0.85533  0.05866  1.0000 -0.1674863777
C   C487      1.0  0.22558  0.80199  0.00124  1.0000 -0.0975159705
C   C488      1.0  0.41513  0.69742  0.71519  1.0000 -0.0975159705
C   C489      1.0  0.38460  0.06190  0.27765  1.0000 0.2495457313
C   C490      1.0  0.46724  0.93157  0.31112  1.0000 -0.1797335312
C   C491      1.0  0.18915  0.75257  0.99262  1.0000 -0.0409086503
C   C492      1.0  0.28996  0.60009  0.44806  1.0000 0.2603884072
C   C493      1.0  0.46205  0.70106  0.74929  1.0000 -0.0497247595
C   C494      1.0  0.58180  0.01447  0.36032  1.0000 -0.090152257
C   C495      1.0  0.49659  0.75691  0.54523  1.0000 0.0735876324
C   C496      1.0  0.43091  0.96865  0.26264  1.0000 -0.0409086503
C   C497      1.0  0.44078  0.69446  0.65212  1.0000 0.0783061429
C   C498      1.0  0.52952  0.82422  0.52596  1.0000 -0.090152257
C   C499      1.0  0.42661  0.68899  0.59901  1.0000 -0.0206528719
C   C500      1.0  0.54631  0.76064  0.55952  1.0000 -0.1674863777
C   C501      1.0  0.24597  0.80906  0.09744  1.0000 -0.1797335312
C   C502      1.0  0.57814  0.82771  0.54003  1.0000 -0.0497247595
C   C503      1.0  0.53705  0.01258  0.32557  1.0000 -0.162072201
C   C504      1.0  0.39374  0.67724  0.49720  1.0000 -0.1797335312
C   C505      1.0  0.58641  0.79527  0.55715  1.0000 -0.0748003926
C   C506      1.0  0.51253  0.93403  0.34713  1.0000 -0.090152257
C   C507      1.0  0.61727  0.97694  0.41053  1.0000 0.6242818466
C   C508      1.0  0.62147  0.86497  0.53774  1.0000 0.6315155524
C   C509      1.0  0.48678  0.69629  0.68574  1.0000 -0.1510033688
C   C510      1.0  0.49730  0.69942  0.73365  1.0000 -0.090152257
C   C511      1.0  0.28405  0.85866  0.10660  1.0000 0.0735876324
C   C512      1.0  0.33571  0.91425  0.16870  1.0000 -0.0409086503
C   C513      1.0  0.35160  0.64169  0.49758  1.0000 0.0206571493
C   C514      1.0  0.13765  0.69464  0.93129  1.0000 0.6315155524
C   C515      1.0  0.48905  0.78974  0.52861  1.0000 -0.1674863777
C   C516      1.0  0.69157  0.91740  0.34903  1.0000 0.4463335118
N   N1        1.0  0.27001  0.02776  0.14997  1.0000 -0.5590785239
N   N2        1.0  0.37023  0.88199  0.67814  1.0000 -0.5590785239
N   N3        1.0  0.59979  0.88347  0.79768  1.0000 -0.3856198409
N   N4        1.0  0.06811  0.74023  0.91136  1.0000 -0.3214049085
N   N5        1.0  0.14997  0.27001  0.02776  1.0000 -0.5590785239
N   N6        1.0  0.67814  0.37023  0.88199  1.0000 -0.5590785239
N   N7        1.0  0.79768  0.59979  0.88347  1.0000 -0.3856198409
N   N8        1.0  0.91136  0.06811  0.74023  1.0000 -0.3214049085
N   N9        1.0  0.02776  0.14997  0.27001  1.0000 -0.5590785239
N   N10       1.0  0.88199  0.67814  0.37023  1.0000 -0.5590785239
N   N11       1.0  0.88347  0.79768  0.59979  1.0000 -0.3856198409
N   N12       1.0  0.74023  0.91136  0.06811  1.0000 -0.3214049085
N   N13       1.0  0.22999  0.35003  0.47224  1.0000 -0.5590785239
N   N14       1.0  0.12977  0.82186  0.61801  1.0000 -0.5590785239
N   N15       1.0  0.90021  0.70232  0.61653  1.0000 -0.3856198409
N   N16       1.0  0.43189  0.58864  0.75977  1.0000 -0.3214049085
N   N17       1.0  0.35003  0.47224  0.22999  1.0000 -0.5590785239
N   N18       1.0  0.82186  0.61801  0.12977  1.0000 -0.5590785239
N   N19       1.0  0.70232  0.61653  0.90021  1.0000 -0.3856198409
N   N20       1.0  0.58864  0.75977  0.43189  1.0000 -0.3214049085
N   N21       1.0  0.47224  0.22999  0.35003  1.0000 -0.5590785239
N   N22       1.0  0.61801  0.12977  0.82186  1.0000 -0.5590785239
N   N23       1.0  0.61653  0.90021  0.70232  1.0000 -0.3856198409
N   N24       1.0  0.75977  0.43189  0.58864  1.0000 -0.3214049085
N   N25       1.0  0.72999  0.97224  0.85003  1.0000 -0.5590785239
N   N26       1.0  0.62977  0.11801  0.32186  1.0000 -0.5590785239
N   N27       1.0  0.40021  0.11653  0.20232  1.0000 -0.3856198409
N   N28       1.0  0.93189  0.25977  0.08864  1.0000 -0.3214049085
N   N29       1.0  0.85003  0.72999  0.97224  1.0000 -0.5590785239
N   N30       1.0  0.32186  0.62977  0.11801  1.0000 -0.5590785239
N   N31       1.0  0.20232  0.40021  0.11653  1.0000 -0.3856198409
N   N32       1.0  0.08864  0.93189  0.25977  1.0000 -0.3214049085
N   N33       1.0  0.97224  0.85003  0.72999  1.0000 -0.5590785239
N   N34       1.0  0.11801  0.32186  0.62977  1.0000 -0.5590785239
N   N35       1.0  0.11653  0.20232  0.40021  1.0000 -0.3856198409
N   N36       1.0  0.25977  0.08864  0.93189  1.0000 -0.3214049085
N   N37       1.0  0.77001  0.64997  0.52776  1.0000 -0.5590785239
N   N38       1.0  0.87023  0.17814  0.38199  1.0000 -0.5590785239
N   N39       1.0  0.09979  0.29768  0.38347  1.0000 -0.3856198409
N   N40       1.0  0.56811  0.41136  0.24023  1.0000 -0.3214049085
N   N41       1.0  0.64997  0.52776  0.77001  1.0000 -0.5590785239
N   N42       1.0  0.17814  0.38199  0.87023  1.0000 -0.5590785239
N   N43       1.0  0.29768  0.38347  0.09979  1.0000 -0.3856198409
N   N44       1.0  0.41136  0.24023  0.56811  1.0000 -0.3214049085
N   N45       1.0  0.52776  0.77001  0.64997  1.0000 -0.5590785239
N   N46       1.0  0.38199  0.87023  0.17814  1.0000 -0.5590785239
N   N47       1.0  0.38347  0.09979  0.29768  1.0000 -0.3856198409
N   N48       1.0  0.24023  0.56811  0.41136  1.0000 -0.3214049085
O   O1        1.0  0.15467  0.60138  0.42749  1.0000 -0.6070554759
O   O2        1.0  0.38261  0.10561  0.01010  1.0000 -0.621200974
O   O3        1.0  0.18996  0.63496  0.38853  1.0000 -0.6070554759
O   O4        1.0  0.43187  0.27797  0.02356  1.0000 -1.1725753763
O   O5        1.0  0.43896  0.19094  0.95128  1.0000 -1.1585921863
O   O6        1.0  0.22353  0.02544  0.33845  1.0000 -0.6016682749
O   O7        1.0  0.37677  0.17145  0.06383  1.0000 -0.6016682749
O   O8        1.0  0.46899  0.28543  0.96935  1.0000 -1.1220524826
O   O9        1.0  0.19891  0.93685  0.30946  1.0000 -0.6292411935
O   O10       1.0  0.37424  0.18454  0.85464  1.0000 -0.6491690396
O   O11       1.0  0.50759  0.16739  0.92492  1.0000 -0.571179362
O   O12       1.0  0.47590  0.22021  0.88918  1.0000 -0.6016682749
O   O13       1.0  0.44662  0.10208  0.92592  1.0000 -0.621200974
O   O14       1.0  0.37550  0.17186  0.97997  1.0000 -1.0877386495
O   O15       1.0  0.42749  0.15467  0.60138  1.0000 -0.6070554759
O   O16       1.0  0.01010  0.38261  0.10561  1.0000 -0.621200974
O   O17       1.0  0.38853  0.18996  0.63496  1.0000 -0.6070554759
O   O18       1.0  0.02356  0.43187  0.27797  1.0000 -1.1764350751
O   O19       1.0  0.95128  0.43896  0.19094  1.0000 -1.1585921863
O   O20       1.0  0.33845  0.22353  0.02544  1.0000 -0.6016682749
O   O21       1.0  0.06383  0.37677  0.17145  1.0000 -0.6016682749
O   O22       1.0  0.96935  0.46899  0.28543  1.0000 -1.1309785464
O   O23       1.0  0.30946  0.19891  0.93685  1.0000 -0.6292411935
O   O24       1.0  0.85464  0.37424  0.18454  1.0000 -0.6491690396
O   O25       1.0  0.92492  0.50759  0.16739  1.0000 -0.571179362
O   O26       1.0  0.88918  0.47590  0.22021  1.0000 -0.6016682749
O   O27       1.0  0.92592  0.44662  0.10208  1.0000 -0.621200974
O   O28       1.0  0.97997  0.37550  0.17186  1.0000 -1.0877386495
O   O29       1.0  0.60138  0.42749  0.15467  1.0000 -0.6070554759
O   O30       1.0  0.10561  0.01010  0.38261  1.0000 -0.621200974
O   O31       1.0  0.63496  0.38853  0.18996  1.0000 -0.6070554759
O   O32       1.0  0.27797  0.02356  0.43187  1.0000 -1.1725753763
O   O33       1.0  0.19094  0.95128  0.43896  1.0000 -1.1585921863
O   O34       1.0  0.02544  0.33845  0.22353  1.0000 -0.6016682749
O   O35       1.0  0.17145  0.06383  0.37677  1.0000 -0.6016682749
O   O36       1.0  0.28543  0.96935  0.46899  1.0000 -1.1309785464
O   O37       1.0  0.93685  0.30946  0.19891  1.0000 -0.6292411935
O   O38       1.0  0.18454  0.85464  0.37424  1.0000 -0.6491690396
O   O39       1.0  0.16739  0.92492  0.50759  1.0000 -0.571179362
O   O40       1.0  0.22021  0.88918  0.47590  1.0000 -0.6016682749
O   O41       1.0  0.10208  0.92592  0.44662  1.0000 -0.621200974
O   O42       1.0  0.17186  0.97997  0.37550  1.0000 -1.0877386495
O   O43       1.0  0.34533  0.07251  0.89862  1.0000 -0.6070554759
O   O44       1.0  0.11739  0.48990  0.39439  1.0000 -0.621200974
O   O45       1.0  0.31004  0.11147  0.86504  1.0000 -0.6070554759
O   O46       1.0  0.06813  0.47644  0.22203  1.0000 -1.1725753763
O   O47       1.0  0.06104  0.54872  0.30906  1.0000 -1.1530859092
O   O48       1.0  0.27647  0.16155  0.47456  1.0000 -0.6016682749
O   O49       1.0  0.12323  0.43617  0.32855  1.0000 -0.6016682749
O   O50       1.0  0.03101  0.53065  0.21457  1.0000 -1.1309785464
O   O51       1.0  0.30109  0.19054  0.56315  1.0000 -0.6292411935
O   O52       1.0  0.12576  0.64536  0.31546  1.0000 -0.6491690396
O   O53       1.0  0.99241  0.57508  0.33261  1.0000 -0.571179362
O   O54       1.0  0.02410  0.61082  0.27979  1.0000 -0.6016682749
O   O55       1.0  0.05338  0.57408  0.39792  1.0000 -0.621200974
O   O56       1.0  0.12450  0.52003  0.32814  1.0000 -1.0877386495
O   O57       1.0  0.07251  0.89862  0.34533  1.0000 -0.6070554759
O   O58       1.0  0.48990  0.39439  0.11739  1.0000 -0.6292411935
O   O59       1.0  0.11147  0.86504  0.31004  1.0000 -0.6070554759
O   O60       1.0  0.47644  0.22203  0.06813  1.0000 -1.1764350751
O   O61       1.0  0.54872  0.30906  0.06104  1.0000 -1.1585921863
O   O62       1.0  0.16155  0.47456  0.27647  1.0000 -0.6016682749
O   O63       1.0  0.43617  0.32855  0.12323  1.0000 -0.6016682749
O   O64       1.0  0.53065  0.21457  0.03101  1.0000 -1.1220524826
O   O65       1.0  0.19054  0.56315  0.30109  1.0000 -0.6292411935
O   O66       1.0  0.64536  0.31546  0.12576  1.0000 -0.6491690396
O   O67       1.0  0.57508  0.33261  0.99241  1.0000 -0.571179362
O   O68       1.0  0.61082  0.27979  0.02410  1.0000 -0.6016682749
O   O69       1.0  0.57408  0.39792  0.05338  1.0000 -0.621200974
O   O70       1.0  0.52003  0.32814  0.12450  1.0000 -1.0877386495
O   O71       1.0  0.89862  0.34533  0.07251  1.0000 -0.6070554759
O   O72       1.0  0.39439  0.11739  0.48990  1.0000 -0.621200974
O   O73       1.0  0.86504  0.31004  0.11147  1.0000 -0.6016682749
O   O74       1.0  0.22203  0.06813  0.47644  1.0000 -1.1725753763
O   O75       1.0  0.30906  0.06104  0.54872  1.0000 -1.1585921863
O   O76       1.0  0.47456  0.27647  0.16155  1.0000 -0.6016682749
O   O77       1.0  0.32855  0.12323  0.43617  1.0000 -0.6016682749
O   O78       1.0  0.21457  0.03101  0.53065  1.0000 -1.1220524826
O   O79       1.0  0.56315  0.30109  0.19054  1.0000 -0.6292411935
O   O80       1.0  0.31546  0.12576  0.64536  1.0000 -0.6491690396
O   O81       1.0  0.33261  0.99241  0.57508  1.0000 -0.571179362
O   O82       1.0  0.27979  0.02410  0.61082  1.0000 -0.6016682749
O   O83       1.0  0.39792  0.05338  0.57408  1.0000 -0.621200974
O   O84       1.0  0.32814  0.12450  0.52003  1.0000 -1.0877386495
O   O85       1.0  0.84533  0.39862  0.57251  1.0000 -0.6070554759
O   O86       1.0  0.61739  0.89439  0.98990  1.0000 -0.6292411935
O   O87       1.0  0.81004  0.36504  0.61147  1.0000 -0.6070554759
O   O88       1.0  0.56813  0.72203  0.97644  1.0000 -1.1725753763
O   O89       1.0  0.56104  0.80906  0.04872  1.0000 -1.1585921863
O   O90       1.0  0.77647  0.97456  0.66155  1.0000 -0.6016682749
O   O91       1.0  0.62323  0.82855  0.93617  1.0000 -0.6016682749
O   O92       1.0  0.53101  0.71457  0.03065  1.0000 -1.1220524826
O   O93       1.0  0.80109  0.06315  0.69054  1.0000 -0.6292411935
O   O94       1.0  0.62576  0.81546  0.14536  1.0000 -0.6491690396
O   O95       1.0  0.49241  0.83261  0.07508  1.0000 -0.571179362
O   O96       1.0  0.52410  0.77979  0.11082  1.0000 -0.6016682749
O   O97       1.0  0.55338  0.89792  0.07408  1.0000 -0.621200974
O   O98       1.0  0.62450  0.82814  0.02003  1.0000 -1.0877386495
O   O99       1.0  0.57251  0.84533  0.39862  1.0000 -0.6070554759
O   O100      1.0  0.98990  0.61739  0.89439  1.0000 -0.621200974
O   O101      1.0  0.61147  0.81004  0.36504  1.0000 -0.6070554759
O   O102      1.0  0.97644  0.56813  0.72203  1.0000 -1.1764350751
O   O103      1.0  0.04872  0.56104  0.80906  1.0000 -1.1585921863
O   O104      1.0  0.66155  0.77647  0.97456  1.0000 -0.6016682749
O   O105      1.0  0.93617  0.62323  0.82855  1.0000 -0.6016682749
O   O106      1.0  0.03065  0.53101  0.71457  1.0000 -1.1220524826
O   O107      1.0  0.69054  0.80109  0.06315  1.0000 -0.6292411935
O   O108      1.0  0.14536  0.62576  0.81546  1.0000 -0.6491690396
O   O109      1.0  0.07508  0.49241  0.83261  1.0000 -0.571179362
O   O110      1.0  0.11082  0.52410  0.77979  1.0000 -0.6016682749
O   O111      1.0  0.07408  0.55338  0.89792  1.0000 -0.621200974
O   O112      1.0  0.02003  0.62450  0.82814  1.0000 -1.0877386495
O   O113      1.0  0.39862  0.57251  0.84533  1.0000 -0.6070554759
O   O114      1.0  0.89439  0.98990  0.61739  1.0000 -0.6292411935
O   O115      1.0  0.36504  0.61147  0.81004  1.0000 -0.6070554759
O   O116      1.0  0.72203  0.97644  0.56813  1.0000 -1.1725753763
O   O117      1.0  0.80906  0.04872  0.56104  1.0000 -1.1585921863
O   O118      1.0  0.97456  0.66155  0.77647  1.0000 -0.6016682749
O   O119      1.0  0.82855  0.93617  0.62323  1.0000 -0.6016682749
O   O120      1.0  0.71457  0.03065  0.53101  1.0000 -1.1220524826
O   O121      1.0  0.06315  0.69054  0.80109  1.0000 -0.6292411935
O   O122      1.0  0.81546  0.14536  0.62576  1.0000 -0.6491690396
O   O123      1.0  0.83261  0.07508  0.49241  1.0000 -0.571179362
O   O124      1.0  0.77979  0.11082  0.52410  1.0000 -0.6016682749
O   O125      1.0  0.89792  0.07408  0.55338  1.0000 -0.621200974
O   O126      1.0  0.82814  0.02003  0.62450  1.0000 -1.0877386495
O   O127      1.0  0.65467  0.92749  0.10138  1.0000 -0.6070554759
O   O128      1.0  0.88261  0.51010  0.60561  1.0000 -0.6292411935
O   O129      1.0  0.68996  0.88853  0.13496  1.0000 -0.6070554759
O   O130      1.0  0.93187  0.52356  0.77797  1.0000 -1.1764350751
O   O131      1.0  0.93896  0.45128  0.69094  1.0000 -1.1585921863
O   O132      1.0  0.72353  0.83845  0.52544  1.0000 -0.6016682749
O   O133      1.0  0.87677  0.56383  0.67145  1.0000 -0.6016682749
O   O134      1.0  0.96899  0.46935  0.78543  1.0000 -1.1220524826
O   O135      1.0  0.69891  0.80946  0.43685  1.0000 -0.6292411935
O   O136      1.0  0.87424  0.35464  0.68454  1.0000 -0.6491690396
O   O137      1.0  0.00759  0.42492  0.66739  1.0000 -0.571179362
O   O138      1.0  0.97590  0.38918  0.72021  1.0000 -0.6016682749
O   O139      1.0  0.94662  0.42592  0.60208  1.0000 -0.621200974
O   O140      1.0  0.87550  0.47997  0.67186  1.0000 -1.0841066459
O   O141      1.0  0.92749  0.10138  0.65467  1.0000 -0.6070554759
O   O142      1.0  0.51010  0.60561  0.88261  1.0000 -0.6292411935
O   O143      1.0  0.88853  0.13496  0.68996  1.0000 -0.6070554759
O   O144      1.0  0.52356  0.77797  0.93187  1.0000 -1.1725753763
O   O145      1.0  0.45128  0.69094  0.93896  1.0000 -1.1585921863
O   O146      1.0  0.83845  0.52544  0.72353  1.0000 -0.6016682749
O   O147      1.0  0.56383  0.67145  0.87677  1.0000 -0.6016682749
O   O148      1.0  0.46935  0.78543  0.96899  1.0000 -1.1220524826
O   O149      1.0  0.80946  0.43685  0.69891  1.0000 -0.6292411935
O   O150      1.0  0.35464  0.68454  0.87424  1.0000 -0.6491690396
O   O151      1.0  0.42492  0.66739  0.00759  1.0000 -0.571179362
O   O152      1.0  0.38918  0.72021  0.97590  1.0000 -0.6016682749
O   O153      1.0  0.42592  0.60208  0.94662  1.0000 -0.621200974
O   O154      1.0  0.47997  0.67186  0.87550  1.0000 -1.0877386495
O   O155      1.0  0.10138  0.65467  0.92749  1.0000 -0.6070554759
O   O156      1.0  0.60561  0.88261  0.51010  1.0000 -0.6292411935
O   O157      1.0  0.13496  0.68996  0.88853  1.0000 -0.6070554759
O   O158      1.0  0.77797  0.93187  0.52356  1.0000 -1.1725753763
O   O159      1.0  0.69094  0.93896  0.45128  1.0000 -1.1585921863
O   O160      1.0  0.52544  0.72353  0.83845  1.0000 -0.6016682749
O   O161      1.0  0.67145  0.87677  0.56383  1.0000 -0.6016682749
O   O162      1.0  0.78543  0.96899  0.46935  1.0000 -1.1309785464
O   O163      1.0  0.43685  0.69891  0.80946  1.0000 -0.6292411935
O   O164      1.0  0.68454  0.87424  0.35464  1.0000 -0.6491690396
O   O165      1.0  0.66739  0.00759  0.42492  1.0000 -0.571179362
O   O166      1.0  0.72021  0.97590  0.38918  1.0000 -0.6016682749
O   O167      1.0  0.60208  0.94662  0.42592  1.0000 -0.621200974
O   O168      1.0  0.67186  0.87550  0.47997  1.0000 -1.0877386495
