# DDEC6 charges by PACMAN v1.1 (https://github.com/mtap-research/PACMAN-charge/)
data_2020[Nd][nan]3[ASR]3
_chemical_formula_sum              "Nd4 H84 C120 O24"
_cell_length_a       9.52
_cell_length_b       16.473
_cell_length_c       28.5062
_cell_angle_alpha    90
_cell_angle_beta     106.382
_cell_angle_gamma    90

_symmetry_space_group_name_H-M    "P 1"
_symmetry_Int_Tables_number       1

loop_
  _symmetry_equiv_pos_as_xyz
  'x, y, z'

loop_
  _atom_site_type_symbol
  _atom_site_label
  _atom_site_symmetry_multiplicity
  _atom_site_fract_x
  _atom_site_fract_y
  _atom_site_fract_z
  _atom_site_occupancy
  _atom_site_charge
Nd  Nd1       1.0  0.77108  0.49422  0.00957  1.0000 2.1067794656
Nd  Nd2       1.0  0.22892  0.99422  0.49043  1.0000 2.1067794656
Nd  Nd3       1.0  0.22892  0.50578  0.99043  1.0000 2.1067794656
Nd  Nd4       1.0  0.77108  0.00578  0.50957  1.0000 2.1067794656
H   H1        1.0  0.75620  0.40389  0.83749  1.0000 0.1228718024
H   H2        1.0  0.67869  0.40624  0.75261  1.0000 0.1228718024
H   H3        1.0  0.38731  0.57773  0.75717  1.0000 0.1274578476
H   H4        1.0  0.46736  0.57840  0.84072  1.0000 0.1228718024
H   H5        1.0  0.35405  0.37696  0.72836  1.0000 0.1228718024
H   H6        1.0  0.24627  0.34167  0.68058  1.0000 0.1274578476
H   H7        1.0  0.40997  0.31312  0.69699  1.0000 0.1274578476
H   H8        1.0  0.67262  0.60663  0.71645  1.0000 0.1274578476
H   H9        1.0  0.63986  0.65424  0.66692  1.0000 0.1228718024
H   H10       1.0  0.54004  0.66694  0.70165  1.0000 0.1274578476
H   H11       1.0  0.20546  0.51069  0.52318  1.0000 0.1274578476
H   H12       1.0  0.36345  0.52987  0.51965  1.0000 0.1274578476
H   H13       1.0  0.31207  0.43956  0.52027  1.0000 0.1274578476
H   H14       1.0  0.41543  0.27919  0.59725  1.0000 0.1274578476
H   H15       1.0  0.28448  0.16565  0.56312  1.0000 0.1274578476
H   H16       1.0  0.91579  0.29197  0.54028  1.0000 0.1228718024
H   H17       1.0  0.04777  0.40648  0.57176  1.0000 0.1274578476
H   H18       1.0  0.66640  0.60338  0.57517  1.0000 0.1228718024
H   H19       1.0  0.70223  0.72641  0.54156  1.0000 0.1274578476
H   H20       1.0  0.31615  0.80746  0.55105  1.0000 0.1228718024
H   H21       1.0  0.27851  0.68447  0.58486  1.0000 0.1228718024
H   H22       1.0  0.24380  0.90389  0.66251  1.0000 0.1228718024
H   H23       1.0  0.32131  0.90624  0.74739  1.0000 0.1228718024
H   H24       1.0  0.61269  0.07773  0.74283  1.0000 0.1274578476
H   H25       1.0  0.53264  0.07840  0.65928  1.0000 0.1228718024
H   H26       1.0  0.64595  0.87696  0.77164  1.0000 0.1228718024
H   H27       1.0  0.75373  0.84167  0.81942  1.0000 0.1274578476
H   H28       1.0  0.59003  0.81312  0.80301  1.0000 0.1274578476
H   H29       1.0  0.32738  0.10663  0.78355  1.0000 0.1274578476
H   H30       1.0  0.36014  0.15424  0.83308  1.0000 0.1228718024
H   H31       1.0  0.45996  0.16694  0.79835  1.0000 0.1274578476
H   H32       1.0  0.79454  0.01069  0.97682  1.0000 0.1274578476
H   H33       1.0  0.63655  0.02987  0.98035  1.0000 0.1274578476
H   H34       1.0  0.68793  0.93956  0.97973  1.0000 0.1274578476
H   H35       1.0  0.58457  0.77919  0.90275  1.0000 0.1274578476
H   H36       1.0  0.71552  0.66565  0.93688  1.0000 0.1274578476
H   H37       1.0  0.08421  0.79197  0.95972  1.0000 0.1228718024
H   H38       1.0  0.95223  0.90648  0.92824  1.0000 0.1274578476
H   H39       1.0  0.33360  0.10338  0.92483  1.0000 0.1228718024
H   H40       1.0  0.29777  0.22641  0.95844  1.0000 0.1274578476
H   H41       1.0  0.68385  0.30746  0.94895  1.0000 0.1228718024
H   H42       1.0  0.72149  0.18447  0.91514  1.0000 0.1228718024
H   H43       1.0  0.24380  0.59611  0.16251  1.0000 0.1228718024
H   H44       1.0  0.32131  0.59376  0.24739  1.0000 0.1228718024
H   H45       1.0  0.61269  0.42227  0.24283  1.0000 0.1274578476
H   H46       1.0  0.53264  0.42160  0.15928  1.0000 0.1228718024
H   H47       1.0  0.64595  0.62304  0.27164  1.0000 0.1228718024
H   H48       1.0  0.75373  0.65833  0.31942  1.0000 0.1274578476
H   H49       1.0  0.59003  0.68688  0.30301  1.0000 0.1274578476
H   H50       1.0  0.32738  0.39337  0.28355  1.0000 0.1274578476
H   H51       1.0  0.36014  0.34576  0.33308  1.0000 0.1228718024
H   H52       1.0  0.45996  0.33306  0.29835  1.0000 0.1274578476
H   H53       1.0  0.79454  0.48931  0.47682  1.0000 0.1274578476
H   H54       1.0  0.63655  0.47013  0.48035  1.0000 0.1274578476
H   H55       1.0  0.68793  0.56044  0.47973  1.0000 0.1274578476
H   H56       1.0  0.58457  0.72081  0.40275  1.0000 0.1274578476
H   H57       1.0  0.71552  0.83435  0.43688  1.0000 0.1274578476
H   H58       1.0  0.08421  0.70803  0.45972  1.0000 0.1228718024
H   H59       1.0  0.95223  0.59352  0.42824  1.0000 0.1274578476
H   H60       1.0  0.33360  0.39662  0.42483  1.0000 0.1228718024
H   H61       1.0  0.29777  0.27359  0.45844  1.0000 0.1274578476
H   H62       1.0  0.68385  0.19254  0.44895  1.0000 0.1228718024
H   H63       1.0  0.72149  0.31553  0.41514  1.0000 0.1228718024
H   H64       1.0  0.75620  0.09611  0.33749  1.0000 0.1228718024
H   H65       1.0  0.67869  0.09376  0.25261  1.0000 0.1228718024
H   H66       1.0  0.38731  0.92227  0.25717  1.0000 0.1274578476
H   H67       1.0  0.46736  0.92160  0.34072  1.0000 0.1228718024
H   H68       1.0  0.35405  0.12304  0.22836  1.0000 0.1228718024
H   H69       1.0  0.24627  0.15833  0.18058  1.0000 0.1274578476
H   H70       1.0  0.40997  0.18688  0.19699  1.0000 0.1274578476
H   H71       1.0  0.67262  0.89337  0.21645  1.0000 0.1274578476
H   H72       1.0  0.63986  0.84576  0.16692  1.0000 0.1228718024
H   H73       1.0  0.54004  0.83306  0.20165  1.0000 0.1274578476
H   H74       1.0  0.20546  0.98931  0.02318  1.0000 0.1274578476
H   H75       1.0  0.36345  0.97013  0.01965  1.0000 0.1274578476
H   H76       1.0  0.31207  0.06044  0.02027  1.0000 0.1274578476
H   H77       1.0  0.41543  0.22081  0.09725  1.0000 0.1274578476
H   H78       1.0  0.28448  0.33435  0.06312  1.0000 0.1274578476
H   H79       1.0  0.91579  0.20803  0.04028  1.0000 0.1228718024
H   H80       1.0  0.04777  0.09352  0.07176  1.0000 0.1274578476
H   H81       1.0  0.66640  0.89662  0.07517  1.0000 0.1228718024
H   H82       1.0  0.70223  0.77359  0.04156  1.0000 0.1274578476
H   H83       1.0  0.31615  0.69254  0.05105  1.0000 0.1228718024
H   H84       1.0  0.27851  0.81553  0.08486  1.0000 0.1228718024
C   C1        1.0  0.66760  0.49030  0.90260  1.0000 0.5658074712
C   C2        1.0  0.61810  0.48990  0.84890  1.0000 -0.0495988036
C   C3        1.0  0.68140  0.43900  0.82150  1.0000 -0.0907703175
C   C4        1.0  0.63430  0.43990  0.77040  1.0000 -0.1565022523
C   C5        1.0  0.52000  0.49160  0.74590  1.0000 0.087782794
C   C6        1.0  0.46150  0.54220  0.77300  1.0000 -0.1565022523
C   C7        1.0  0.50910  0.54240  0.82340  1.0000 -0.0907703175
C   C8        1.0  0.46850  0.49020  0.69080  1.0000 -0.0626514944
C   C9        1.0  0.49760  0.55930  0.66390  1.0000 0.087782794
C   C10       1.0  0.44460  0.55890  0.61330  1.0000 -0.0747943798
C   C11       1.0  0.36270  0.49220  0.58790  1.0000 0.087782794
C   C12       1.0  0.33410  0.42670  0.61540  1.0000 -0.0626514944
C   C13       1.0  0.38530  0.42520  0.66690  1.0000 0.0760547911
C   C14       1.0  0.34540  0.35830  0.69580  1.0000 -0.4451668615
C   C15       1.0  0.59670  0.62810  0.68960  1.0000 -0.4431086163
C   C16       1.0  0.30570  0.49320  0.53270  1.0000 -0.457807144
C   C17       1.0  0.24420  0.35620  0.58960  1.0000 0.087782794
C   C18       1.0  0.31390  0.28230  0.58570  1.0000 -0.151422192
C   C19       1.0  0.23540  0.21370  0.56520  1.0000 -0.0907703175
C   C20       1.0  0.08970  0.21680  0.54840  1.0000 -0.0400736549
C   C21       1.0  0.01740  0.28950  0.55150  1.0000 -0.0907703175
C   C22       1.0  0.09710  0.35790  0.57120  1.0000 -0.151422192
C   C23       1.0  0.00280  0.14240  0.53190  1.0000 0.624427477
C   C24       1.0  0.46830  0.63140  0.58640  1.0000 0.087782794
C   C25       1.0  0.59660  0.64420  0.57130  1.0000 -0.1565022523
C   C26       1.0  0.61710  0.71830  0.55080  1.0000 -0.0996998528
C   C27       1.0  0.51760  0.77910  0.54390  1.0000 -0.0400736549
C   C28       1.0  0.38710  0.76700  0.55640  1.0000 -0.0907703175
C   C29       1.0  0.36580  0.69280  0.57700  1.0000 -0.151422192
C   C30       1.0  0.54800  0.86130  0.52600  1.0000 0.6463857388
C   C31       1.0  0.33240  0.99030  0.59740  1.0000 0.5658074712
C   C32       1.0  0.38190  0.98990  0.65110  1.0000 -0.0495988036
C   C33       1.0  0.31860  0.93900  0.67850  1.0000 -0.0907703175
C   C34       1.0  0.36570  0.93990  0.72960  1.0000 -0.1565022523
C   C35       1.0  0.48000  0.99160  0.75410  1.0000 0.087782794
C   C36       1.0  0.53850  0.04220  0.72700  1.0000 -0.151422192
C   C37       1.0  0.49090  0.04240  0.67660  1.0000 -0.0907703175
C   C38       1.0  0.53150  0.99020  0.80920  1.0000 -0.0626514944
C   C39       1.0  0.50240  0.05930  0.83610  1.0000 0.087782794
C   C40       1.0  0.55540  0.05890  0.88670  1.0000 -0.0747943798
C   C41       1.0  0.63730  0.99220  0.91210  1.0000 0.087782794
C   C42       1.0  0.66590  0.92670  0.88460  1.0000 -0.0626514944
C   C43       1.0  0.61470  0.92520  0.83310  1.0000 0.0760547911
C   C44       1.0  0.65460  0.85830  0.80420  1.0000 -0.4451668615
C   C45       1.0  0.40330  0.12810  0.81040  1.0000 -0.4431086163
C   C46       1.0  0.69430  0.99320  0.96730  1.0000 -0.457807144
C   C47       1.0  0.75580  0.85620  0.91040  1.0000 0.087782794
C   C48       1.0  0.68610  0.78230  0.91430  1.0000 -0.151422192
C   C49       1.0  0.76460  0.71370  0.93480  1.0000 -0.0907703175
C   C50       1.0  0.91030  0.71680  0.95160  1.0000 -0.0400736549
C   C51       1.0  0.98260  0.78950  0.94850  1.0000 -0.0907703175
C   C52       1.0  0.90290  0.85790  0.92880  1.0000 -0.151422192
C   C53       1.0  0.99720  0.64240  0.96810  1.0000 0.624427477
C   C54       1.0  0.53170  0.13140  0.91360  1.0000 0.087782794
C   C55       1.0  0.40340  0.14420  0.92870  1.0000 -0.1565022523
C   C56       1.0  0.38290  0.21830  0.94920  1.0000 -0.0996998528
C   C57       1.0  0.48240  0.27910  0.95610  1.0000 -0.0400736549
C   C58       1.0  0.61290  0.26700  0.94360  1.0000 -0.0907703175
C   C59       1.0  0.63420  0.19280  0.92300  1.0000 -0.151422192
C   C60       1.0  0.45200  0.36130  0.97400  1.0000 0.6463857388
C   C61       1.0  0.33240  0.50970  0.09740  1.0000 0.5658074712
C   C62       1.0  0.38190  0.51010  0.15110  1.0000 -0.0495988036
C   C63       1.0  0.31860  0.56100  0.17850  1.0000 -0.0907703175
C   C64       1.0  0.36570  0.56010  0.22960  1.0000 -0.1565022523
C   C65       1.0  0.48000  0.50840  0.25410  1.0000 0.087782794
C   C66       1.0  0.53850  0.45780  0.22700  1.0000 -0.1565022523
C   C67       1.0  0.49090  0.45760  0.17660  1.0000 -0.0907703175
C   C68       1.0  0.53150  0.50980  0.30920  1.0000 -0.0626514944
C   C69       1.0  0.50240  0.44070  0.33610  1.0000 0.087782794
C   C70       1.0  0.55540  0.44110  0.38670  1.0000 -0.0747943798
C   C71       1.0  0.63730  0.50780  0.41210  1.0000 0.087782794
C   C72       1.0  0.66590  0.57330  0.38460  1.0000 -0.0626514944
C   C73       1.0  0.61470  0.57480  0.33310  1.0000 0.0760547911
C   C74       1.0  0.65460  0.64170  0.30420  1.0000 -0.4451668615
C   C75       1.0  0.40330  0.37190  0.31040  1.0000 -0.4431086163
C   C76       1.0  0.69430  0.50680  0.46730  1.0000 -0.457807144
C   C77       1.0  0.75580  0.64380  0.41040  1.0000 0.087782794
C   C78       1.0  0.68610  0.71770  0.41430  1.0000 -0.151422192
C   C79       1.0  0.76460  0.78630  0.43480  1.0000 -0.0907703175
C   C80       1.0  0.91030  0.78320  0.45160  1.0000 -0.0400736549
C   C81       1.0  0.98260  0.71050  0.44850  1.0000 -0.0907703175
C   C82       1.0  0.90290  0.64210  0.42880  1.0000 -0.151422192
C   C83       1.0  0.99720  0.85760  0.46810  1.0000 0.624427477
C   C84       1.0  0.53170  0.36860  0.41360  1.0000 0.087782794
C   C85       1.0  0.40340  0.35580  0.42870  1.0000 -0.1565022523
C   C86       1.0  0.38290  0.28170  0.44920  1.0000 -0.0996998528
C   C87       1.0  0.48240  0.22090  0.45610  1.0000 -0.0400736549
C   C88       1.0  0.61290  0.23300  0.44360  1.0000 -0.0907703175
C   C89       1.0  0.63420  0.30720  0.42300  1.0000 -0.151422192
C   C90       1.0  0.45200  0.13870  0.47400  1.0000 0.6463857388
C   C91       1.0  0.66760  0.00970  0.40260  1.0000 0.5658074712
C   C92       1.0  0.61810  0.01010  0.34890  1.0000 -0.0495988036
C   C93       1.0  0.68140  0.06100  0.32150  1.0000 -0.0907703175
C   C94       1.0  0.63430  0.06010  0.27040  1.0000 -0.1565022523
C   C95       1.0  0.52000  0.00840  0.24590  1.0000 0.087782794
C   C96       1.0  0.46150  0.95780  0.27300  1.0000 -0.1565022523
C   C97       1.0  0.50910  0.95760  0.32340  1.0000 -0.0907703175
C   C98       1.0  0.46850  0.00980  0.19080  1.0000 -0.0626514944
C   C99       1.0  0.49760  0.94070  0.16390  1.0000 0.087782794
C   C100      1.0  0.44460  0.94110  0.11330  1.0000 -0.0747943798
C   C101      1.0  0.36270  0.00780  0.08790  1.0000 0.087782794
C   C102      1.0  0.33410  0.07330  0.11540  1.0000 -0.0626514944
C   C103      1.0  0.38530  0.07480  0.16690  1.0000 0.0760547911
C   C104      1.0  0.34540  0.14170  0.19580  1.0000 -0.4451668615
C   C105      1.0  0.59670  0.87190  0.18960  1.0000 -0.4431086163
C   C106      1.0  0.30570  0.00680  0.03270  1.0000 -0.457807144
C   C107      1.0  0.24420  0.14380  0.08960  1.0000 0.087782794
C   C108      1.0  0.31390  0.21770  0.08570  1.0000 -0.151422192
C   C109      1.0  0.23540  0.28630  0.06520  1.0000 -0.0907703175
C   C110      1.0  0.08970  0.28320  0.04840  1.0000 -0.0400736549
C   C111      1.0  0.01740  0.21050  0.05150  1.0000 -0.0907703175
C   C112      1.0  0.09710  0.14210  0.07120  1.0000 -0.151422192
C   C113      1.0  0.00280  0.35760  0.03190  1.0000 0.624427477
C   C114      1.0  0.46830  0.86860  0.08640  1.0000 0.087782794
C   C115      1.0  0.59660  0.85580  0.07130  1.0000 -0.1565022523
C   C116      1.0  0.61710  0.78170  0.05080  1.0000 -0.0996998528
C   C117      1.0  0.51760  0.72090  0.04390  1.0000 -0.0400736549
C   C118      1.0  0.38710  0.73300  0.05640  1.0000 -0.0907703175
C   C119      1.0  0.36580  0.80720  0.07700  1.0000 -0.151422192
C   C120      1.0  0.54800  0.63870  0.02600  1.0000 0.6463857388
O   O1        1.0  0.77320  0.44290  0.92510  1.0000 -0.6511568854
O   O2        1.0  0.61050  0.53760  0.92640  1.0000 -0.6167970206
O   O3        1.0  0.05790  0.08140  0.51830  1.0000 -0.691411225
O   O4        1.0  0.86920  0.14280  0.53130  1.0000 -0.6397952045
O   O5        1.0  0.67600  0.87590  0.52540  1.0000 -0.6511568854
O   O6        1.0  0.44410  0.91140  0.51320  1.0000 -0.691411225
O   O7        1.0  0.22680  0.94290  0.57490  1.0000 -0.6511568854
O   O8        1.0  0.38950  0.03760  0.57360  1.0000 -0.6167970206
O   O9        1.0  0.94210  0.58140  0.98170  1.0000 -0.691411225
O   O10       1.0  0.13080  0.64280  0.96870  1.0000 -0.6397952045
O   O11       1.0  0.32400  0.37590  0.97460  1.0000 -0.6511568854
O   O12       1.0  0.55590  0.41140  0.98680  1.0000 -0.691411225
O   O13       1.0  0.22680  0.55710  0.07490  1.0000 -0.6511568854
O   O14       1.0  0.38950  0.46240  0.07360  1.0000 -0.6167970206
O   O15       1.0  0.94210  0.91860  0.48170  1.0000 -0.691411225
O   O16       1.0  0.13080  0.85720  0.46870  1.0000 -0.6397952045
O   O17       1.0  0.32400  0.12410  0.47460  1.0000 -0.6511568854
O   O18       1.0  0.55590  0.08860  0.48680  1.0000 -0.691411225
O   O19       1.0  0.77320  0.05710  0.42510  1.0000 -0.6511568854
O   O20       1.0  0.61050  0.96240  0.42640  1.0000 -0.6167970206
O   O21       1.0  0.05790  0.41860  0.01830  1.0000 -0.691411225
O   O22       1.0  0.86920  0.35720  0.03130  1.0000 -0.6397952045
O   O23       1.0  0.67600  0.62410  0.02540  1.0000 -0.6511568854
O   O24       1.0  0.44410  0.58860  0.01320  1.0000 -0.691411225
