# DDEC6 charges by PACMAN v1.1 (https://github.com/mtap-research/PACMAN-charge/)
data_2020[Cu][dia]3[ASR]4
_chemical_formula_sum              "Cu16 H544 C704 N96 O32"
_cell_length_a       24.679
_cell_length_b       24.679
_cell_length_c       44.8517
_cell_angle_alpha    90
_cell_angle_beta     90
_cell_angle_gamma    90

_symmetry_space_group_name_H-M    "P 1"
_symmetry_Int_Tables_number       1

loop_
  _symmetry_equiv_pos_as_xyz
  'x, y, z'

loop_
  _atom_site_type_symbol
  _atom_site_label
  _atom_site_symmetry_multiplicity
  _atom_site_fract_x
  _atom_site_fract_y
  _atom_site_fract_z
  _atom_site_occupancy
  _atom_site_charge
Cu  Cu1       1.0  0.87313  0.61832  0.25632  1.0000 0.2203635858
Cu  Cu2       1.0  0.12687  0.38168  0.75632  1.0000 0.2203635858
Cu  Cu3       1.0  0.88168  0.37313  0.50632  1.0000 0.2203635858
Cu  Cu4       1.0  0.11832  0.62687  0.00632  1.0000 0.2203635858
Cu  Cu5       1.0  0.62687  0.11832  0.99368  1.0000 0.2203635858
Cu  Cu6       1.0  0.37313  0.88168  0.49368  1.0000 0.2203635858
Cu  Cu7       1.0  0.61832  0.87313  0.74368  1.0000 0.2203635858
Cu  Cu8       1.0  0.38168  0.12687  0.24368  1.0000 0.2094846699
Cu  Cu9       1.0  0.64240  0.64240  0.00000  1.0000 0.2094846699
Cu  Cu10      1.0  0.35760  0.35760  0.50000  1.0000 0.2094846699
Cu  Cu11      1.0  0.85760  0.14240  0.25000  1.0000 0.2094846699
Cu  Cu12      1.0  0.14240  0.85760  0.75000  1.0000 0.2094846699
Cu  Cu13      1.0  0.39321  0.60679  0.25000  1.0000 0.2203635858
Cu  Cu14      1.0  0.60679  0.39321  0.75000  1.0000 0.2203635858
Cu  Cu15      1.0  0.89321  0.89321  0.50000  1.0000 0.2203635858
Cu  Cu16      1.0  0.10679  0.10679  0.00000  1.0000 0.2203635858
H   H1        1.0  0.76818  0.84333  0.08271  1.0000 0.1198910729
H   H2        1.0  0.82026  0.83684  0.16731  1.0000 0.1108859561
H   H3        1.0  0.66863  0.75429  0.01683  1.0000 0.1000124483
H   H4        1.0  0.59174  0.46901  0.04534  1.0000 0.1293446064
H   H5        1.0  0.62335  0.52873  0.01110  1.0000 0.1000124483
H   H6        1.0  0.75939  0.66547  0.09037  1.0000 0.1293446064
H   H7        1.0  0.55394  0.59827  0.09601  1.0000 0.136092845
H   H8        1.0  0.85666  0.73400  0.24232  1.0000 0.1000124483
H   H9        1.0  0.94371  0.44977  0.20751  1.0000 0.1293446064
H   H10       1.0  0.98524  0.58742  0.16605  1.0000 0.1293446064
H   H11       1.0  0.70905  0.80281  0.05406  1.0000 0.1293446064
H   H12       1.0  0.05741  0.64197  0.06385  1.0000 0.1000124483
H   H13       1.0  0.83237  0.78876  0.20412  1.0000 0.1293446064
H   H14       1.0  0.58085  0.41915  0.08406  1.0000 0.1108859561
H   H15       1.0  0.58667  0.65283  0.05829  1.0000 0.1000124483
H   H16       1.0  0.51163  0.40741  0.16430  1.0000 0.1198910729
H   H17       1.0  0.71676  0.61754  0.05251  1.0000 0.1000124483
H   H18       1.0  0.51419  0.58684  0.16323  1.0000 0.136092845
H   H19       1.0  0.18559  0.60704  0.05961  1.0000 0.1000124483
H   H20       1.0  0.06211  0.41086  0.09743  1.0000 0.1108859561
H   H21       1.0  0.81587  0.60503  0.19732  1.0000 0.1000124483
H   H22       1.0  0.89882  0.50346  0.24428  1.0000 0.1000124483
H   H23       1.0  0.19466  0.78980  0.05662  1.0000 0.136092845
H   H24       1.0  0.03215  0.59127  0.10477  1.0000 0.1293446064
H   H25       1.0  0.41351  0.49374  0.23088  1.0000 0.1000124483
H   H26       1.0  0.33809  0.77604  0.20078  1.0000 0.1293446064
H   H27       1.0  0.09483  0.51153  0.01959  1.0000 0.1000124483
H   H28       1.0  0.07192  0.45850  0.05795  1.0000 0.1293446064
H   H29       1.0  0.54320  0.33262  0.07870  1.0000 0.1108859561
H   H30       1.0  0.23475  0.64886  0.09604  1.0000 0.1293446064
H   H31       1.0  0.00430  0.40828  0.18015  1.0000 0.1198910729
H   H32       1.0  0.93892  0.63657  0.20122  1.0000 0.1000124483
H   H33       1.0  0.33631  0.59444  0.19052  1.0000 0.1000124483
H   H34       1.0  0.57589  0.32915  0.16483  1.0000 0.1108859561
H   H35       1.0  0.14782  0.74098  0.02147  1.0000 0.1000124483
H   H36       1.0  0.25227  0.83062  0.08397  1.0000 0.1198910729
H   H37       1.0  0.78880  0.65777  0.15836  1.0000 0.1293446064
H   H38       1.0  0.30448  0.64325  0.15423  1.0000 0.136092845
H   H39       1.0  0.45662  0.45022  0.19153  1.0000 0.1293446064
H   H40       1.0  0.82936  0.91965  0.08252  1.0000 0.1108859561
H   H41       1.0  0.46898  0.63197  0.19754  1.0000 0.1000124483
H   H42       1.0  0.37604  0.72296  0.23652  1.0000 0.1000124483
H   H43       1.0  0.78278  0.92468  0.16710  1.0000 0.1198910729
H   H44       1.0  0.07028  0.33688  0.18319  1.0000 0.1108859561
H   H45       1.0  0.08418  0.24397  0.18502  1.0000 0.1108859561
H   H46       1.0  0.04296  0.23216  0.09859  1.0000 0.1198910729
H   H47       1.0  0.02906  0.32508  0.09676  1.0000 0.1108859561
H   H48       1.0  0.33446  0.82237  0.15654  1.0000 0.1198910729
H   H49       1.0  0.78751  0.00975  0.17067  1.0000 0.1198910729
H   H50       1.0  0.83381  0.01260  0.08484  1.0000 0.1198910729
H   H51       1.0  0.54418  0.24409  0.07603  1.0000 0.1293446064
H   H52       1.0  0.58895  0.23543  0.16177  1.0000 0.1108859561
H   H53       1.0  0.80271  0.09870  0.08885  1.0000 0.1108859561
H   H54       1.0  0.86361  0.08968  0.09747  1.0000 0.1108859561
H   H55       1.0  0.83381  0.14290  0.10723  1.0000 0.1198910729
H   H56       1.0  0.57082  0.11145  0.14327  1.0000 0.1198910729
H   H57       1.0  0.55690  0.16677  0.15865  1.0000 0.1108859561
H   H58       1.0  0.61723  0.15245  0.15105  1.0000 0.1198910729
H   H59       1.0  0.30965  0.00088  0.16543  1.0000 0.1198910729
H   H60       1.0  0.30098  0.90729  0.16621  1.0000 0.1108859561
H   H61       1.0  0.31110  0.90387  0.07681  1.0000 0.1108859561
H   H62       1.0  0.31978  0.99746  0.07603  1.0000 0.1198910729
H   H63       1.0  0.16016  0.15956  0.15986  1.0000 0.1108859561
H   H64       1.0  0.11447  0.14304  0.18238  1.0000 0.1108859561
H   H65       1.0  0.12932  0.20429  0.17798  1.0000 0.1000124483
H   H66       1.0  0.34464  0.08599  0.08097  1.0000 0.1198910729
H   H67       1.0  0.32780  0.13285  0.10267  1.0000 0.1293446064
H   H68       1.0  0.28420  0.09155  0.09128  1.0000 0.1108859561
H   H69       1.0  0.23182  0.15667  0.58271  1.0000 0.1198910729
H   H70       1.0  0.17974  0.16316  0.66731  1.0000 0.1108859561
H   H71       1.0  0.33137  0.24571  0.51683  1.0000 0.1000124483
H   H72       1.0  0.40826  0.53099  0.54534  1.0000 0.1293446064
H   H73       1.0  0.37665  0.47127  0.51110  1.0000 0.1000124483
H   H74       1.0  0.24061  0.33453  0.59037  1.0000 0.1293446064
H   H75       1.0  0.44606  0.40173  0.59601  1.0000 0.136092845
H   H76       1.0  0.14334  0.26600  0.74232  1.0000 0.1000124483
H   H77       1.0  0.05629  0.55023  0.70751  1.0000 0.1293446064
H   H78       1.0  0.01476  0.41258  0.66605  1.0000 0.1293446064
H   H79       1.0  0.29095  0.19719  0.55406  1.0000 0.1293446064
H   H80       1.0  0.94259  0.35803  0.56385  1.0000 0.1000124483
H   H81       1.0  0.16763  0.21124  0.70412  1.0000 0.1293446064
H   H82       1.0  0.41915  0.58085  0.58406  1.0000 0.1108859561
H   H83       1.0  0.41333  0.34717  0.55829  1.0000 0.1000124483
H   H84       1.0  0.48837  0.59259  0.66430  1.0000 0.1198910729
H   H85       1.0  0.28324  0.38246  0.55251  1.0000 0.1000124483
H   H86       1.0  0.48581  0.41316  0.66323  1.0000 0.136092845
H   H87       1.0  0.81441  0.39296  0.55961  1.0000 0.1000124483
H   H88       1.0  0.93789  0.58914  0.59743  1.0000 0.1108859561
H   H89       1.0  0.18413  0.39497  0.69732  1.0000 0.1000124483
H   H90       1.0  0.10118  0.49654  0.74428  1.0000 0.1000124483
H   H91       1.0  0.80534  0.21020  0.55662  1.0000 0.136092845
H   H92       1.0  0.96785  0.40873  0.60477  1.0000 0.1293446064
H   H93       1.0  0.58649  0.50626  0.73088  1.0000 0.1000124483
H   H94       1.0  0.66191  0.22396  0.70078  1.0000 0.1293446064
H   H95       1.0  0.90517  0.48847  0.51959  1.0000 0.1000124483
H   H96       1.0  0.92808  0.54150  0.55795  1.0000 0.1293446064
H   H97       1.0  0.45680  0.66738  0.57870  1.0000 0.1108859561
H   H98       1.0  0.76525  0.35114  0.59604  1.0000 0.1293446064
H   H99       1.0  0.99570  0.59172  0.68015  1.0000 0.1198910729
H   H100      1.0  0.06108  0.36343  0.70122  1.0000 0.1000124483
H   H101      1.0  0.66369  0.40556  0.69052  1.0000 0.1000124483
H   H102      1.0  0.42411  0.67085  0.66483  1.0000 0.1108859561
H   H103      1.0  0.85218  0.25902  0.52147  1.0000 0.1000124483
H   H104      1.0  0.74773  0.16938  0.58397  1.0000 0.1198910729
H   H105      1.0  0.21120  0.34223  0.65836  1.0000 0.1293446064
H   H106      1.0  0.69552  0.35675  0.65423  1.0000 0.136092845
H   H107      1.0  0.54338  0.54978  0.69153  1.0000 0.1293446064
H   H108      1.0  0.17064  0.08035  0.58252  1.0000 0.1108859561
H   H109      1.0  0.53102  0.36803  0.69754  1.0000 0.1000124483
H   H110      1.0  0.62396  0.27704  0.73652  1.0000 0.1000124483
H   H111      1.0  0.21722  0.07532  0.66710  1.0000 0.1198910729
H   H112      1.0  0.92972  0.66312  0.68319  1.0000 0.1108859561
H   H113      1.0  0.91582  0.75603  0.68502  1.0000 0.1108859561
H   H114      1.0  0.95704  0.76784  0.59859  1.0000 0.1198910729
H   H115      1.0  0.97094  0.67492  0.59676  1.0000 0.1108859561
H   H116      1.0  0.66554  0.17763  0.65654  1.0000 0.1198910729
H   H117      1.0  0.21249  0.99025  0.67067  1.0000 0.1198910729
H   H118      1.0  0.16619  0.98740  0.58484  1.0000 0.1198910729
H   H119      1.0  0.45582  0.75591  0.57603  1.0000 0.1293446064
H   H120      1.0  0.41105  0.76457  0.66177  1.0000 0.1108859561
H   H121      1.0  0.19729  0.90130  0.58885  1.0000 0.1108859561
H   H122      1.0  0.13639  0.91032  0.59747  1.0000 0.1108859561
H   H123      1.0  0.16619  0.85710  0.60723  1.0000 0.1198910729
H   H124      1.0  0.42918  0.88855  0.64327  1.0000 0.1198910729
H   H125      1.0  0.44310  0.83323  0.65865  1.0000 0.1108859561
H   H126      1.0  0.38277  0.84755  0.65105  1.0000 0.1198910729
H   H127      1.0  0.69035  0.99912  0.66543  1.0000 0.1198910729
H   H128      1.0  0.69902  0.09271  0.66621  1.0000 0.1108859561
H   H129      1.0  0.68890  0.09613  0.57681  1.0000 0.1108859561
H   H130      1.0  0.68022  0.00254  0.57603  1.0000 0.1198910729
H   H131      1.0  0.83984  0.84044  0.65986  1.0000 0.1108859561
H   H132      1.0  0.88553  0.85696  0.68238  1.0000 0.1108859561
H   H133      1.0  0.87068  0.79571  0.67798  1.0000 0.1000124483
H   H134      1.0  0.65536  0.91401  0.58097  1.0000 0.1108859561
H   H135      1.0  0.67220  0.86715  0.60267  1.0000 0.1293446064
H   H136      1.0  0.71580  0.90845  0.59128  1.0000 0.1108859561
H   H137      1.0  0.65667  0.26818  0.33271  1.0000 0.1198910729
H   H138      1.0  0.66316  0.32026  0.41731  1.0000 0.1108859561
H   H139      1.0  0.74571  0.16863  0.26683  1.0000 0.1000124483
H   H140      1.0  0.03099  0.09174  0.29534  1.0000 0.1293446064
H   H141      1.0  0.97127  0.12335  0.26110  1.0000 0.1000124483
H   H142      1.0  0.83453  0.25939  0.34037  1.0000 0.1293446064
H   H143      1.0  0.90173  0.05394  0.34601  1.0000 0.136092845
H   H144      1.0  0.76600  0.35666  0.49232  1.0000 0.1000124483
H   H145      1.0  0.05023  0.44371  0.45751  1.0000 0.1293446064
H   H146      1.0  0.91258  0.48524  0.41605  1.0000 0.1293446064
H   H147      1.0  0.69719  0.20905  0.30406  1.0000 0.1293446064
H   H148      1.0  0.85803  0.55741  0.31385  1.0000 0.1000124483
H   H149      1.0  0.71124  0.33237  0.45412  1.0000 0.1293446064
H   H150      1.0  0.08085  0.08085  0.33406  1.0000 0.1108859561
H   H151      1.0  0.84717  0.08667  0.30829  1.0000 0.1000124483
H   H152      1.0  0.09259  0.01163  0.41430  1.0000 0.1198910729
H   H153      1.0  0.88246  0.21676  0.30251  1.0000 0.1000124483
H   H154      1.0  0.91316  0.01419  0.41323  1.0000 0.136092845
H   H155      1.0  0.89296  0.68559  0.30961  1.0000 0.1000124483
H   H156      1.0  0.08914  0.56211  0.34743  1.0000 0.1108859561
H   H157      1.0  0.89497  0.31587  0.44732  1.0000 0.1000124483
H   H158      1.0  0.99654  0.39882  0.49428  1.0000 0.1000124483
H   H159      1.0  0.71020  0.69466  0.30662  1.0000 0.136092845
H   H160      1.0  0.90873  0.53215  0.35477  1.0000 0.1293446064
H   H161      1.0  0.00626  0.91351  0.48088  1.0000 0.1000124483
H   H162      1.0  0.72396  0.83809  0.45078  1.0000 0.1293446064
H   H163      1.0  0.98847  0.59483  0.26959  1.0000 0.1000124483
H   H164      1.0  0.04150  0.57192  0.30795  1.0000 0.1293446064
H   H165      1.0  0.16738  0.04320  0.32870  1.0000 0.1108859561
H   H166      1.0  0.85114  0.73475  0.34604  1.0000 0.1293446064
H   H167      1.0  0.09172  0.50430  0.43015  1.0000 0.1198910729
H   H168      1.0  0.86343  0.43892  0.45122  1.0000 0.1000124483
H   H169      1.0  0.90556  0.83631  0.44052  1.0000 0.1000124483
H   H170      1.0  0.17085  0.07589  0.41483  1.0000 0.1108859561
H   H171      1.0  0.75902  0.64782  0.27147  1.0000 0.1000124483
H   H172      1.0  0.66938  0.75227  0.33397  1.0000 0.1198910729
H   H173      1.0  0.84223  0.28880  0.40836  1.0000 0.1293446064
H   H174      1.0  0.85675  0.80448  0.40423  1.0000 0.136092845
H   H175      1.0  0.04978  0.95662  0.44153  1.0000 0.1293446064
H   H176      1.0  0.58035  0.32936  0.33252  1.0000 0.1108859561
H   H177      1.0  0.86803  0.96898  0.44754  1.0000 0.1000124483
H   H178      1.0  0.77704  0.87604  0.48652  1.0000 0.1000124483
H   H179      1.0  0.57532  0.28278  0.41710  1.0000 0.1198910729
H   H180      1.0  0.16312  0.57028  0.43319  1.0000 0.1108859561
H   H181      1.0  0.25603  0.58418  0.43502  1.0000 0.1108859561
H   H182      1.0  0.26784  0.54296  0.34859  1.0000 0.1198910729
H   H183      1.0  0.17492  0.52906  0.34676  1.0000 0.1108859561
H   H184      1.0  0.67763  0.83446  0.40654  1.0000 0.1198910729
H   H185      1.0  0.49025  0.28751  0.42067  1.0000 0.1198910729
H   H186      1.0  0.48740  0.33381  0.33484  1.0000 0.1198910729
H   H187      1.0  0.25591  0.04418  0.32603  1.0000 0.1293446064
H   H188      1.0  0.26457  0.08895  0.41177  1.0000 0.1108859561
H   H189      1.0  0.40130  0.30271  0.33885  1.0000 0.1108859561
H   H190      1.0  0.41032  0.36361  0.34747  1.0000 0.1108859561
H   H191      1.0  0.35710  0.33381  0.35723  1.0000 0.1198910729
H   H192      1.0  0.38855  0.07082  0.39327  1.0000 0.1198910729
H   H193      1.0  0.33323  0.05690  0.40865  1.0000 0.1108859561
H   H194      1.0  0.34755  0.11723  0.40105  1.0000 0.1198910729
H   H195      1.0  0.49912  0.80965  0.41543  1.0000 0.1198910729
H   H196      1.0  0.59271  0.80098  0.41621  1.0000 0.1108859561
H   H197      1.0  0.59613  0.81110  0.32681  1.0000 0.1108859561
H   H198      1.0  0.50254  0.81978  0.32603  1.0000 0.1198910729
H   H199      1.0  0.34044  0.66016  0.40986  1.0000 0.1108859561
H   H200      1.0  0.35696  0.61447  0.43238  1.0000 0.1108859561
H   H201      1.0  0.29571  0.62932  0.42798  1.0000 0.1000124483
H   H202      1.0  0.41401  0.84464  0.33097  1.0000 0.1108859561
H   H203      1.0  0.36715  0.82780  0.35267  1.0000 0.1293446064
H   H204      1.0  0.40845  0.78420  0.34128  1.0000 0.1108859561
H   H205      1.0  0.34333  0.73182  0.83271  1.0000 0.1198910729
H   H206      1.0  0.33684  0.67974  0.91731  1.0000 0.1108859561
H   H207      1.0  0.25429  0.83137  0.76683  1.0000 0.1000124483
H   H208      1.0  0.96901  0.90826  0.79534  1.0000 0.1293446064
H   H209      1.0  0.02873  0.87665  0.76110  1.0000 0.1000124483
H   H210      1.0  0.16547  0.74061  0.84037  1.0000 0.1293446064
H   H211      1.0  0.09827  0.94606  0.84601  1.0000 0.136092845
H   H212      1.0  0.23400  0.64334  0.99232  1.0000 0.1000124483
H   H213      1.0  0.94977  0.55629  0.95751  1.0000 0.1293446064
H   H214      1.0  0.08742  0.51476  0.91605  1.0000 0.1293446064
H   H215      1.0  0.30281  0.79095  0.80406  1.0000 0.1293446064
H   H216      1.0  0.14197  0.44259  0.81385  1.0000 0.1000124483
H   H217      1.0  0.28876  0.66763  0.95412  1.0000 0.1293446064
H   H218      1.0  0.91915  0.91915  0.83406  1.0000 0.1108859561
H   H219      1.0  0.15283  0.91333  0.80829  1.0000 0.1000124483
H   H220      1.0  0.90741  0.98837  0.91430  1.0000 0.1198910729
H   H221      1.0  0.11754  0.78324  0.80251  1.0000 0.1000124483
H   H222      1.0  0.08684  0.98581  0.91323  1.0000 0.136092845
H   H223      1.0  0.10704  0.31441  0.80961  1.0000 0.1000124483
H   H224      1.0  0.91086  0.43789  0.84743  1.0000 0.1108859561
H   H225      1.0  0.10503  0.68413  0.94732  1.0000 0.1000124483
H   H226      1.0  0.00346  0.60118  0.99428  1.0000 0.1000124483
H   H227      1.0  0.28980  0.30534  0.80662  1.0000 0.136092845
H   H228      1.0  0.09127  0.46785  0.85477  1.0000 0.1293446064
H   H229      1.0  0.99374  0.08649  0.98088  1.0000 0.1000124483
H   H230      1.0  0.27604  0.16191  0.95078  1.0000 0.1293446064
H   H231      1.0  0.01153  0.40517  0.76959  1.0000 0.1000124483
H   H232      1.0  0.95850  0.42808  0.80795  1.0000 0.1293446064
H   H233      1.0  0.83262  0.95680  0.82870  1.0000 0.1108859561
H   H234      1.0  0.14886  0.26525  0.84604  1.0000 0.1293446064
H   H235      1.0  0.90828  0.49570  0.93015  1.0000 0.1198910729
H   H236      1.0  0.13657  0.56108  0.95122  1.0000 0.1000124483
H   H237      1.0  0.09444  0.16369  0.94052  1.0000 0.1000124483
H   H238      1.0  0.82915  0.92411  0.91483  1.0000 0.1108859561
H   H239      1.0  0.24098  0.35218  0.77147  1.0000 0.1000124483
H   H240      1.0  0.33062  0.24773  0.83397  1.0000 0.1198910729
H   H241      1.0  0.15777  0.71120  0.90836  1.0000 0.1293446064
H   H242      1.0  0.14325  0.19552  0.90423  1.0000 0.136092845
H   H243      1.0  0.95022  0.04338  0.94153  1.0000 0.1293446064
H   H244      1.0  0.41965  0.67064  0.83252  1.0000 0.1108859561
H   H245      1.0  0.13197  0.03102  0.94754  1.0000 0.1000124483
H   H246      1.0  0.22296  0.12396  0.98652  1.0000 0.1000124483
H   H247      1.0  0.42468  0.71722  0.91710  1.0000 0.1198910729
H   H248      1.0  0.83688  0.42972  0.93319  1.0000 0.1108859561
H   H249      1.0  0.74397  0.41582  0.93502  1.0000 0.1108859561
H   H250      1.0  0.73216  0.45704  0.84859  1.0000 0.1198910729
H   H251      1.0  0.82508  0.47094  0.84676  1.0000 0.1108859561
H   H252      1.0  0.32237  0.16554  0.90654  1.0000 0.1198910729
H   H253      1.0  0.50975  0.71249  0.92067  1.0000 0.1198910729
H   H254      1.0  0.51260  0.66619  0.83484  1.0000 0.1198910729
H   H255      1.0  0.74409  0.95582  0.82603  1.0000 0.1293446064
H   H256      1.0  0.73543  0.91105  0.91177  1.0000 0.1108859561
H   H257      1.0  0.59870  0.69729  0.83885  1.0000 0.1108859561
H   H258      1.0  0.58968  0.63639  0.84747  1.0000 0.1108859561
H   H259      1.0  0.64290  0.66619  0.85723  1.0000 0.1198910729
H   H260      1.0  0.61145  0.92918  0.89327  1.0000 0.1198910729
H   H261      1.0  0.66677  0.94310  0.90865  1.0000 0.1108859561
H   H262      1.0  0.65245  0.88277  0.90105  1.0000 0.1198910729
H   H263      1.0  0.50088  0.19035  0.91543  1.0000 0.1198910729
H   H264      1.0  0.40729  0.19902  0.91621  1.0000 0.1108859561
H   H265      1.0  0.40387  0.18890  0.82681  1.0000 0.1108859561
H   H266      1.0  0.49746  0.18022  0.82603  1.0000 0.1198910729
H   H267      1.0  0.65956  0.33984  0.90986  1.0000 0.1108859561
H   H268      1.0  0.64304  0.38553  0.93238  1.0000 0.1108859561
H   H269      1.0  0.70429  0.37068  0.92798  1.0000 0.1000124483
H   H270      1.0  0.58599  0.15536  0.83097  1.0000 0.1198910729
H   H271      1.0  0.63285  0.17220  0.85267  1.0000 0.1293446064
H   H272      1.0  0.59155  0.21580  0.84128  1.0000 0.1108859561
H   H273      1.0  0.73182  0.34333  0.16729  1.0000 0.1198910729
H   H274      1.0  0.67974  0.33684  0.08269  1.0000 0.1108859561
H   H275      1.0  0.83137  0.25429  0.23317  1.0000 0.1000124483
H   H276      1.0  0.90826  0.96901  0.20466  1.0000 0.1293446064
H   H277      1.0  0.87665  0.02873  0.23890  1.0000 0.1000124483
H   H278      1.0  0.74061  0.16547  0.15963  1.0000 0.1293446064
H   H279      1.0  0.94606  0.09827  0.15399  1.0000 0.136092845
H   H280      1.0  0.64334  0.23400  0.00768  1.0000 0.1000124483
H   H281      1.0  0.55629  0.94977  0.04249  1.0000 0.1293446064
H   H282      1.0  0.51476  0.08742  0.08395  1.0000 0.1293446064
H   H283      1.0  0.79095  0.30281  0.19594  1.0000 0.1293446064
H   H284      1.0  0.44259  0.14197  0.18615  1.0000 0.1000124483
H   H285      1.0  0.66763  0.28876  0.04588  1.0000 0.1293446064
H   H286      1.0  0.91915  0.91915  0.16594  1.0000 0.1108859561
H   H287      1.0  0.91333  0.15283  0.19171  1.0000 0.1000124483
H   H288      1.0  0.98837  0.90741  0.08570  1.0000 0.1198910729
H   H289      1.0  0.78324  0.11754  0.19749  1.0000 0.1000124483
H   H290      1.0  0.98581  0.08684  0.08677  1.0000 0.136092845
H   H291      1.0  0.31441  0.10704  0.19039  1.0000 0.1000124483
H   H292      1.0  0.43789  0.91086  0.15257  1.0000 0.1108859561
H   H293      1.0  0.68413  0.10503  0.05268  1.0000 0.1000124483
H   H294      1.0  0.60118  0.00346  0.00572  1.0000 0.1000124483
H   H295      1.0  0.30534  0.28980  0.19338  1.0000 0.136092845
H   H296      1.0  0.46785  0.09127  0.14523  1.0000 0.1293446064
H   H297      1.0  0.08649  0.99374  0.01912  1.0000 0.1000124483
H   H298      1.0  0.16191  0.27604  0.04922  1.0000 0.1293446064
H   H299      1.0  0.40517  0.01153  0.23041  1.0000 0.1000124483
H   H300      1.0  0.42808  0.95850  0.19205  1.0000 0.1293446064
H   H301      1.0  0.95680  0.83262  0.17130  1.0000 0.1108859561
H   H302      1.0  0.26525  0.14886  0.15396  1.0000 0.1293446064
H   H303      1.0  0.49570  0.90828  0.06985  1.0000 0.1198910729
H   H304      1.0  0.56108  0.13657  0.04878  1.0000 0.1000124483
H   H305      1.0  0.16369  0.09444  0.05948  1.0000 0.1000124483
H   H306      1.0  0.92411  0.82915  0.08517  1.0000 0.1108859561
H   H307      1.0  0.35218  0.24098  0.22853  1.0000 0.1000124483
H   H308      1.0  0.24773  0.33062  0.16603  1.0000 0.1198910729
H   H309      1.0  0.71120  0.15777  0.09164  1.0000 0.1293446064
H   H310      1.0  0.19552  0.14325  0.09577  1.0000 0.136092845
H   H311      1.0  0.04338  0.95022  0.05847  1.0000 0.1293446064
H   H312      1.0  0.67064  0.41965  0.16748  1.0000 0.1108859561
H   H313      1.0  0.03102  0.13197  0.05246  1.0000 0.1000124483
H   H314      1.0  0.12396  0.22296  0.01348  1.0000 0.1000124483
H   H315      1.0  0.71722  0.42468  0.08290  1.0000 0.1198910729
H   H316      1.0  0.42972  0.83688  0.06681  1.0000 0.1108859561
H   H317      1.0  0.41582  0.74397  0.06498  1.0000 0.1108859561
H   H318      1.0  0.45704  0.73216  0.15141  1.0000 0.1198910729
H   H319      1.0  0.47094  0.82508  0.15324  1.0000 0.1108859561
H   H320      1.0  0.16554  0.32237  0.09346  1.0000 0.1198910729
H   H321      1.0  0.71249  0.50975  0.07933  1.0000 0.1198910729
H   H322      1.0  0.66619  0.51260  0.16516  1.0000 0.1198910729
H   H323      1.0  0.95582  0.74409  0.17397  1.0000 0.1293446064
H   H324      1.0  0.91105  0.73543  0.08823  1.0000 0.1108859561
H   H325      1.0  0.69729  0.59870  0.16115  1.0000 0.1108859561
H   H326      1.0  0.63639  0.58968  0.15253  1.0000 0.1108859561
H   H327      1.0  0.66619  0.64290  0.14277  1.0000 0.1198910729
H   H328      1.0  0.92918  0.61145  0.10673  1.0000 0.1198910729
H   H329      1.0  0.94310  0.66677  0.09135  1.0000 0.1108859561
H   H330      1.0  0.88277  0.65245  0.09895  1.0000 0.1198910729
H   H331      1.0  0.19035  0.50088  0.08457  1.0000 0.1198910729
H   H332      1.0  0.19902  0.40729  0.08379  1.0000 0.1108859561
H   H333      1.0  0.18890  0.40387  0.17319  1.0000 0.1108859561
H   H334      1.0  0.18022  0.49746  0.17397  1.0000 0.1198910729
H   H335      1.0  0.33984  0.65956  0.09014  1.0000 0.1108859561
H   H336      1.0  0.38553  0.64304  0.06762  1.0000 0.1108859561
H   H337      1.0  0.37068  0.70429  0.07202  1.0000 0.1000124483
H   H338      1.0  0.15536  0.58599  0.16903  1.0000 0.1108859561
H   H339      1.0  0.17220  0.63285  0.14733  1.0000 0.1293446064
H   H340      1.0  0.21580  0.59155  0.15872  1.0000 0.1108859561
H   H341      1.0  0.26818  0.65667  0.66729  1.0000 0.1198910729
H   H342      1.0  0.32026  0.66316  0.58269  1.0000 0.1108859561
H   H343      1.0  0.16863  0.74571  0.73317  1.0000 0.1000124483
H   H344      1.0  0.09174  0.03099  0.70466  1.0000 0.1293446064
H   H345      1.0  0.12335  0.97127  0.73890  1.0000 0.1000124483
H   H346      1.0  0.25939  0.83453  0.65963  1.0000 0.1293446064
H   H347      1.0  0.05394  0.90173  0.65399  1.0000 0.136092845
H   H348      1.0  0.35666  0.76600  0.50768  1.0000 0.1000124483
H   H349      1.0  0.44371  0.05023  0.54249  1.0000 0.1293446064
H   H350      1.0  0.48524  0.91258  0.58395  1.0000 0.1293446064
H   H351      1.0  0.20905  0.69719  0.69594  1.0000 0.1293446064
H   H352      1.0  0.55741  0.85803  0.68615  1.0000 0.1000124483
H   H353      1.0  0.33237  0.71124  0.54588  1.0000 0.1293446064
H   H354      1.0  0.08085  0.08085  0.66594  1.0000 0.1108859561
H   H355      1.0  0.08667  0.84717  0.69171  1.0000 0.1000124483
H   H356      1.0  0.01163  0.09259  0.58570  1.0000 0.1198910729
H   H357      1.0  0.21676  0.88246  0.69749  1.0000 0.1000124483
H   H358      1.0  0.01419  0.91316  0.58677  1.0000 0.136092845
H   H359      1.0  0.68559  0.89296  0.69039  1.0000 0.1000124483
H   H360      1.0  0.56211  0.08914  0.65257  1.0000 0.1108859561
H   H361      1.0  0.31587  0.89497  0.55268  1.0000 0.1000124483
H   H362      1.0  0.39882  0.99654  0.50572  1.0000 0.1000124483
H   H363      1.0  0.69466  0.71020  0.69338  1.0000 0.136092845
H   H364      1.0  0.53215  0.90873  0.64523  1.0000 0.1293446064
H   H365      1.0  0.91351  0.00626  0.51912  1.0000 0.1000124483
H   H366      1.0  0.83809  0.72396  0.54922  1.0000 0.1293446064
H   H367      1.0  0.59483  0.98847  0.73041  1.0000 0.1000124483
H   H368      1.0  0.57192  0.04150  0.69205  1.0000 0.1293446064
H   H369      1.0  0.04320  0.16738  0.67130  1.0000 0.1108859561
H   H370      1.0  0.73475  0.85114  0.65396  1.0000 0.1293446064
H   H371      1.0  0.50430  0.09172  0.56985  1.0000 0.1198910729
H   H372      1.0  0.43892  0.86343  0.54878  1.0000 0.1000124483
H   H373      1.0  0.83631  0.90556  0.55948  1.0000 0.1000124483
H   H374      1.0  0.07589  0.17085  0.58517  1.0000 0.1108859561
H   H375      1.0  0.64782  0.75902  0.72853  1.0000 0.1000124483
H   H376      1.0  0.75227  0.66938  0.66603  1.0000 0.1198910729
H   H377      1.0  0.28880  0.84223  0.59164  1.0000 0.1293446064
H   H378      1.0  0.80448  0.85675  0.59577  1.0000 0.136092845
H   H379      1.0  0.95662  0.04978  0.55847  1.0000 0.1293446064
H   H380      1.0  0.32936  0.58035  0.66748  1.0000 0.1108859561
H   H381      1.0  0.96898  0.86803  0.55246  1.0000 0.1000124483
H   H382      1.0  0.87604  0.77704  0.51348  1.0000 0.1000124483
H   H383      1.0  0.28278  0.57532  0.58290  1.0000 0.1198910729
H   H384      1.0  0.57028  0.16312  0.56681  1.0000 0.1108859561
H   H385      1.0  0.58418  0.25603  0.56498  1.0000 0.1108859561
H   H386      1.0  0.54296  0.26784  0.65141  1.0000 0.1198910729
H   H387      1.0  0.52906  0.17492  0.65324  1.0000 0.1108859561
H   H388      1.0  0.83446  0.67763  0.59346  1.0000 0.1198910729
H   H389      1.0  0.28751  0.49025  0.57933  1.0000 0.1198910729
H   H390      1.0  0.33381  0.48740  0.66516  1.0000 0.1198910729
H   H391      1.0  0.04418  0.25591  0.67397  1.0000 0.1293446064
H   H392      1.0  0.08895  0.26457  0.58823  1.0000 0.1108859561
H   H393      1.0  0.30271  0.40130  0.66115  1.0000 0.1108859561
H   H394      1.0  0.36361  0.41032  0.65253  1.0000 0.1108859561
H   H395      1.0  0.33381  0.35710  0.64277  1.0000 0.1198910729
H   H396      1.0  0.07082  0.38855  0.60673  1.0000 0.1198910729
H   H397      1.0  0.05690  0.33323  0.59135  1.0000 0.1108859561
H   H398      1.0  0.11723  0.34755  0.59895  1.0000 0.1198910729
H   H399      1.0  0.80965  0.49912  0.58457  1.0000 0.1198910729
H   H400      1.0  0.80098  0.59271  0.58379  1.0000 0.1108859561
H   H401      1.0  0.81110  0.59613  0.67319  1.0000 0.1108859561
H   H402      1.0  0.81978  0.50254  0.67397  1.0000 0.1198910729
H   H403      1.0  0.66016  0.34044  0.59014  1.0000 0.1108859561
H   H404      1.0  0.61447  0.35696  0.56762  1.0000 0.1108859561
H   H405      1.0  0.62932  0.29571  0.57202  1.0000 0.1000124483
H   H406      1.0  0.84464  0.41401  0.66903  1.0000 0.1198910729
H   H407      1.0  0.82780  0.36715  0.64733  1.0000 0.1293446064
H   H408      1.0  0.78420  0.40845  0.65872  1.0000 0.1108859561
H   H409      1.0  0.84333  0.76818  0.91729  1.0000 0.1198910729
H   H410      1.0  0.83684  0.82026  0.83269  1.0000 0.1108859561
H   H411      1.0  0.75429  0.66863  0.98317  1.0000 0.1000124483
H   H412      1.0  0.46901  0.59174  0.95466  1.0000 0.1293446064
H   H413      1.0  0.52873  0.62335  0.98890  1.0000 0.1000124483
H   H414      1.0  0.66547  0.75939  0.90963  1.0000 0.1293446064
H   H415      1.0  0.59827  0.55394  0.90399  1.0000 0.136092845
H   H416      1.0  0.73400  0.85666  0.75768  1.0000 0.1000124483
H   H417      1.0  0.44977  0.94371  0.79249  1.0000 0.1293446064
H   H418      1.0  0.58742  0.98524  0.83395  1.0000 0.1293446064
H   H419      1.0  0.80281  0.70905  0.94594  1.0000 0.1293446064
H   H420      1.0  0.64197  0.05741  0.93615  1.0000 0.1000124483
H   H421      1.0  0.78876  0.83237  0.79588  1.0000 0.1293446064
H   H422      1.0  0.41915  0.58085  0.91594  1.0000 0.1108859561
H   H423      1.0  0.65283  0.58667  0.94171  1.0000 0.1000124483
H   H424      1.0  0.40741  0.51163  0.83570  1.0000 0.1198910729
H   H425      1.0  0.61754  0.71676  0.94749  1.0000 0.1000124483
H   H426      1.0  0.58684  0.51419  0.83677  1.0000 0.136092845
H   H427      1.0  0.60704  0.18559  0.94039  1.0000 0.1000124483
H   H428      1.0  0.41086  0.06211  0.90257  1.0000 0.1108859561
H   H429      1.0  0.60503  0.81587  0.80268  1.0000 0.1000124483
H   H430      1.0  0.50346  0.89882  0.75572  1.0000 0.1000124483
H   H431      1.0  0.78980  0.19466  0.94338  1.0000 0.136092845
H   H432      1.0  0.59127  0.03215  0.89523  1.0000 0.1293446064
H   H433      1.0  0.49374  0.41351  0.76912  1.0000 0.1000124483
H   H434      1.0  0.77604  0.33809  0.79922  1.0000 0.1293446064
H   H435      1.0  0.51153  0.09483  0.98041  1.0000 0.1000124483
H   H436      1.0  0.45850  0.07192  0.94205  1.0000 0.1293446064
H   H437      1.0  0.33262  0.54320  0.92130  1.0000 0.1108859561
H   H438      1.0  0.64886  0.23475  0.90396  1.0000 0.1293446064
H   H439      1.0  0.40828  0.00430  0.81985  1.0000 0.1198910729
H   H440      1.0  0.63657  0.93892  0.79878  1.0000 0.1000124483
H   H441      1.0  0.59444  0.33631  0.80948  1.0000 0.1000124483
H   H442      1.0  0.32915  0.57589  0.83517  1.0000 0.1108859561
H   H443      1.0  0.74098  0.14782  0.97853  1.0000 0.1000124483
H   H444      1.0  0.83062  0.25227  0.91603  1.0000 0.1198910729
H   H445      1.0  0.65777  0.78880  0.84164  1.0000 0.1293446064
H   H446      1.0  0.64325  0.30448  0.84577  1.0000 0.136092845
H   H447      1.0  0.45022  0.45662  0.80847  1.0000 0.1293446064
H   H448      1.0  0.91965  0.82936  0.91748  1.0000 0.1108859561
H   H449      1.0  0.63197  0.46898  0.80246  1.0000 0.1000124483
H   H450      1.0  0.72296  0.37604  0.76348  1.0000 0.1000124483
H   H451      1.0  0.92468  0.78278  0.83290  1.0000 0.1198910729
H   H452      1.0  0.33688  0.07028  0.81681  1.0000 0.1108859561
H   H453      1.0  0.24397  0.08418  0.81498  1.0000 0.1108859561
H   H454      1.0  0.23216  0.04296  0.90141  1.0000 0.1198910729
H   H455      1.0  0.32508  0.02906  0.90324  1.0000 0.1108859561
H   H456      1.0  0.82237  0.33446  0.84346  1.0000 0.1198910729
H   H457      1.0  0.00975  0.78751  0.82933  1.0000 0.1198910729
H   H458      1.0  0.01260  0.83381  0.91516  1.0000 0.1198910729
H   H459      1.0  0.24409  0.54418  0.92397  1.0000 0.1293446064
H   H460      1.0  0.23543  0.58895  0.83823  1.0000 0.1108859561
H   H461      1.0  0.09870  0.80271  0.91115  1.0000 0.1108859561
H   H462      1.0  0.08968  0.86361  0.90253  1.0000 0.1108859561
H   H463      1.0  0.14290  0.83381  0.89277  1.0000 0.1198910729
H   H464      1.0  0.11145  0.57082  0.85673  1.0000 0.1198910729
H   H465      1.0  0.16677  0.55690  0.84135  1.0000 0.1108859561
H   H466      1.0  0.15245  0.61723  0.84895  1.0000 0.1198910729
H   H467      1.0  0.00088  0.30965  0.83457  1.0000 0.1198910729
H   H468      1.0  0.90729  0.30098  0.83379  1.0000 0.1108859561
H   H469      1.0  0.90387  0.31110  0.92319  1.0000 0.1108859561
H   H470      1.0  0.99746  0.31978  0.92397  1.0000 0.1198910729
H   H471      1.0  0.15956  0.16016  0.84014  1.0000 0.1108859561
H   H472      1.0  0.14304  0.11447  0.81762  1.0000 0.1108859561
H   H473      1.0  0.20429  0.12932  0.82202  1.0000 0.1000124483
H   H474      1.0  0.08599  0.34464  0.91903  1.0000 0.1108859561
H   H475      1.0  0.13285  0.32780  0.89733  1.0000 0.1293446064
H   H476      1.0  0.09155  0.28420  0.90872  1.0000 0.1108859561
H   H477      1.0  0.15667  0.23182  0.41729  1.0000 0.1198910729
H   H478      1.0  0.16316  0.17974  0.33269  1.0000 0.1108859561
H   H479      1.0  0.24571  0.33137  0.48317  1.0000 0.1000124483
H   H480      1.0  0.53099  0.40826  0.45466  1.0000 0.1293446064
H   H481      1.0  0.47127  0.37665  0.48890  1.0000 0.1000124483
H   H482      1.0  0.33453  0.24061  0.40963  1.0000 0.1293446064
H   H483      1.0  0.40173  0.44606  0.40399  1.0000 0.136092845
H   H484      1.0  0.26600  0.14334  0.25768  1.0000 0.1000124483
H   H485      1.0  0.55023  0.05629  0.29249  1.0000 0.1293446064
H   H486      1.0  0.41258  0.01476  0.33395  1.0000 0.1293446064
H   H487      1.0  0.19719  0.29095  0.44594  1.0000 0.1293446064
H   H488      1.0  0.35803  0.94259  0.43615  1.0000 0.1000124483
H   H489      1.0  0.21124  0.16763  0.29588  1.0000 0.1293446064
H   H490      1.0  0.58085  0.41915  0.41594  1.0000 0.1108859561
H   H491      1.0  0.34717  0.41333  0.44171  1.0000 0.1000124483
H   H492      1.0  0.59259  0.48837  0.33570  1.0000 0.1198910729
H   H493      1.0  0.38246  0.28324  0.44749  1.0000 0.1000124483
H   H494      1.0  0.41316  0.48581  0.33677  1.0000 0.136092845
H   H495      1.0  0.39296  0.81441  0.44039  1.0000 0.1000124483
H   H496      1.0  0.58914  0.93789  0.40257  1.0000 0.1108859561
H   H497      1.0  0.39497  0.18413  0.30268  1.0000 0.1000124483
H   H498      1.0  0.49654  0.10118  0.25572  1.0000 0.1000124483
H   H499      1.0  0.21020  0.80534  0.44338  1.0000 0.136092845
H   H500      1.0  0.40873  0.96785  0.39523  1.0000 0.1293446064
H   H501      1.0  0.50626  0.58649  0.26912  1.0000 0.1000124483
H   H502      1.0  0.22396  0.66191  0.29922  1.0000 0.1293446064
H   H503      1.0  0.48847  0.90517  0.48041  1.0000 0.1000124483
H   H504      1.0  0.54150  0.92808  0.44205  1.0000 0.1293446064
H   H505      1.0  0.66738  0.45680  0.42130  1.0000 0.1108859561
H   H506      1.0  0.35114  0.76525  0.40396  1.0000 0.1293446064
H   H507      1.0  0.59172  0.99570  0.31985  1.0000 0.1198910729
H   H508      1.0  0.36343  0.06108  0.29878  1.0000 0.1000124483
H   H509      1.0  0.40556  0.66369  0.30948  1.0000 0.1000124483
H   H510      1.0  0.67085  0.42411  0.33517  1.0000 0.1108859561
H   H511      1.0  0.25902  0.85218  0.47853  1.0000 0.1000124483
H   H512      1.0  0.16938  0.74773  0.41603  1.0000 0.1198910729
H   H513      1.0  0.34223  0.21120  0.34164  1.0000 0.1293446064
H   H514      1.0  0.35675  0.69552  0.34577  1.0000 0.136092845
H   H515      1.0  0.54978  0.54338  0.30847  1.0000 0.1293446064
H   H516      1.0  0.08035  0.17064  0.41748  1.0000 0.1108859561
H   H517      1.0  0.36803  0.53102  0.30246  1.0000 0.1000124483
H   H518      1.0  0.27704  0.62396  0.26348  1.0000 0.1000124483
H   H519      1.0  0.07532  0.21722  0.33290  1.0000 0.1198910729
H   H520      1.0  0.66312  0.92972  0.31681  1.0000 0.1108859561
H   H521      1.0  0.75603  0.91582  0.31498  1.0000 0.1108859561
H   H522      1.0  0.76784  0.95704  0.40141  1.0000 0.1198910729
H   H523      1.0  0.67492  0.97094  0.40324  1.0000 0.1108859561
H   H524      1.0  0.17763  0.66554  0.34346  1.0000 0.1198910729
H   H525      1.0  0.99025  0.21249  0.32933  1.0000 0.1198910729
H   H526      1.0  0.98740  0.16619  0.41516  1.0000 0.1198910729
H   H527      1.0  0.75591  0.45582  0.42397  1.0000 0.1293446064
H   H528      1.0  0.76457  0.41105  0.33823  1.0000 0.1108859561
H   H529      1.0  0.90130  0.19729  0.41115  1.0000 0.1108859561
H   H530      1.0  0.91032  0.13639  0.40253  1.0000 0.1108859561
H   H531      1.0  0.85710  0.16619  0.39277  1.0000 0.1198910729
H   H532      1.0  0.88855  0.42918  0.35673  1.0000 0.1198910729
H   H533      1.0  0.83323  0.44310  0.34135  1.0000 0.1108859561
H   H534      1.0  0.84755  0.38277  0.34895  1.0000 0.1198910729
H   H535      1.0  0.99912  0.69035  0.33457  1.0000 0.1198910729
H   H536      1.0  0.09271  0.69902  0.33379  1.0000 0.1108859561
H   H537      1.0  0.09613  0.68890  0.42319  1.0000 0.1108859561
H   H538      1.0  0.00254  0.68022  0.42397  1.0000 0.1198910729
H   H539      1.0  0.84044  0.83984  0.34014  1.0000 0.1108859561
H   H540      1.0  0.85696  0.88553  0.31762  1.0000 0.1108859561
H   H541      1.0  0.79571  0.87068  0.32202  1.0000 0.1000124483
H   H542      1.0  0.91401  0.65536  0.41903  1.0000 0.1198910729
H   H543      1.0  0.86715  0.67220  0.39733  1.0000 0.1293446064
H   H544      1.0  0.90845  0.71580  0.40872  1.0000 0.1108859561
C   C1        1.0  0.77450  0.82460  0.10040  1.0000 -0.2551049855
C   C2        1.0  0.80620  0.82070  0.15030  1.0000 -0.2666499581
C   C3        1.0  0.68620  0.73560  0.03200  1.0000 0.0285912842
C   C4        1.0  0.73830  0.73900  0.07640  1.0000 0.0814836488
C   C5        1.0  0.59110  0.50600  0.04930  1.0000 -0.2112222605
C   C6        1.0  0.60890  0.54250  0.02870  1.0000 0.0285912842
C   C7        1.0  0.74050  0.68410  0.07560  1.0000 -0.1918968042
C   C8        1.0  0.56880  0.58240  0.07910  1.0000 -0.199005199
C   C9        1.0  0.84320  0.71820  0.22500  1.0000 0.0285912842
C   C10       1.0  0.76300  0.76830  0.10220  1.0000 0.2094846699
C   C11       1.0  0.94350  0.48730  0.20600  1.0000 -0.219593888
C   C12       1.0  0.99680  0.48170  0.15790  1.0000 0.2203635858
C   C13       1.0  0.96750  0.56950  0.18150  1.0000 -0.178017598
C   C14       1.0  0.51710  0.48200  0.14680  1.0000 0.1815209921
C   C15       1.0  0.79560  0.76460  0.14960  1.0000 0.2094846699
C   C16       1.0  0.71100  0.76520  0.05420  1.0000 -0.199005199
C   C17       1.0  0.06150  0.60450  0.06310  1.0000 0.0482770286
C   C18       1.0  0.54750  0.40250  0.12410  1.0000 0.1108859561
C   C19       1.0  0.82910  0.75140  0.20210  1.0000 -0.199005199
C   C20       1.0  0.56380  0.43440  0.10050  1.0000 -0.2666499581
C   C21       1.0  0.58800  0.61540  0.05590  1.0000 0.0715716664
C   C22       1.0  0.52340  0.42730  0.14790  1.0000 -0.2305503156
C   C23       1.0  0.71440  0.65510  0.05270  1.0000 0.0612460048
C   C24       1.0  0.81030  0.73000  0.17610  1.0000 0.090147285
C   C25       1.0  0.49290  0.56730  0.17650  1.0000 -0.2112222605
C   C26       1.0  0.18760  0.64470  0.05910  1.0000 0.0612460048
C   C27       1.0  0.80060  0.91060  0.12450  1.0000 0.0285912842
C   C28       1.0  0.04530  0.42800  0.11340  1.0000 -0.2400851533
C   C29       1.0  0.81910  0.64250  0.19880  1.0000 0.0399950077
C   C30       1.0  0.91550  0.52020  0.22810  1.0000 0.0715716664
C   C31       1.0  0.19450  0.75210  0.05720  1.0000 -0.178017598
C   C32       1.0  0.04490  0.57430  0.08760  1.0000 -0.1918968042
C   C33       1.0  0.96940  0.51270  0.18290  1.0000 0.0814836488
C   C34       1.0  0.04800  0.51750  0.08590  1.0000 0.090147285
C   C35       1.0  0.43330  0.51350  0.21700  1.0000 0.0482770286
C   C36       1.0  0.55410  0.49050  0.10190  1.0000 0.2094846699
C   C37       1.0  0.03230  0.48360  0.11200  1.0000 0.1815209921
C   C38       1.0  0.33900  0.73870  0.19790  1.0000 -0.2112222605
C   C39       1.0  0.08350  0.52800  0.03720  1.0000 0.0399950077
C   C40       1.0  0.06850  0.49590  0.05980  1.0000 -0.1918968042
C   C41       1.0  0.54950  0.31320  0.09610  1.0000 -0.134386253
C   C42       1.0  0.03290  0.39970  0.13880  1.0000 0.1108859561
C   C43       1.0  0.21820  0.66820  0.08070  1.0000 -0.219593888
C   C44       1.0  0.01050  0.42580  0.16210  1.0000 -0.2551049855
C   C45       1.0  0.79530  0.85150  0.12500  1.0000 0.1000124483
C   C46       1.0  0.93980  0.59900  0.20260  1.0000 0.0399950077
C   C47       1.0  0.33710  0.63190  0.19250  1.0000 0.0399950077
C   C48       1.0  0.57040  0.31130  0.14680  1.0000 -0.1598359952
C   C49       1.0  0.16530  0.72250  0.03680  1.0000 0.0209251636
C   C50       1.0  0.26660  0.81070  0.09970  1.0000 -0.2465733018
C   C51       1.0  0.31890  0.71800  0.17150  1.0000 0.1108859561
C   C52       1.0  0.57160  0.52610  0.07700  1.0000 0.090147285
C   C53       1.0  0.49060  0.51180  0.17320  1.0000 0.090147285
C   C54       1.0  0.80370  0.67390  0.17520  1.0000 -0.1918968042
C   C55       1.0  0.31860  0.66070  0.17090  1.0000 -0.1918968042
C   C56       1.0  0.46050  0.48760  0.19310  1.0000 -0.199005199
C   C57       1.0  0.81930  0.93800  0.09980  1.0000 -0.1598359952
C   C58       1.0  0.46700  0.59430  0.19740  1.0000 0.0285912842
C   C59       1.0  0.55460  0.34150  0.12160  1.0000 0.0285912842
C   C60       1.0  0.25770  0.75610  0.10180  1.0000 0.1815209921
C   C61       1.0  0.36000  0.70710  0.21990  1.0000 0.0399950077
C   C62       1.0  0.79200  0.94340  0.14990  1.0000 -0.1222945716
C   C63       1.0  0.29610  0.83460  0.12060  1.0000 0.1000124483
C   C64       1.0  0.22210  0.72560  0.07760  1.0000 0.090147285
C   C65       1.0  0.04830  0.34020  0.13980  1.0000 0.0482770286
C   C66       1.0  0.06480  0.31590  0.16620  1.0000 -0.1598359952
C   C67       1.0  0.07310  0.26020  0.16730  1.0000 -0.199005199
C   C68       1.0  0.06490  0.22890  0.14200  1.0000 0.2294715118
C   C69       1.0  0.04840  0.25320  0.11550  1.0000 -0.219593888
C   C70       1.0  0.04010  0.30880  0.11440  1.0000 -0.151830419
C   C71       1.0  0.31250  0.80590  0.14230  1.0000 -0.2112222605
C   C72       1.0  0.30000  0.75290  0.14610  1.0000 0.1616679315
C   C73       1.0  0.79480  0.99250  0.15270  1.0000 -0.151830419
C   C74       1.0  0.81010  0.02200  0.12600  1.0000 0.1815209921
C   C75       1.0  0.82240  0.99360  0.10160  1.0000 -0.2112222605
C   C76       1.0  0.55260  0.26080  0.09400  1.0000 -0.1749393906
C   C77       1.0  0.56730  0.23110  0.11680  1.0000 0.1989932839
C   C78       1.0  0.57790  0.25560  0.14540  1.0000 -0.219593888
C   C79       1.0  0.82970  0.10470  0.10390  1.0000 -0.2400851533
C   C80       1.0  0.58030  0.14910  0.14460  1.0000 -0.2465733018
C   C81       1.0  0.31560  0.00850  0.12060  1.0000 0.2094846699
C   C82       1.0  0.30990  0.98140  0.14770  1.0000 -0.219593888
C   C83       1.0  0.30470  0.92540  0.14810  1.0000 -0.1598359952
C   C84       1.0  0.30520  0.89630  0.12160  1.0000 0.0612460048
C   C85       1.0  0.31080  0.92330  0.09460  1.0000 -0.151830419
C   C86       1.0  0.31600  0.97940  0.09410  1.0000 -0.219593888
C   C87       1.0  0.12580  0.16990  0.16820  1.0000 -0.2465733018
C   C88       1.0  0.32130  0.09580  0.09720  1.0000 -0.2305503156
C   C89       1.0  0.22550  0.17540  0.60040  1.0000 -0.2551049855
C   C90       1.0  0.19380  0.17930  0.65030  1.0000 -0.2666499581
C   C91       1.0  0.31380  0.26440  0.53200  1.0000 0.0285912842
C   C92       1.0  0.26170  0.26100  0.57640  1.0000 0.0814836488
C   C93       1.0  0.40890  0.49400  0.54930  1.0000 -0.2112222605
C   C94       1.0  0.39110  0.45750  0.52870  1.0000 0.0285912842
C   C95       1.0  0.25950  0.31590  0.57560  1.0000 -0.1918968042
C   C96       1.0  0.43120  0.41760  0.57910  1.0000 -0.199005199
C   C97       1.0  0.15680  0.28180  0.72500  1.0000 0.0285912842
C   C98       1.0  0.23700  0.23170  0.60220  1.0000 0.2094846699
C   C99       1.0  0.05650  0.51270  0.70600  1.0000 -0.219593888
C   C100      1.0  0.00320  0.51830  0.65790  1.0000 0.2203635858
C   C101      1.0  0.03250  0.43050  0.68150  1.0000 -0.178017598
C   C102      1.0  0.48290  0.51800  0.64680  1.0000 0.1815209921
C   C103      1.0  0.20440  0.23540  0.64960  1.0000 0.2094846699
C   C104      1.0  0.28900  0.23480  0.55420  1.0000 -0.199005199
C   C105      1.0  0.93850  0.39550  0.56310  1.0000 0.0482770286
C   C106      1.0  0.45250  0.59750  0.62410  1.0000 0.1108859561
C   C107      1.0  0.17090  0.24860  0.70210  1.0000 -0.199005199
C   C108      1.0  0.43620  0.56560  0.60050  1.0000 -0.2666499581
C   C109      1.0  0.41200  0.38460  0.55590  1.0000 0.0715716664
C   C110      1.0  0.47660  0.57270  0.64790  1.0000 -0.2305503156
C   C111      1.0  0.28560  0.34490  0.55270  1.0000 0.0612460048
C   C112      1.0  0.18970  0.27000  0.67610  1.0000 0.090147285
C   C113      1.0  0.50710  0.43270  0.67650  1.0000 -0.2112222605
C   C114      1.0  0.81240  0.35530  0.55910  1.0000 0.0612460048
C   C115      1.0  0.19940  0.08940  0.62450  1.0000 0.0285912842
C   C116      1.0  0.95470  0.57200  0.61340  1.0000 -0.2400851533
C   C117      1.0  0.18090  0.35750  0.69880  1.0000 0.0399950077
C   C118      1.0  0.08450  0.47980  0.72810  1.0000 0.0715716664
C   C119      1.0  0.80550  0.24790  0.55720  1.0000 -0.178017598
C   C120      1.0  0.95510  0.42570  0.58760  1.0000 -0.1918968042
C   C121      1.0  0.03060  0.48730  0.68290  1.0000 0.0814836488
C   C122      1.0  0.95200  0.48250  0.58590  1.0000 0.090147285
C   C123      1.0  0.56670  0.48650  0.71700  1.0000 0.0482770286
C   C124      1.0  0.44590  0.50950  0.60190  1.0000 0.2094846699
C   C125      1.0  0.96770  0.51640  0.61200  1.0000 0.1854159121
C   C126      1.0  0.66100  0.26130  0.69790  1.0000 -0.2112222605
C   C127      1.0  0.91650  0.47200  0.53720  1.0000 0.0399950077
C   C128      1.0  0.93150  0.50410  0.55980  1.0000 -0.1918968042
C   C129      1.0  0.45050  0.68680  0.59610  1.0000 -0.134386253
C   C130      1.0  0.96710  0.60030  0.63880  1.0000 0.1108859561
C   C131      1.0  0.78180  0.33180  0.58070  1.0000 -0.219593888
C   C132      1.0  0.98950  0.57420  0.66210  1.0000 -0.2551049855
C   C133      1.0  0.20470  0.14850  0.62500  1.0000 0.1000124483
C   C134      1.0  0.06020  0.40100  0.70260  1.0000 0.0399950077
C   C135      1.0  0.66290  0.36810  0.69250  1.0000 0.0399950077
C   C136      1.0  0.42960  0.68870  0.64680  1.0000 -0.1598359952
C   C137      1.0  0.83470  0.27750  0.53680  1.0000 0.0209251636
C   C138      1.0  0.73340  0.18930  0.59970  1.0000 -0.2465733018
C   C139      1.0  0.68110  0.28200  0.67150  1.0000 0.1108859561
C   C140      1.0  0.42840  0.47390  0.57700  1.0000 0.090147285
C   C141      1.0  0.50940  0.48820  0.67320  1.0000 0.090147285
C   C142      1.0  0.19630  0.32610  0.67520  1.0000 -0.1918968042
C   C143      1.0  0.68140  0.33930  0.67090  1.0000 -0.1918968042
C   C144      1.0  0.53950  0.51240  0.69310  1.0000 -0.199005199
C   C145      1.0  0.18070  0.06200  0.59980  1.0000 -0.1598359952
C   C146      1.0  0.53300  0.40570  0.69740  1.0000 0.0285912842
C   C147      1.0  0.44540  0.65850  0.62160  1.0000 0.0285912842
C   C148      1.0  0.74230  0.24390  0.60180  1.0000 0.1815209921
C   C149      1.0  0.64000  0.29290  0.71990  1.0000 0.0399950077
C   C150      1.0  0.20800  0.05660  0.64990  1.0000 -0.1222945716
C   C151      1.0  0.70390  0.16540  0.62060  1.0000 0.1000124483
C   C152      1.0  0.77790  0.27440  0.57760  1.0000 0.090147285
C   C153      1.0  0.95170  0.65980  0.63980  1.0000 0.0482770286
C   C154      1.0  0.93520  0.68410  0.66620  1.0000 -0.1598359952
C   C155      1.0  0.92690  0.73980  0.66730  1.0000 -0.199005199
C   C156      1.0  0.93510  0.77110  0.64200  1.0000 0.2294715118
C   C157      1.0  0.95160  0.74680  0.61550  1.0000 -0.219593888
C   C158      1.0  0.95990  0.69120  0.61440  1.0000 -0.151830419
C   C159      1.0  0.68750  0.19410  0.64230  1.0000 -0.2112222605
C   C160      1.0  0.70000  0.24710  0.64610  1.0000 0.1616679315
C   C161      1.0  0.20520  0.00750  0.65270  1.0000 -0.151830419
C   C162      1.0  0.18990  0.97800  0.62600  1.0000 0.1815209921
C   C163      1.0  0.17760  0.00640  0.60160  1.0000 -0.2112222605
C   C164      1.0  0.44740  0.73920  0.59400  1.0000 -0.1749393906
C   C165      1.0  0.43270  0.76890  0.61680  1.0000 0.1989932839
C   C166      1.0  0.42210  0.74440  0.64540  1.0000 -0.219593888
C   C167      1.0  0.17030  0.89530  0.60390  1.0000 -0.2400851533
C   C168      1.0  0.41970  0.85090  0.64460  1.0000 -0.2465733018
C   C169      1.0  0.68440  0.99150  0.62060  1.0000 0.2094846699
C   C170      1.0  0.69010  0.01860  0.64770  1.0000 -0.2112222605
C   C171      1.0  0.69530  0.07460  0.64810  1.0000 -0.1598359952
C   C172      1.0  0.69480  0.10370  0.62160  1.0000 0.0612460048
C   C173      1.0  0.68920  0.07670  0.59460  1.0000 -0.151830419
C   C174      1.0  0.68400  0.02060  0.59410  1.0000 -0.219593888
C   C175      1.0  0.87420  0.83010  0.66820  1.0000 -0.2465733018
C   C176      1.0  0.67870  0.90420  0.59720  1.0000 -0.2305503156
C   C177      1.0  0.67540  0.27450  0.35040  1.0000 -0.2551049855
C   C178      1.0  0.67930  0.30620  0.40030  1.0000 -0.2666499581
C   C179      1.0  0.76440  0.18620  0.28200  1.0000 0.0285912842
C   C180      1.0  0.76100  0.23830  0.32640  1.0000 0.0814836488
C   C181      1.0  0.99400  0.09110  0.29930  1.0000 -0.2112222605
C   C182      1.0  0.95750  0.10890  0.27870  1.0000 0.0285912842
C   C183      1.0  0.81590  0.24050  0.32560  1.0000 -0.1918968042
C   C184      1.0  0.91760  0.06880  0.32910  1.0000 -0.199005199
C   C185      1.0  0.78180  0.34320  0.47500  1.0000 0.0285912842
C   C186      1.0  0.73170  0.26300  0.35220  1.0000 0.2094846699
C   C187      1.0  0.01270  0.44350  0.45600  1.0000 -0.219593888
C   C188      1.0  0.01830  0.49680  0.40790  1.0000 0.2203635858
C   C189      1.0  0.93050  0.46750  0.43150  1.0000 -0.178017598
C   C190      1.0  0.01800  0.01710  0.39680  1.0000 0.1815209921
C   C191      1.0  0.73540  0.29560  0.39960  1.0000 0.2094846699
C   C192      1.0  0.73480  0.21100  0.30420  1.0000 -0.199005199
C   C193      1.0  0.89550  0.56150  0.31310  1.0000 0.0482770286
C   C194      1.0  0.09750  0.04750  0.37410  1.0000 0.1108859561
C   C195      1.0  0.74860  0.32910  0.45210  1.0000 -0.199005199
C   C196      1.0  0.06560  0.06380  0.35050  1.0000 -0.2666499581
C   C197      1.0  0.88460  0.08800  0.30590  1.0000 0.0715716664
C   C198      1.0  0.07270  0.02340  0.39790  1.0000 -0.2305503156
C   C199      1.0  0.84490  0.21440  0.30270  1.0000 0.0612460048
C   C200      1.0  0.77000  0.31030  0.42610  1.0000 0.090147285
C   C201      1.0  0.93270  0.99290  0.42650  1.0000 -0.2112222605
C   C202      1.0  0.85530  0.68760  0.30910  1.0000 0.0612460048
C   C203      1.0  0.58940  0.30060  0.37450  1.0000 0.0285912842
C   C204      1.0  0.07200  0.54530  0.36340  1.0000 -0.2400851533
C   C205      1.0  0.85750  0.31910  0.44880  1.0000 0.0399950077
C   C206      1.0  0.97980  0.41550  0.47810  1.0000 0.0715716664
C   C207      1.0  0.74790  0.69450  0.30720  1.0000 -0.178017598
C   C208      1.0  0.92570  0.54490  0.33760  1.0000 -0.1918968042
C   C209      1.0  0.98730  0.46940  0.43290  1.0000 0.0814836488
C   C210      1.0  0.98250  0.54800  0.33590  1.0000 0.090147285
C   C211      1.0  0.98650  0.93330  0.46700  1.0000 0.0482770286
C   C212      1.0  0.00950  0.05410  0.35190  1.0000 0.2094846699
C   C213      1.0  0.01640  0.53230  0.36200  1.0000 0.1815209921
C   C214      1.0  0.76130  0.83900  0.44790  1.0000 -0.2112222605
C   C215      1.0  0.97200  0.58350  0.28720  1.0000 0.0399950077
C   C216      1.0  0.00410  0.56850  0.30980  1.0000 -0.1918968042
C   C217      1.0  0.18680  0.04950  0.34610  1.0000 -0.134386253
C   C218      1.0  0.10030  0.53290  0.38880  1.0000 0.1108859561
C   C219      1.0  0.83180  0.71820  0.33070  1.0000 -0.219593888
C   C220      1.0  0.07420  0.51050  0.41210  1.0000 -0.2551049855
C   C221      1.0  0.64850  0.29530  0.37500  1.0000 0.1000124483
C   C222      1.0  0.90100  0.43980  0.45260  1.0000 0.0399950077
C   C223      1.0  0.86810  0.83710  0.44250  1.0000 0.0399950077
C   C224      1.0  0.18870  0.07040  0.39680  1.0000 -0.1598359952
C   C225      1.0  0.77750  0.66530  0.28680  1.0000 0.0209251636
C   C226      1.0  0.68930  0.76660  0.34970  1.0000 -0.2465733018
C   C227      1.0  0.78200  0.81890  0.42150  1.0000 0.1108859561
C   C228      1.0  0.97390  0.07160  0.32700  1.0000 0.090147285
C   C229      1.0  0.98820  0.99060  0.42320  1.0000 0.090147285
C   C230      1.0  0.82610  0.30370  0.42520  1.0000 -0.1918968042
C   C231      1.0  0.83930  0.81860  0.42090  1.0000 -0.1918968042
C   C232      1.0  0.01240  0.96050  0.44310  1.0000 -0.199005199
C   C233      1.0  0.56200  0.31930  0.34980  1.0000 -0.1598359952
C   C234      1.0  0.90570  0.96700  0.44740  1.0000 0.0285912842
C   C235      1.0  0.15850  0.05460  0.37160  1.0000 0.0285912842
C   C236      1.0  0.74390  0.75770  0.35180  1.0000 0.1815209921
C   C237      1.0  0.79290  0.86000  0.46990  1.0000 0.0399950077
C   C238      1.0  0.55660  0.29200  0.39990  1.0000 -0.1222945716
C   C239      1.0  0.66540  0.79610  0.37060  1.0000 0.1000124483
C   C240      1.0  0.77440  0.72210  0.32760  1.0000 0.090147285
C   C241      1.0  0.15980  0.54830  0.38980  1.0000 0.0482770286
C   C242      1.0  0.18410  0.56480  0.41620  1.0000 -0.1598359952
C   C243      1.0  0.23980  0.57310  0.41730  1.0000 -0.199005199
C   C244      1.0  0.27110  0.56490  0.39200  1.0000 0.2294715118
C   C245      1.0  0.24680  0.54840  0.36550  1.0000 -0.219593888
C   C246      1.0  0.19120  0.54010  0.36440  1.0000 -0.151830419
C   C247      1.0  0.69410  0.81250  0.39230  1.0000 -0.2112222605
C   C248      1.0  0.74710  0.80000  0.39610  1.0000 0.1616679315
C   C249      1.0  0.50750  0.29480  0.40270  1.0000 -0.151830419
C   C250      1.0  0.47800  0.31010  0.37600  1.0000 0.1815209921
C   C251      1.0  0.50640  0.32240  0.35160  1.0000 -0.2112222605
C   C252      1.0  0.23920  0.05260  0.34400  1.0000 -0.1749393906
C   C253      1.0  0.26890  0.06730  0.36680  1.0000 0.1989932839
C   C254      1.0  0.24440  0.07790  0.39540  1.0000 -0.219593888
C   C255      1.0  0.39530  0.32970  0.35390  1.0000 -0.2400851533
C   C256      1.0  0.35090  0.08030  0.39460  1.0000 -0.2465733018
C   C257      1.0  0.49150  0.81560  0.37060  1.0000 0.2094846699
C   C258      1.0  0.51860  0.80990  0.39770  1.0000 -0.2112222605
C   C259      1.0  0.57460  0.80470  0.39810  1.0000 -0.1598359952
C   C260      1.0  0.60370  0.80520  0.37160  1.0000 0.0612460048
C   C261      1.0  0.57670  0.81080  0.34460  1.0000 -0.151830419
C   C262      1.0  0.52060  0.81600  0.34410  1.0000 -0.219593888
C   C263      1.0  0.33010  0.62580  0.41820  1.0000 -0.2465733018
C   C264      1.0  0.40420  0.82130  0.34720  1.0000 -0.2305503156
C   C265      1.0  0.32460  0.72550  0.85040  1.0000 -0.2551049855
C   C266      1.0  0.32070  0.69380  0.90030  1.0000 -0.2666499581
C   C267      1.0  0.23560  0.81380  0.78200  1.0000 0.0285912842
C   C268      1.0  0.23900  0.76170  0.82640  1.0000 0.0814836488
C   C269      1.0  0.00600  0.90890  0.79930  1.0000 -0.2112222605
C   C270      1.0  0.04250  0.89110  0.77870  1.0000 0.0285912842
C   C271      1.0  0.18410  0.75950  0.82560  1.0000 -0.199005199
C   C272      1.0  0.08240  0.93120  0.82910  1.0000 -0.199005199
C   C273      1.0  0.21820  0.65680  0.97500  1.0000 0.0285912842
C   C274      1.0  0.26830  0.73700  0.85220  1.0000 0.2094846699
C   C275      1.0  0.98730  0.55650  0.95600  1.0000 -0.219593888
C   C276      1.0  0.98170  0.50320  0.90790  1.0000 0.2203635858
C   C277      1.0  0.06950  0.53250  0.93150  1.0000 -0.178017598
C   C278      1.0  0.98200  0.98290  0.89680  1.0000 0.1815209921
C   C279      1.0  0.26460  0.70440  0.89960  1.0000 0.2094846699
C   C280      1.0  0.26520  0.78900  0.80420  1.0000 -0.199005199
C   C281      1.0  0.10450  0.43850  0.81310  1.0000 0.0482770286
C   C282      1.0  0.90250  0.95250  0.87410  1.0000 0.1108859561
C   C283      1.0  0.25140  0.67090  0.95210  1.0000 -0.199005199
C   C284      1.0  0.93440  0.93620  0.85050  1.0000 -0.2666499581
C   C285      1.0  0.11540  0.91200  0.80590  1.0000 0.0715716664
C   C286      1.0  0.92730  0.97660  0.89790  1.0000 -0.2305503156
C   C287      1.0  0.15510  0.78560  0.80270  1.0000 0.0612460048
C   C288      1.0  0.23000  0.68970  0.92610  1.0000 0.090147285
C   C289      1.0  0.06730  0.00710  0.92650  1.0000 -0.2112222605
C   C290      1.0  0.14470  0.31240  0.80910  1.0000 0.0612460048
C   C291      1.0  0.41060  0.69940  0.87450  1.0000 0.0285912842
C   C292      1.0  0.92800  0.45470  0.86340  1.0000 -0.2400851533
C   C293      1.0  0.14250  0.68090  0.94880  1.0000 0.0399950077
C   C294      1.0  0.02020  0.58450  0.97810  1.0000 0.0715716664
C   C295      1.0  0.25210  0.30550  0.80720  1.0000 -0.178017598
C   C296      1.0  0.07430  0.45510  0.83760  1.0000 -0.1918968042
C   C297      1.0  0.01270  0.53060  0.93290  1.0000 0.0814836488
C   C298      1.0  0.01750  0.45200  0.83590  1.0000 0.090147285
C   C299      1.0  0.01350  0.06670  0.96700  1.0000 0.0482770286
C   C300      1.0  0.99050  0.94590  0.85190  1.0000 0.2094846699
C   C301      1.0  0.98360  0.46770  0.86200  1.0000 0.1854159121
C   C302      1.0  0.23870  0.16100  0.94790  1.0000 -0.2112222605
C   C303      1.0  0.02800  0.41650  0.78720  1.0000 0.0399950077
C   C304      1.0  0.99590  0.43150  0.80980  1.0000 -0.1918968042
C   C305      1.0  0.81320  0.95050  0.84610  1.0000 -0.134386253
C   C306      1.0  0.89970  0.46710  0.88880  1.0000 0.1108859561
C   C307      1.0  0.16820  0.28180  0.83070  1.0000 -0.219593888
C   C308      1.0  0.92580  0.48950  0.91210  1.0000 -0.2551049855
C   C309      1.0  0.35150  0.70470  0.87500  1.0000 0.1000124483
C   C310      1.0  0.09900  0.56020  0.95260  1.0000 0.0399950077
C   C311      1.0  0.13190  0.16290  0.94250  1.0000 0.0399950077
C   C312      1.0  0.81130  0.92960  0.89680  1.0000 -0.1598359952
C   C313      1.0  0.22250  0.33470  0.78680  1.0000 0.0209251636
C   C314      1.0  0.31070  0.23340  0.84970  1.0000 -0.2465733018
C   C315      1.0  0.21800  0.18110  0.92150  1.0000 0.1108859561
C   C316      1.0  0.02610  0.92840  0.82700  1.0000 0.090147285
C   C317      1.0  0.01180  0.00940  0.92320  1.0000 0.090147285
C   C318      1.0  0.17390  0.69630  0.92520  1.0000 -0.1918968042
C   C319      1.0  0.16070  0.18140  0.92090  1.0000 -0.1918968042
C   C320      1.0  0.98760  0.03950  0.94310  1.0000 -0.199005199
C   C321      1.0  0.43800  0.68070  0.84980  1.0000 -0.1598359952
C   C322      1.0  0.09430  0.03300  0.94740  1.0000 0.0285912842
C   C323      1.0  0.84150  0.94540  0.87160  1.0000 0.0285912842
C   C324      1.0  0.25610  0.24230  0.85180  1.0000 0.1815209921
C   C325      1.0  0.20710  0.14000  0.96990  1.0000 0.0399950077
C   C326      1.0  0.44340  0.70800  0.89990  1.0000 -0.1222945716
C   C327      1.0  0.33460  0.20390  0.87060  1.0000 0.1000124483
C   C328      1.0  0.22560  0.27790  0.82760  1.0000 0.090147285
C   C329      1.0  0.84020  0.45170  0.88980  1.0000 0.0482770286
C   C330      1.0  0.81590  0.43520  0.91620  1.0000 -0.1598359952
C   C331      1.0  0.76020  0.42690  0.91730  1.0000 -0.199005199
C   C332      1.0  0.72890  0.43510  0.89200  1.0000 0.2294715118
C   C333      1.0  0.75320  0.45160  0.86550  1.0000 -0.219593888
C   C334      1.0  0.80880  0.45990  0.86440  1.0000 -0.151830419
C   C335      1.0  0.30590  0.18750  0.89230  1.0000 -0.2112222605
C   C336      1.0  0.25290  0.20000  0.89610  1.0000 0.1616679315
C   C337      1.0  0.49250  0.70520  0.90270  1.0000 -0.151830419
C   C338      1.0  0.52200  0.68990  0.87600  1.0000 0.1815209921
C   C339      1.0  0.49360  0.67760  0.85160  1.0000 -0.2112222605
C   C340      1.0  0.76080  0.94740  0.84400  1.0000 -0.1749393906
C   C341      1.0  0.73110  0.93270  0.86680  1.0000 0.1989932839
C   C342      1.0  0.75560  0.92210  0.89540  1.0000 -0.219593888
C   C343      1.0  0.60470  0.67030  0.85390  1.0000 -0.2400851533
C   C344      1.0  0.64910  0.91970  0.89460  1.0000 -0.2465733018
C   C345      1.0  0.50850  0.18440  0.87060  1.0000 0.2094846699
C   C346      1.0  0.48140  0.19010  0.89770  1.0000 -0.2112222605
C   C347      1.0  0.42540  0.19530  0.89810  1.0000 -0.1598359952
C   C348      1.0  0.39630  0.19480  0.87160  1.0000 0.0612460048
C   C349      1.0  0.42330  0.18920  0.84460  1.0000 -0.151830419
C   C350      1.0  0.47940  0.18400  0.84410  1.0000 -0.219593888
C   C351      1.0  0.66990  0.37420  0.91820  1.0000 -0.2465733018
C   C352      1.0  0.59580  0.17870  0.84720  1.0000 -0.2305503156
C   C353      1.0  0.72550  0.32460  0.14960  1.0000 -0.2551049855
C   C354      1.0  0.69380  0.32070  0.09970  1.0000 -0.2666499581
C   C355      1.0  0.81380  0.23560  0.21800  1.0000 0.0285912842
C   C356      1.0  0.76170  0.23900  0.17360  1.0000 0.0814836488
C   C357      1.0  0.90890  0.00600  0.20070  1.0000 -0.2112222605
C   C358      1.0  0.89110  0.04250  0.22130  1.0000 0.0285912842
C   C359      1.0  0.75950  0.18410  0.17440  1.0000 -0.1918968042
C   C360      1.0  0.93120  0.08240  0.17090  1.0000 -0.199005199
C   C361      1.0  0.65680  0.21820  0.02500  1.0000 0.0285912842
C   C362      1.0  0.73700  0.26830  0.14780  1.0000 0.2094846699
C   C363      1.0  0.55650  0.98730  0.04400  1.0000 -0.219593888
C   C364      1.0  0.50320  0.98170  0.09210  1.0000 0.2203635858
C   C365      1.0  0.53250  0.06950  0.06850  1.0000 -0.178017598
C   C366      1.0  0.98290  0.98200  0.10320  1.0000 0.1815209921
C   C367      1.0  0.70440  0.26460  0.10040  1.0000 0.2094846699
C   C368      1.0  0.78900  0.26520  0.19580  1.0000 -0.199005199
C   C369      1.0  0.43850  0.10450  0.18690  1.0000 0.0482770286
C   C370      1.0  0.95250  0.90250  0.12590  1.0000 0.1108859561
C   C371      1.0  0.67090  0.25140  0.04790  1.0000 -0.199005199
C   C372      1.0  0.93620  0.93440  0.14950  1.0000 -0.2666499581
C   C373      1.0  0.91200  0.11540  0.19410  1.0000 0.0715716664
C   C374      1.0  0.97660  0.92730  0.10210  1.0000 -0.2305503156
C   C375      1.0  0.78560  0.15510  0.19730  1.0000 0.0612460048
C   C376      1.0  0.68970  0.23000  0.07390  1.0000 0.090147285
C   C377      1.0  0.00710  0.06730  0.07350  1.0000 -0.199005199
C   C378      1.0  0.31240  0.14470  0.19090  1.0000 0.0612460048
C   C379      1.0  0.69940  0.41060  0.12550  1.0000 0.0285912842
C   C380      1.0  0.45470  0.92800  0.13660  1.0000 -0.2400851533
C   C381      1.0  0.68090  0.14250  0.05120  1.0000 0.0399950077
C   C382      1.0  0.58450  0.02020  0.02190  1.0000 0.0715716664
C   C383      1.0  0.30550  0.25210  0.19280  1.0000 -0.178017598
C   C384      1.0  0.45510  0.07430  0.16240  1.0000 -0.1918968042
C   C385      1.0  0.53060  0.01270  0.06710  1.0000 0.0814836488
C   C386      1.0  0.45200  0.01750  0.16410  1.0000 0.090147285
C   C387      1.0  0.06670  0.01350  0.03300  1.0000 0.0482770286
C   C388      1.0  0.94590  0.99050  0.14810  1.0000 0.2094846699
C   C389      1.0  0.46770  0.98360  0.13800  1.0000 0.1815209921
C   C390      1.0  0.16100  0.23870  0.05210  1.0000 -0.2112222605
C   C391      1.0  0.41650  0.02800  0.21280  1.0000 0.0399950077
C   C392      1.0  0.43150  0.99590  0.19020  1.0000 -0.1918968042
C   C393      1.0  0.95050  0.81320  0.15390  1.0000 -0.134386253
C   C394      1.0  0.46710  0.89970  0.11120  1.0000 0.1108859561
C   C395      1.0  0.28180  0.16820  0.16930  1.0000 -0.219593888
C   C396      1.0  0.48950  0.92580  0.08790  1.0000 -0.2551049855
C   C397      1.0  0.70470  0.35150  0.12500  1.0000 0.1000124483
C   C398      1.0  0.56020  0.09900  0.04740  1.0000 0.0399950077
C   C399      1.0  0.16290  0.13190  0.05750  1.0000 0.0399950077
C   C400      1.0  0.92960  0.81130  0.10320  1.0000 -0.1598359952
C   C401      1.0  0.33470  0.22250  0.21320  1.0000 0.0209251636
C   C402      1.0  0.23340  0.31070  0.15030  1.0000 -0.2465733018
C   C403      1.0  0.18110  0.21800  0.07850  1.0000 0.1108859561
C   C404      1.0  0.92840  0.02610  0.17300  1.0000 0.090147285
C   C405      1.0  0.00940  0.01180  0.07680  1.0000 0.090147285
C   C406      1.0  0.69630  0.17390  0.07480  1.0000 -0.1918968042
C   C407      1.0  0.18140  0.16070  0.07910  1.0000 -0.1918968042
C   C408      1.0  0.03950  0.98760  0.05690  1.0000 -0.199005199
C   C409      1.0  0.68070  0.43800  0.15020  1.0000 -0.1598359952
C   C410      1.0  0.03300  0.09430  0.05260  1.0000 0.0285912842
C   C411      1.0  0.94540  0.84150  0.12840  1.0000 0.0285912842
C   C412      1.0  0.24230  0.25610  0.14820  1.0000 0.1815209921
C   C413      1.0  0.14000  0.20710  0.03010  1.0000 0.0399950077
C   C414      1.0  0.70800  0.44340  0.10010  1.0000 -0.1222945716
C   C415      1.0  0.20390  0.33460  0.12940  1.0000 0.1000124483
C   C416      1.0  0.27790  0.22560  0.17240  1.0000 0.090147285
C   C417      1.0  0.45170  0.84020  0.11020  1.0000 0.0482770286
C   C418      1.0  0.43520  0.81590  0.08380  1.0000 -0.1598359952
C   C419      1.0  0.42690  0.76020  0.08270  1.0000 -0.199005199
C   C420      1.0  0.43510  0.72890  0.10800  1.0000 0.2294715118
C   C421      1.0  0.45160  0.75320  0.13450  1.0000 -0.219593888
C   C422      1.0  0.45990  0.80880  0.13560  1.0000 -0.151830419
C   C423      1.0  0.18750  0.30590  0.10770  1.0000 -0.2112222605
C   C424      1.0  0.20000  0.25290  0.10390  1.0000 0.1616679315
C   C425      1.0  0.70520  0.49250  0.09730  1.0000 -0.151830419
C   C426      1.0  0.68990  0.52200  0.12400  1.0000 0.1815209921
C   C427      1.0  0.67760  0.49360  0.14840  1.0000 -0.2112222605
C   C428      1.0  0.94740  0.76080  0.15600  1.0000 -0.1749393906
C   C429      1.0  0.93270  0.73110  0.13320  1.0000 0.1989932839
C   C430      1.0  0.92210  0.75560  0.10460  1.0000 -0.219593888
C   C431      1.0  0.67030  0.60470  0.14610  1.0000 -0.2400851533
C   C432      1.0  0.91970  0.64910  0.10540  1.0000 -0.2465733018
C   C433      1.0  0.18440  0.50850  0.12940  1.0000 0.2094846699
C   C434      1.0  0.19010  0.48140  0.10230  1.0000 -0.2112222605
C   C435      1.0  0.19530  0.42540  0.10190  1.0000 -0.1598359952
C   C436      1.0  0.19480  0.39630  0.12840  1.0000 0.0612460048
C   C437      1.0  0.18920  0.42330  0.15540  1.0000 -0.151830419
C   C438      1.0  0.18400  0.47940  0.15590  1.0000 -0.219593888
C   C439      1.0  0.37420  0.66990  0.08180  1.0000 -0.2465733018
C   C440      1.0  0.17870  0.59580  0.15280  1.0000 -0.2305503156
C   C441      1.0  0.27450  0.67540  0.64960  1.0000 -0.2551049855
C   C442      1.0  0.30620  0.67930  0.59970  1.0000 -0.2666499581
C   C443      1.0  0.18620  0.76440  0.71800  1.0000 0.0285912842
C   C444      1.0  0.23830  0.76100  0.67360  1.0000 0.0814836488
C   C445      1.0  0.09110  0.99400  0.70070  1.0000 -0.2112222605
C   C446      1.0  0.10890  0.95750  0.72130  1.0000 0.0285912842
C   C447      1.0  0.24050  0.81590  0.67440  1.0000 -0.199005199
C   C448      1.0  0.06880  0.91760  0.67090  1.0000 -0.199005199
C   C449      1.0  0.34320  0.78180  0.52500  1.0000 0.0285912842
C   C450      1.0  0.26300  0.73170  0.64780  1.0000 0.2094846699
C   C451      1.0  0.44350  0.01270  0.54400  1.0000 -0.219593888
C   C452      1.0  0.49680  0.01830  0.59210  1.0000 0.2203635858
C   C453      1.0  0.46750  0.93050  0.56850  1.0000 -0.178017598
C   C454      1.0  0.01710  0.01800  0.60320  1.0000 0.1815209921
C   C455      1.0  0.29560  0.73540  0.60040  1.0000 0.2094846699
C   C456      1.0  0.21100  0.73480  0.69580  1.0000 -0.199005199
C   C457      1.0  0.56150  0.89550  0.68690  1.0000 0.0482770286
C   C458      1.0  0.04750  0.09750  0.62590  1.0000 0.1108859561
C   C459      1.0  0.32910  0.74860  0.54790  1.0000 -0.199005199
C   C460      1.0  0.06380  0.06560  0.64950  1.0000 -0.2666499581
C   C461      1.0  0.08800  0.88460  0.69410  1.0000 0.0715716664
C   C462      1.0  0.02340  0.07270  0.60210  1.0000 -0.2305503156
C   C463      1.0  0.21440  0.84490  0.69730  1.0000 0.0612460048
C   C464      1.0  0.31030  0.77000  0.57390  1.0000 0.090147285
C   C465      1.0  0.99290  0.93270  0.57350  1.0000 -0.2112222605
C   C466      1.0  0.68760  0.85530  0.69090  1.0000 0.0612460048
C   C467      1.0  0.30060  0.58940  0.62550  1.0000 0.0285912842
C   C468      1.0  0.54530  0.07200  0.63660  1.0000 -0.2400851533
C   C469      1.0  0.31910  0.85750  0.55120  1.0000 0.0399950077
C   C470      1.0  0.41550  0.97980  0.52190  1.0000 0.0715716664
C   C471      1.0  0.69450  0.74790  0.69280  1.0000 -0.178017598
C   C472      1.0  0.54490  0.92570  0.66240  1.0000 -0.1918968042
C   C473      1.0  0.46940  0.98730  0.56710  1.0000 0.0814836488
C   C474      1.0  0.54800  0.98250  0.66410  1.0000 0.090147285
C   C475      1.0  0.93330  0.98650  0.53300  1.0000 0.0482770286
C   C476      1.0  0.05410  0.00950  0.64810  1.0000 0.2094846699
C   C477      1.0  0.53230  0.01640  0.63800  1.0000 0.1854159121
C   C478      1.0  0.83900  0.76130  0.55210  1.0000 -0.2112222605
C   C479      1.0  0.58350  0.97200  0.71280  1.0000 0.0399950077
C   C480      1.0  0.56850  0.00410  0.69020  1.0000 -0.1918968042
C   C481      1.0  0.04950  0.18680  0.65390  1.0000 -0.134386253
C   C482      1.0  0.53290  0.10030  0.61120  1.0000 0.1108859561
C   C483      1.0  0.71820  0.83180  0.66930  1.0000 -0.219593888
C   C484      1.0  0.51050  0.07420  0.58790  1.0000 -0.2551049855
C   C485      1.0  0.29530  0.64850  0.62500  1.0000 0.1000124483
C   C486      1.0  0.43980  0.90100  0.54740  1.0000 0.0399950077
C   C487      1.0  0.83710  0.86810  0.55750  1.0000 0.0399950077
C   C488      1.0  0.07040  0.18870  0.60320  1.0000 -0.1598359952
C   C489      1.0  0.66530  0.77750  0.71320  1.0000 0.0209251636
C   C490      1.0  0.76660  0.68930  0.65030  1.0000 -0.2465733018
C   C491      1.0  0.81890  0.78200  0.57850  1.0000 0.1108859561
C   C492      1.0  0.07160  0.97390  0.67300  1.0000 0.090147285
C   C493      1.0  0.99060  0.98820  0.57680  1.0000 0.090147285
C   C494      1.0  0.30370  0.82610  0.57480  1.0000 -0.1918968042
C   C495      1.0  0.81860  0.83930  0.57910  1.0000 -0.1918968042
C   C496      1.0  0.96050  0.01240  0.55690  1.0000 -0.199005199
C   C497      1.0  0.31930  0.56200  0.65020  1.0000 -0.1598359952
C   C498      1.0  0.96700  0.90570  0.55260  1.0000 0.0285912842
C   C499      1.0  0.05460  0.15850  0.62840  1.0000 0.0285912842
C   C500      1.0  0.75770  0.74390  0.64820  1.0000 0.1815209921
C   C501      1.0  0.86000  0.79290  0.53010  1.0000 0.0399950077
C   C502      1.0  0.29200  0.55660  0.60010  1.0000 -0.1222945716
C   C503      1.0  0.79610  0.66540  0.62940  1.0000 0.1000124483
C   C504      1.0  0.72210  0.77440  0.67240  1.0000 0.090147285
C   C505      1.0  0.54830  0.15980  0.61020  1.0000 0.0482770286
C   C506      1.0  0.56480  0.18410  0.58380  1.0000 -0.1598359952
C   C507      1.0  0.57310  0.23980  0.58270  1.0000 -0.199005199
C   C508      1.0  0.56490  0.27110  0.60800  1.0000 0.2294715118
C   C509      1.0  0.54840  0.24680  0.63450  1.0000 -0.219593888
C   C510      1.0  0.54010  0.19120  0.63560  1.0000 -0.151830419
C   C511      1.0  0.81250  0.69410  0.60770  1.0000 -0.2112222605
C   C512      1.0  0.80000  0.74710  0.60390  1.0000 0.1616679315
C   C513      1.0  0.29480  0.50750  0.59730  1.0000 -0.151830419
C   C514      1.0  0.31010  0.47800  0.62400  1.0000 0.1815209921
C   C515      1.0  0.32240  0.50640  0.64840  1.0000 -0.2112222605
C   C516      1.0  0.05260  0.23920  0.65600  1.0000 -0.1749393906
C   C517      1.0  0.06730  0.26890  0.63320  1.0000 0.1989932839
C   C518      1.0  0.07790  0.24440  0.60460  1.0000 -0.219593888
C   C519      1.0  0.32970  0.39530  0.64610  1.0000 -0.2400851533
C   C520      1.0  0.08030  0.35090  0.60540  1.0000 -0.2465733018
C   C521      1.0  0.81560  0.49150  0.62940  1.0000 0.2094846699
C   C522      1.0  0.80990  0.51860  0.60230  1.0000 -0.2112222605
C   C523      1.0  0.80470  0.57460  0.60190  1.0000 -0.1598359952
C   C524      1.0  0.80520  0.60370  0.62840  1.0000 0.0612460048
C   C525      1.0  0.81080  0.57670  0.65540  1.0000 -0.151830419
C   C526      1.0  0.81600  0.52060  0.65590  1.0000 -0.219593888
C   C527      1.0  0.62580  0.33010  0.58180  1.0000 -0.2465733018
C   C528      1.0  0.82130  0.40420  0.65280  1.0000 -0.2305503156
C   C529      1.0  0.82460  0.77450  0.89960  1.0000 -0.2551049855
C   C530      1.0  0.82070  0.80620  0.84970  1.0000 -0.2666499581
C   C531      1.0  0.73560  0.68620  0.96800  1.0000 0.0285912842
C   C532      1.0  0.73900  0.73830  0.92360  1.0000 0.0814836488
C   C533      1.0  0.50600  0.59110  0.95070  1.0000 -0.2112222605
C   C534      1.0  0.54250  0.60890  0.97130  1.0000 0.0285912842
C   C535      1.0  0.68410  0.74050  0.92440  1.0000 -0.1918968042
C   C536      1.0  0.58240  0.56880  0.92090  1.0000 -0.199005199
C   C537      1.0  0.71820  0.84320  0.77500  1.0000 0.0285912842
C   C538      1.0  0.76830  0.76300  0.89780  1.0000 0.2094846699
C   C539      1.0  0.48730  0.94350  0.79400  1.0000 -0.219593888
C   C540      1.0  0.48170  0.99680  0.84210  1.0000 0.2203635858
C   C541      1.0  0.56950  0.96750  0.81850  1.0000 -0.178017598
C   C542      1.0  0.48200  0.51710  0.85320  1.0000 0.1815209921
C   C543      1.0  0.76460  0.79560  0.85040  1.0000 0.2094846699
C   C544      1.0  0.76520  0.71100  0.94580  1.0000 -0.199005199
C   C545      1.0  0.60450  0.06150  0.93690  1.0000 0.0482770286
C   C546      1.0  0.40250  0.54750  0.87590  1.0000 0.1108859561
C   C547      1.0  0.75140  0.82910  0.79790  1.0000 -0.199005199
C   C548      1.0  0.43440  0.56380  0.89950  1.0000 -0.2666499581
C   C549      1.0  0.61540  0.58800  0.94410  1.0000 0.0715716664
C   C550      1.0  0.42730  0.52340  0.85210  1.0000 -0.2305503156
C   C551      1.0  0.65510  0.71440  0.94730  1.0000 0.0612460048
C   C552      1.0  0.73000  0.81030  0.82390  1.0000 0.090147285
C   C553      1.0  0.56730  0.49290  0.82350  1.0000 -0.2112222605
C   C554      1.0  0.64470  0.18760  0.94090  1.0000 0.0612460048
C   C555      1.0  0.91060  0.80060  0.87550  1.0000 0.0285912842
C   C556      1.0  0.42800  0.04530  0.88660  1.0000 -0.2400851533
C   C557      1.0  0.64250  0.81910  0.80120  1.0000 0.0399950077
C   C558      1.0  0.52020  0.91550  0.77190  1.0000 0.0715716664
C   C559      1.0  0.75210  0.19450  0.94280  1.0000 -0.178017598
C   C560      1.0  0.57430  0.04490  0.91240  1.0000 -0.1918968042
C   C561      1.0  0.51270  0.96940  0.81710  1.0000 0.0814836488
C   C562      1.0  0.51750  0.04800  0.91410  1.0000 0.090147285
C   C563      1.0  0.51350  0.43330  0.78300  1.0000 0.0482770286
C   C564      1.0  0.49050  0.55410  0.89810  1.0000 0.2094846699
C   C565      1.0  0.48360  0.03230  0.88800  1.0000 0.1815209921
C   C566      1.0  0.73870  0.33900  0.80210  1.0000 -0.2112222605
C   C567      1.0  0.52800  0.08350  0.96280  1.0000 0.0399950077
C   C568      1.0  0.49590  0.06850  0.94020  1.0000 -0.1918968042
C   C569      1.0  0.31320  0.54950  0.90390  1.0000 -0.134386253
C   C570      1.0  0.39970  0.03290  0.86120  1.0000 0.1108859561
C   C571      1.0  0.66820  0.21820  0.91930  1.0000 -0.219593888
C   C572      1.0  0.42580  0.01050  0.83790  1.0000 -0.2465733018
C   C573      1.0  0.85150  0.79530  0.87500  1.0000 0.1000124483
C   C574      1.0  0.59900  0.93980  0.79740  1.0000 0.0399950077
C   C575      1.0  0.63190  0.33710  0.80750  1.0000 0.0399950077
C   C576      1.0  0.31130  0.57040  0.85320  1.0000 -0.1598359952
C   C577      1.0  0.72250  0.16530  0.96320  1.0000 0.0209251636
C   C578      1.0  0.81070  0.26660  0.90030  1.0000 -0.2465733018
C   C579      1.0  0.71800  0.31890  0.82850  1.0000 0.1108859561
C   C580      1.0  0.52610  0.57160  0.92300  1.0000 0.090147285
C   C581      1.0  0.51180  0.49060  0.82680  1.0000 0.090147285
C   C582      1.0  0.67390  0.80370  0.82480  1.0000 -0.1918968042
C   C583      1.0  0.66070  0.31860  0.82910  1.0000 -0.1918968042
C   C584      1.0  0.48760  0.46050  0.80690  1.0000 -0.199005199
C   C585      1.0  0.93800  0.81930  0.90020  1.0000 -0.1598359952
C   C586      1.0  0.59430  0.46700  0.80260  1.0000 0.0285912842
C   C587      1.0  0.34150  0.55460  0.87840  1.0000 0.0285912842
C   C588      1.0  0.75610  0.25770  0.89820  1.0000 0.1815209921
C   C589      1.0  0.70710  0.36000  0.78010  1.0000 0.0399950077
C   C590      1.0  0.94340  0.79200  0.85010  1.0000 -0.1222945716
C   C591      1.0  0.83460  0.29610  0.87940  1.0000 0.1000124483
C   C592      1.0  0.72560  0.22210  0.92240  1.0000 0.090147285
C   C593      1.0  0.34020  0.04830  0.86020  1.0000 0.0482770286
C   C594      1.0  0.31590  0.06480  0.83380  1.0000 -0.1598359952
C   C595      1.0  0.26020  0.07310  0.83270  1.0000 -0.199005199
C   C596      1.0  0.22890  0.06490  0.85800  1.0000 0.2294715118
C   C597      1.0  0.25320  0.04840  0.88450  1.0000 -0.219593888
C   C598      1.0  0.30880  0.04010  0.88560  1.0000 -0.151830419
C   C599      1.0  0.80590  0.31250  0.85770  1.0000 -0.2112222605
C   C600      1.0  0.75290  0.30000  0.85390  1.0000 0.1616679315
C   C601      1.0  0.99250  0.79480  0.84730  1.0000 -0.151830419
C   C602      1.0  0.02200  0.81010  0.87400  1.0000 0.1815209921
C   C603      1.0  0.99360  0.82240  0.89840  1.0000 -0.2112222605
C   C604      1.0  0.26080  0.55260  0.90600  1.0000 -0.1749393906
C   C605      1.0  0.23110  0.56730  0.88320  1.0000 0.1989932839
C   C606      1.0  0.25560  0.57790  0.85460  1.0000 -0.219593888
C   C607      1.0  0.10470  0.82970  0.89610  1.0000 -0.2400851533
C   C608      1.0  0.14910  0.58030  0.85540  1.0000 -0.2465733018
C   C609      1.0  0.00850  0.31560  0.87940  1.0000 0.2094846699
C   C610      1.0  0.98140  0.30990  0.85230  1.0000 -0.2112222605
C   C611      1.0  0.92540  0.30470  0.85190  1.0000 -0.1598359952
C   C612      1.0  0.89630  0.30520  0.87840  1.0000 0.0612460048
C   C613      1.0  0.92330  0.31080  0.90540  1.0000 -0.151830419
C   C614      1.0  0.97940  0.31600  0.90590  1.0000 -0.219593888
C   C615      1.0  0.16990  0.12580  0.83180  1.0000 -0.2465733018
C   C616      1.0  0.09580  0.32130  0.90280  1.0000 -0.2305503156
C   C617      1.0  0.17540  0.22550  0.39960  1.0000 -0.2551049855
C   C618      1.0  0.17930  0.19380  0.34970  1.0000 -0.2666499581
C   C619      1.0  0.26440  0.31380  0.46800  1.0000 0.0285912842
C   C620      1.0  0.26100  0.26170  0.42360  1.0000 0.0814836488
C   C621      1.0  0.49400  0.40890  0.45070  1.0000 -0.2112222605
C   C622      1.0  0.45750  0.39110  0.47130  1.0000 0.0285912842
C   C623      1.0  0.31590  0.25950  0.42440  1.0000 -0.1918968042
C   C624      1.0  0.41760  0.43120  0.42090  1.0000 -0.199005199
C   C625      1.0  0.28180  0.15680  0.27500  1.0000 0.0285912842
C   C626      1.0  0.23170  0.23700  0.39780  1.0000 0.2094846699
C   C627      1.0  0.51270  0.05650  0.29400  1.0000 -0.219593888
C   C628      1.0  0.51830  0.00320  0.34210  1.0000 0.2203635858
C   C629      1.0  0.43050  0.03250  0.31850  1.0000 -0.178017598
C   C630      1.0  0.51800  0.48290  0.35320  1.0000 0.1815209921
C   C631      1.0  0.23540  0.20440  0.35040  1.0000 0.2094846699
C   C632      1.0  0.23480  0.28900  0.44580  1.0000 -0.199005199
C   C633      1.0  0.39550  0.93850  0.43690  1.0000 0.0482770286
C   C634      1.0  0.59750  0.45250  0.37590  1.0000 0.1108859561
C   C635      1.0  0.24860  0.17090  0.29790  1.0000 -0.199005199
C   C636      1.0  0.56560  0.43620  0.39950  1.0000 -0.2666499581
C   C637      1.0  0.38460  0.41200  0.44410  1.0000 0.0715716664
C   C638      1.0  0.57270  0.47660  0.35210  1.0000 -0.2305503156
C   C639      1.0  0.34490  0.28560  0.44730  1.0000 0.0612460048
C   C640      1.0  0.27000  0.18970  0.32390  1.0000 0.090147285
C   C641      1.0  0.43270  0.50710  0.32350  1.0000 -0.2112222605
C   C642      1.0  0.35530  0.81240  0.44090  1.0000 0.0612460048
C   C643      1.0  0.08940  0.19940  0.37550  1.0000 0.0285912842
C   C644      1.0  0.57200  0.95470  0.38660  1.0000 -0.2400851533
C   C645      1.0  0.35750  0.18090  0.30120  1.0000 0.0399950077
C   C646      1.0  0.47980  0.08450  0.27190  1.0000 0.0715716664
C   C647      1.0  0.24790  0.80550  0.44280  1.0000 -0.178017598
C   C648      1.0  0.42570  0.95510  0.41240  1.0000 -0.1918968042
C   C649      1.0  0.48730  0.03060  0.31710  1.0000 0.0814836488
C   C650      1.0  0.48250  0.95200  0.41410  1.0000 0.090147285
C   C651      1.0  0.48650  0.56670  0.28300  1.0000 0.0482770286
C   C652      1.0  0.50950  0.44590  0.39810  1.0000 0.2094846699
C   C653      1.0  0.51640  0.96770  0.38800  1.0000 0.1815209921
C   C654      1.0  0.26130  0.66100  0.30210  1.0000 -0.2112222605
C   C655      1.0  0.47200  0.91650  0.46280  1.0000 0.0399950077
C   C656      1.0  0.50410  0.93150  0.44020  1.0000 -0.1918968042
C   C657      1.0  0.68680  0.45050  0.40390  1.0000 -0.134386253
C   C658      1.0  0.60030  0.96710  0.36120  1.0000 0.1108859561
C   C659      1.0  0.33180  0.78180  0.41930  1.0000 -0.219593888
C   C660      1.0  0.57420  0.98950  0.33790  1.0000 -0.2551049855
C   C661      1.0  0.14850  0.20470  0.37500  1.0000 0.1000124483
C   C662      1.0  0.40100  0.06020  0.29740  1.0000 0.0399950077
C   C663      1.0  0.36810  0.66290  0.30750  1.0000 0.0399950077
C   C664      1.0  0.68870  0.42960  0.35320  1.0000 -0.1598359952
C   C665      1.0  0.27750  0.83470  0.46320  1.0000 0.0209251636
C   C666      1.0  0.18930  0.73340  0.40030  1.0000 -0.2465733018
C   C667      1.0  0.28200  0.68110  0.32850  1.0000 0.1108859561
C   C668      1.0  0.47390  0.42840  0.42300  1.0000 0.090147285
C   C669      1.0  0.48820  0.50940  0.32680  1.0000 0.090147285
C   C670      1.0  0.32610  0.19630  0.32480  1.0000 -0.1918968042
C   C671      1.0  0.33930  0.68140  0.32910  1.0000 -0.1918968042
C   C672      1.0  0.51240  0.53950  0.30690  1.0000 -0.199005199
C   C673      1.0  0.06200  0.18070  0.40020  1.0000 -0.1598359952
C   C674      1.0  0.40570  0.53300  0.30260  1.0000 0.0285912842
C   C675      1.0  0.65850  0.44540  0.37840  1.0000 0.0285912842
C   C676      1.0  0.24390  0.74230  0.39820  1.0000 0.1815209921
C   C677      1.0  0.29290  0.64000  0.28010  1.0000 0.0399950077
C   C678      1.0  0.05660  0.20800  0.35010  1.0000 -0.1222945716
C   C679      1.0  0.16540  0.70390  0.37940  1.0000 0.1000124483
C   C680      1.0  0.27440  0.77790  0.42240  1.0000 0.090147285
C   C681      1.0  0.65980  0.95170  0.36020  1.0000 0.0482770286
C   C682      1.0  0.68410  0.93520  0.33380  1.0000 -0.1598359952
C   C683      1.0  0.73980  0.92690  0.33270  1.0000 -0.199005199
C   C684      1.0  0.77110  0.93510  0.35800  1.0000 0.2294715118
C   C685      1.0  0.74680  0.95160  0.38450  1.0000 -0.219593888
C   C686      1.0  0.69120  0.95990  0.38560  1.0000 -0.151830419
C   C687      1.0  0.19410  0.68750  0.35770  1.0000 -0.2112222605
C   C688      1.0  0.24710  0.70000  0.35390  1.0000 0.1616679315
C   C689      1.0  0.00750  0.20520  0.34730  1.0000 -0.151830419
C   C690      1.0  0.97800  0.18990  0.37400  1.0000 0.1815209921
C   C691      1.0  0.00640  0.17760  0.39840  1.0000 -0.2112222605
C   C692      1.0  0.73920  0.44740  0.40600  1.0000 -0.1749393906
C   C693      1.0  0.76890  0.43270  0.38320  1.0000 0.1989932839
C   C694      1.0  0.74440  0.42210  0.35460  1.0000 -0.219593888
C   C695      1.0  0.89530  0.17030  0.39610  1.0000 -0.2400851533
C   C696      1.0  0.85090  0.41970  0.35540  1.0000 -0.2465733018
C   C697      1.0  0.99150  0.68440  0.37940  1.0000 0.2094846699
C   C698      1.0  0.01860  0.69010  0.35230  1.0000 -0.2112222605
C   C699      1.0  0.07460  0.69530  0.35190  1.0000 -0.1598359952
C   C700      1.0  0.10370  0.69480  0.37840  1.0000 0.0612460048
C   C701      1.0  0.07670  0.68920  0.40540  1.0000 -0.151830419
C   C702      1.0  0.02060  0.68400  0.40590  1.0000 -0.219593888
C   C703      1.0  0.83010  0.87420  0.33180  1.0000 -0.2465733018
C   C704      1.0  0.90420  0.67870  0.40280  1.0000 -0.2305503156
N   N1        1.0  0.68620  0.68030  0.03116  1.0000 -0.219593888
N   N2        1.0  0.60750  0.59610  0.03150  1.0000 -0.199005199
N   N3        1.0  0.83870  0.66390  0.22420  1.0000 -0.2112222605
N   N4        1.0  0.91360  0.57390  0.22550  1.0000 -0.219593888
N   N5        1.0  0.43730  0.56860  0.21870  1.0000 -0.219593888
N   N6        1.0  0.77500  0.73980  0.12640  1.0000 -0.338088673
N   N7        1.0  0.00910  0.50970  0.13500  1.0000 -0.3311203238
N   N8        1.0  0.53180  0.51280  0.12410  1.0000 -0.302528676
N   N9        1.0  0.26970  0.72550  0.12560  1.0000 -0.3469384577
N   N10       1.0  0.08320  0.58240  0.03830  1.0000 -0.219593888
N   N11       1.0  0.16090  0.66790  0.03780  1.0000 -0.2112222605
N   N12       1.0  0.35730  0.65280  0.21750  1.0000 -0.2305503156
N   N13       1.0  0.31380  0.31970  0.53116  1.0000 -0.219593888
N   N14       1.0  0.39250  0.40390  0.53150  1.0000 -0.199005199
N   N15       1.0  0.16130  0.33610  0.72420  1.0000 -0.2112222605
N   N16       1.0  0.08640  0.42610  0.72550  1.0000 -0.219593888
N   N17       1.0  0.56270  0.43140  0.71870  1.0000 -0.219593888
N   N18       1.0  0.22500  0.26020  0.62640  1.0000 -0.338088673
N   N19       1.0  0.99090  0.49030  0.63500  1.0000 -0.3311203238
N   N20       1.0  0.46820  0.48720  0.62410  1.0000 -0.302528676
N   N21       1.0  0.73030  0.27450  0.62560  1.0000 -0.3469384577
N   N22       1.0  0.91680  0.41760  0.53830  1.0000 -0.219593888
N   N23       1.0  0.83910  0.33210  0.53780  1.0000 -0.2112222605
N   N24       1.0  0.64270  0.34720  0.71750  1.0000 -0.2305503156
N   N25       1.0  0.81970  0.18620  0.28116  1.0000 -0.219593888
N   N26       1.0  0.90390  0.10750  0.28150  1.0000 -0.199005199
N   N27       1.0  0.83610  0.33870  0.47420  1.0000 -0.2112222605
N   N28       1.0  0.92610  0.41360  0.47550  1.0000 -0.219593888
N   N29       1.0  0.93140  0.93730  0.46870  1.0000 -0.219593888
N   N30       1.0  0.76020  0.27500  0.37640  1.0000 -0.338088673
N   N31       1.0  0.99030  0.50910  0.38500  1.0000 -0.3311203238
N   N32       1.0  0.98720  0.03180  0.37410  1.0000 -0.302528676
N   N33       1.0  0.77450  0.76970  0.37560  1.0000 -0.3469384577
N   N34       1.0  0.91760  0.58320  0.28830  1.0000 -0.219593888
N   N35       1.0  0.83210  0.66090  0.28780  1.0000 -0.2112222605
N   N36       1.0  0.84720  0.85730  0.46750  1.0000 -0.2305503156
N   N37       1.0  0.18030  0.81380  0.78116  1.0000 -0.219593888
N   N38       1.0  0.09610  0.89250  0.78150  1.0000 -0.199005199
N   N39       1.0  0.16390  0.66130  0.97420  1.0000 -0.2112222605
N   N40       1.0  0.07390  0.58640  0.97550  1.0000 -0.219593888
N   N41       1.0  0.06860  0.06270  0.96870  1.0000 -0.219593888
N   N42       1.0  0.23980  0.72500  0.87640  1.0000 -0.338088673
N   N43       1.0  0.00970  0.49090  0.88500  1.0000 -0.3311203238
N   N44       1.0  0.01280  0.96820  0.87410  1.0000 -0.302528676
N   N45       1.0  0.22550  0.23030  0.87560  1.0000 -0.3469384577
N   N46       1.0  0.08240  0.41680  0.78830  1.0000 -0.219593888
N   N47       1.0  0.16790  0.33910  0.78780  1.0000 -0.2112222605
N   N48       1.0  0.15280  0.14270  0.96750  1.0000 -0.2305503156
N   N49       1.0  0.81380  0.18030  0.21884  1.0000 -0.219593888
N   N50       1.0  0.89250  0.09610  0.21850  1.0000 -0.199005199
N   N51       1.0  0.66130  0.16390  0.02580  1.0000 -0.2112222605
N   N52       1.0  0.58640  0.07390  0.02450  1.0000 -0.219593888
N   N53       1.0  0.06270  0.06860  0.03130  1.0000 -0.219593888
N   N54       1.0  0.72500  0.23980  0.12360  1.0000 -0.338088673
N   N55       1.0  0.49090  0.00970  0.11500  1.0000 -0.3311203238
N   N56       1.0  0.96820  0.01280  0.12590  1.0000 -0.302528676
N   N57       1.0  0.23030  0.22550  0.12440  1.0000 -0.3469384577
N   N58       1.0  0.41680  0.08240  0.21170  1.0000 -0.219593888
N   N59       1.0  0.33910  0.16790  0.21220  1.0000 -0.2112222605
N   N60       1.0  0.14270  0.15280  0.03250  1.0000 -0.2305503156
N   N61       1.0  0.18620  0.81970  0.71884  1.0000 -0.219593888
N   N62       1.0  0.10750  0.90390  0.71850  1.0000 -0.199005199
N   N63       1.0  0.33870  0.83610  0.52580  1.0000 -0.2112222605
N   N64       1.0  0.41360  0.92610  0.52450  1.0000 -0.219593888
N   N65       1.0  0.93730  0.93140  0.53130  1.0000 -0.219593888
N   N66       1.0  0.27500  0.76020  0.62360  1.0000 -0.338088673
N   N67       1.0  0.50910  0.99030  0.61500  1.0000 -0.3311203238
N   N68       1.0  0.03180  0.98720  0.62590  1.0000 -0.302528676
N   N69       1.0  0.76970  0.77450  0.62440  1.0000 -0.3469384577
N   N70       1.0  0.58320  0.91760  0.71170  1.0000 -0.219593888
N   N71       1.0  0.66090  0.83210  0.71220  1.0000 -0.2112222605
N   N72       1.0  0.85730  0.84720  0.53250  1.0000 -0.2305503156
N   N73       1.0  0.68030  0.68620  0.96884  1.0000 -0.219593888
N   N74       1.0  0.59610  0.60750  0.96850  1.0000 -0.199005199
N   N75       1.0  0.66390  0.83870  0.77580  1.0000 -0.2112222605
N   N76       1.0  0.57390  0.91360  0.77450  1.0000 -0.219593888
N   N77       1.0  0.56860  0.43730  0.78130  1.0000 -0.219593888
N   N78       1.0  0.73980  0.77500  0.87360  1.0000 -0.338088673
N   N79       1.0  0.50970  0.00910  0.86500  1.0000 -0.3311203238
N   N80       1.0  0.51280  0.53180  0.87590  1.0000 -0.302528676
N   N81       1.0  0.72550  0.26970  0.87440  1.0000 -0.3469384577
N   N82       1.0  0.58240  0.08320  0.96170  1.0000 -0.219593888
N   N83       1.0  0.66790  0.16090  0.96220  1.0000 -0.2112222605
N   N84       1.0  0.65280  0.35730  0.78250  1.0000 -0.2305503156
N   N85       1.0  0.31970  0.31380  0.46884  1.0000 -0.219593888
N   N86       1.0  0.40390  0.39250  0.46850  1.0000 -0.199005199
N   N87       1.0  0.33610  0.16130  0.27580  1.0000 -0.2112222605
N   N88       1.0  0.42610  0.08640  0.27450  1.0000 -0.219593888
N   N89       1.0  0.43140  0.56270  0.28130  1.0000 -0.219593888
N   N90       1.0  0.26020  0.22500  0.37360  1.0000 -0.338088673
N   N91       1.0  0.49030  0.99090  0.36500  1.0000 -0.3311203238
N   N92       1.0  0.48720  0.46820  0.37590  1.0000 -0.302528676
N   N93       1.0  0.27450  0.73030  0.37440  1.0000 -0.3469384577
N   N94       1.0  0.41760  0.91680  0.46170  1.0000 -0.219593888
N   N95       1.0  0.33210  0.83910  0.46220  1.0000 -0.2112222605
N   N96       1.0  0.34720  0.64270  0.28250  1.0000 -0.2305503156
O   O1        1.0  0.81430  0.07740  0.12970  1.0000 -0.1598359952
O   O2        1.0  0.57370  0.17480  0.11670  1.0000 -0.178017598
O   O3        1.0  0.08590  0.17640  0.14350  1.0000 -0.1918968042
O   O4        1.0  0.32940  0.06390  0.12210  1.0000 -0.1598359952
O   O5        1.0  0.18570  0.92260  0.62970  1.0000 -0.1598359952
O   O6        1.0  0.42630  0.82520  0.61670  1.0000 -0.178017598
O   O7        1.0  0.91410  0.82360  0.64350  1.0000 -0.1918968042
O   O8        1.0  0.67060  0.93610  0.62210  1.0000 -0.1598359952
O   O9        1.0  0.42260  0.31430  0.37970  1.0000 -0.1598359952
O   O10       1.0  0.32520  0.07370  0.36670  1.0000 -0.178017598
O   O11       1.0  0.32360  0.58590  0.39350  1.0000 -0.1918968042
O   O12       1.0  0.43610  0.82940  0.37210  1.0000 -0.1598359952
O   O13       1.0  0.57740  0.68570  0.87970  1.0000 -0.1598359952
O   O14       1.0  0.67480  0.92630  0.86670  1.0000 -0.178017598
O   O15       1.0  0.67640  0.41410  0.89350  1.0000 -0.1918968042
O   O16       1.0  0.56390  0.17060  0.87210  1.0000 -0.1598359952
O   O17       1.0  0.68570  0.57740  0.12030  1.0000 -0.1598359952
O   O18       1.0  0.92630  0.67480  0.13330  1.0000 -0.178017598
O   O19       1.0  0.41410  0.67640  0.10650  1.0000 -0.1918968042
O   O20       1.0  0.17060  0.56390  0.12790  1.0000 -0.1598359952
O   O21       1.0  0.31430  0.42260  0.62030  1.0000 -0.1598359952
O   O22       1.0  0.07370  0.32520  0.63330  1.0000 -0.178017598
O   O23       1.0  0.58590  0.32360  0.60650  1.0000 -0.1918968042
O   O24       1.0  0.82940  0.43610  0.62790  1.0000 -0.1598359952
O   O25       1.0  0.07740  0.81430  0.87030  1.0000 -0.1598359952
O   O26       1.0  0.17480  0.57370  0.88330  1.0000 -0.178017598
O   O27       1.0  0.17640  0.08590  0.85650  1.0000 -0.1918968042
O   O28       1.0  0.06390  0.32940  0.87790  1.0000 -0.1598359952
O   O29       1.0  0.92260  0.18570  0.37030  1.0000 -0.1598359952
O   O30       1.0  0.82520  0.42630  0.38330  1.0000 -0.178017598
O   O31       1.0  0.82360  0.91410  0.35650  1.0000 -0.1918968042
O   O32       1.0  0.93610  0.67060  0.37790  1.0000 -0.1598359952
