# DDEC6 charges by PACMAN v1.1 (https://github.com/mtap-research/PACMAN-charge/)
data_2020[Cu][sql]2[ASR]9
_chemical_formula_sum              "Cu8 H136 C176 I8 N24 O8"
_cell_length_a       17.7114
_cell_length_b       12.8738
_cell_length_c       23.576
_cell_angle_alpha    90
_cell_angle_beta     110.88
_cell_angle_gamma    90

_symmetry_space_group_name_H-M    "P 1"
_symmetry_Int_Tables_number       1

loop_
  _symmetry_equiv_pos_as_xyz
  'x, y, z'

loop_
  _atom_site_type_symbol
  _atom_site_label
  _atom_site_symmetry_multiplicity
  _atom_site_fract_x
  _atom_site_fract_y
  _atom_site_fract_z
  _atom_site_occupancy
  _atom_site_charge
Cu  Cu1       1.0  0.29938  0.30070  0.74716  1.0000 0.1996379591
Cu  Cu2       1.0  0.33033  0.70298  0.24947  1.0000 0.1753576881
Cu  Cu3       1.0  0.20062  0.80070  0.25284  1.0000 0.19486906
Cu  Cu4       1.0  0.16967  0.20298  0.75053  1.0000 0.1753576881
Cu  Cu5       1.0  0.70062  0.69930  0.25284  1.0000 0.19486906
Cu  Cu6       1.0  0.66967  0.29702  0.75053  1.0000 0.1753576881
Cu  Cu7       1.0  0.79938  0.19930  0.74716  1.0000 0.1996379591
Cu  Cu8       1.0  0.83033  0.79702  0.24947  1.0000 0.1753576881
H   H1        1.0  0.41498  0.17850  0.71323  1.0000 0.09878306
H   H2        1.0  0.45407  0.43516  0.78723  1.0000 0.09878306
H   H3        1.0  0.50176  0.82927  0.13548  1.0000 0.1223022276
H   H4        1.0  0.51806  0.85640  0.05257  1.0000 0.1223022276
H   H5        1.0  0.50027  0.14484  0.56284  1.0000 0.1223022276
H   H6        1.0  0.47659  0.17258  0.64107  1.0000 0.1223022276
H   H7        1.0  0.52726  0.71465  0.90169  1.0000 0.1223022276
H   H8        1.0  0.45267  0.81803  0.21411  1.0000 0.09878306
H   H9        1.0  0.52715  0.28273  0.41644  1.0000 0.112624621
H   H10       1.0  0.50837  0.56720  0.85438  1.0000 0.1283245388
H   H11       1.0  0.60147  0.05383  0.56848  1.0000 0.112624621
H   H12       1.0  0.35472  0.59065  0.05419  1.0000 0.1283245388
H   H13       1.0  0.32139  0.65415  0.37317  1.0000 0.09878306
H   H14       1.0  0.35878  0.52293  0.44474  1.0000 0.1283245388
H   H15       1.0  0.32919  0.40750  0.55131  1.0000 0.1283245388
H   H16       1.0  0.31465  0.58137  0.13666  1.0000 0.09878306
H   H17       1.0  0.28955  0.38376  0.85914  1.0000 0.09878306
H   H18       1.0  0.27645  0.40971  0.62779  1.0000 0.09878306
H   H19       1.0  0.71724  0.06267  0.03858  1.0000 0.1223022276
H   H20       1.0  0.63108  0.93243  0.05374  1.0000 0.112624621
H   H21       1.0  0.46006  0.54251  0.29087  1.0000 0.09878306
H   H22       1.0  0.54738  0.87354  0.87360  1.0000 0.112624621
H   H23       1.0  0.56897  0.13384  0.39608  1.0000 0.112624621
H   H24       1.0  0.34737  0.50370  0.93378  1.0000 0.1283245388
H   H25       1.0  0.69015  0.92507  0.56615  1.0000 0.1223022276
H   H26       1.0  0.63014  0.00319  0.85878  1.0000 0.1362413502
H   H27       1.0  0.66007  0.00427  0.39454  1.0000 0.1283245388
H   H28       1.0  0.50729  0.41500  0.36330  1.0000 0.1223022276
H   H29       1.0  0.81218  0.13893  0.01404  1.0000 0.112624621
H   H30       1.0  0.80630  0.23139  0.96728  1.0000 0.1223022276
H   H31       1.0  0.74196  0.22384  0.00056  1.0000 0.1223022276
H   H32       1.0  0.73071  0.77296  0.53182  1.0000 0.1223022276
H   H33       1.0  0.80909  0.76276  0.51344  1.0000 0.1223022276
H   H34       1.0  0.80471  0.85164  0.55963  1.0000 0.112624621
H   H35       1.0  0.08502  0.67850  0.28677  1.0000 0.09878306
H   H36       1.0  0.04593  0.93516  0.21277  1.0000 0.09878306
H   H37       1.0  0.99824  0.32927  0.86452  1.0000 0.1223022276
H   H38       1.0  0.98194  0.35640  0.94743  1.0000 0.1223022276
H   H39       1.0  0.99973  0.64484  0.43716  1.0000 0.1223022276
H   H40       1.0  0.02341  0.67258  0.35893  1.0000 0.1223022276
H   H41       1.0  0.97274  0.21465  0.09831  1.0000 0.1223022276
H   H42       1.0  0.04733  0.31803  0.78589  1.0000 0.09878306
H   H43       1.0  0.97285  0.78273  0.58356  1.0000 0.112624621
H   H44       1.0  0.99163  0.06720  0.14562  1.0000 0.1283245388
H   H45       1.0  0.89853  0.55383  0.43152  1.0000 0.112624621
H   H46       1.0  0.14528  0.09065  0.94581  1.0000 0.1283245388
H   H47       1.0  0.17861  0.15415  0.62683  1.0000 0.09878306
H   H48       1.0  0.14122  0.02293  0.55526  1.0000 0.1283245388
H   H49       1.0  0.17081  0.90750  0.44869  1.0000 0.1283245388
H   H50       1.0  0.18535  0.08137  0.86334  1.0000 0.09878306
H   H51       1.0  0.21045  0.88376  0.14086  1.0000 0.09878306
H   H52       1.0  0.22355  0.90971  0.37221  1.0000 0.09878306
H   H53       1.0  0.78276  0.56267  0.96142  1.0000 0.1223022276
H   H54       1.0  0.86892  0.43243  0.94626  1.0000 0.112624621
H   H55       1.0  0.03994  0.04251  0.70913  1.0000 0.09878306
H   H56       1.0  0.95262  0.37354  0.12640  1.0000 0.112624621
H   H57       1.0  0.93103  0.63384  0.60392  1.0000 0.112624621
H   H58       1.0  0.15263  0.00370  0.06622  1.0000 0.1283245388
H   H59       1.0  0.80985  0.42507  0.43385  1.0000 0.1223022276
H   H60       1.0  0.86986  0.50319  0.14122  1.0000 0.1362413502
H   H61       1.0  0.83993  0.50427  0.60546  1.0000 0.1283245388
H   H62       1.0  0.99271  0.91500  0.63670  1.0000 0.1223022276
H   H63       1.0  0.68782  0.63893  0.98596  1.0000 0.112624621
H   H64       1.0  0.69370  0.73139  0.03272  1.0000 0.1223022276
H   H65       1.0  0.75804  0.72384  0.99944  1.0000 0.1223022276
H   H66       1.0  0.76929  0.27296  0.46818  1.0000 0.1223022276
H   H67       1.0  0.69091  0.26276  0.48656  1.0000 0.1223022276
H   H68       1.0  0.69529  0.35164  0.44037  1.0000 0.112624621
H   H69       1.0  0.58502  0.82150  0.28677  1.0000 0.09878306
H   H70       1.0  0.54593  0.56484  0.21277  1.0000 0.09878306
H   H71       1.0  0.49824  0.17073  0.86452  1.0000 0.1223022276
H   H72       1.0  0.48194  0.14360  0.94743  1.0000 0.1223022276
H   H73       1.0  0.49973  0.85516  0.43716  1.0000 0.1223022276
H   H74       1.0  0.52341  0.82742  0.35893  1.0000 0.1223022276
H   H75       1.0  0.47274  0.28535  0.09831  1.0000 0.1223022276
H   H76       1.0  0.54733  0.18197  0.78589  1.0000 0.09878306
H   H77       1.0  0.47285  0.71727  0.58356  1.0000 0.112624621
H   H78       1.0  0.49163  0.43280  0.14562  1.0000 0.1283245388
H   H79       1.0  0.39853  0.94617  0.43152  1.0000 0.112624621
H   H80       1.0  0.64528  0.40935  0.94581  1.0000 0.1283245388
H   H81       1.0  0.67861  0.34585  0.62683  1.0000 0.09878306
H   H82       1.0  0.64122  0.47707  0.55526  1.0000 0.1283245388
H   H83       1.0  0.67081  0.59250  0.44869  1.0000 0.1283245388
H   H84       1.0  0.68535  0.41863  0.86334  1.0000 0.09878306
H   H85       1.0  0.71045  0.61624  0.14086  1.0000 0.09878306
H   H86       1.0  0.72355  0.59029  0.37221  1.0000 0.09878306
H   H87       1.0  0.28276  0.93733  0.96142  1.0000 0.1223022276
H   H88       1.0  0.36892  0.06757  0.94626  1.0000 0.112624621
H   H89       1.0  0.53994  0.45749  0.70913  1.0000 0.09878306
H   H90       1.0  0.45262  0.12646  0.12640  1.0000 0.112624621
H   H91       1.0  0.43103  0.86616  0.60392  1.0000 0.112624621
H   H92       1.0  0.65263  0.49630  0.06622  1.0000 0.1283245388
H   H93       1.0  0.30985  0.07493  0.43385  1.0000 0.1223022276
H   H94       1.0  0.36986  0.99681  0.14122  1.0000 0.1362413502
H   H95       1.0  0.33993  0.99573  0.60546  1.0000 0.1283245388
H   H96       1.0  0.49271  0.58500  0.63670  1.0000 0.1223022276
H   H97       1.0  0.18782  0.86107  0.98596  1.0000 0.112624621
H   H98       1.0  0.19370  0.76861  0.03272  1.0000 0.1223022276
H   H99       1.0  0.25804  0.77616  0.99944  1.0000 0.1223022276
H   H100      1.0  0.26929  0.22704  0.46818  1.0000 0.1223022276
H   H101      1.0  0.19091  0.23724  0.48656  1.0000 0.1223022276
H   H102      1.0  0.19529  0.14836  0.44037  1.0000 0.112624621
H   H103      1.0  0.91498  0.32150  0.71323  1.0000 0.09878306
H   H104      1.0  0.95407  0.06484  0.78723  1.0000 0.09878306
H   H105      1.0  0.00176  0.67073  0.13548  1.0000 0.1223022276
H   H106      1.0  0.01806  0.64360  0.05257  1.0000 0.1223022276
H   H107      1.0  0.00027  0.35516  0.56284  1.0000 0.1223022276
H   H108      1.0  0.97659  0.32742  0.64107  1.0000 0.1223022276
H   H109      1.0  0.02726  0.78535  0.90169  1.0000 0.1223022276
H   H110      1.0  0.95267  0.68197  0.21411  1.0000 0.09878306
H   H111      1.0  0.02715  0.21727  0.41644  1.0000 0.112624621
H   H112      1.0  0.00837  0.93280  0.85438  1.0000 0.1283245388
H   H113      1.0  0.10147  0.44617  0.56848  1.0000 0.112624621
H   H114      1.0  0.85472  0.90935  0.05419  1.0000 0.1283245388
H   H115      1.0  0.82139  0.84585  0.37317  1.0000 0.09878306
H   H116      1.0  0.85878  0.97707  0.44474  1.0000 0.1283245388
H   H117      1.0  0.82919  0.09250  0.55131  1.0000 0.1283245388
H   H118      1.0  0.81465  0.91863  0.13666  1.0000 0.09878306
H   H119      1.0  0.78955  0.11624  0.85914  1.0000 0.09878306
H   H120      1.0  0.77645  0.09029  0.62779  1.0000 0.09878306
H   H121      1.0  0.21724  0.43733  0.03858  1.0000 0.1223022276
H   H122      1.0  0.13108  0.56757  0.05374  1.0000 0.112624621
H   H123      1.0  0.96006  0.95749  0.29087  1.0000 0.09878306
H   H124      1.0  0.04738  0.62646  0.87360  1.0000 0.112624621
H   H125      1.0  0.06897  0.36616  0.39608  1.0000 0.112624621
H   H126      1.0  0.84737  0.99630  0.93378  1.0000 0.1283245388
H   H127      1.0  0.19015  0.57493  0.56615  1.0000 0.1223022276
H   H128      1.0  0.13014  0.49681  0.85878  1.0000 0.1362413502
H   H129      1.0  0.16007  0.49573  0.39454  1.0000 0.1283245388
H   H130      1.0  0.00729  0.08500  0.36330  1.0000 0.1223022276
H   H131      1.0  0.31218  0.36107  0.01404  1.0000 0.112624621
H   H132      1.0  0.30630  0.26861  0.96728  1.0000 0.1223022276
H   H133      1.0  0.24196  0.27616  0.00056  1.0000 0.1223022276
H   H134      1.0  0.23071  0.72704  0.53182  1.0000 0.1223022276
H   H135      1.0  0.30909  0.73724  0.51344  1.0000 0.1223022276
H   H136      1.0  0.30471  0.64836  0.55963  1.0000 0.112624621
C   C1        1.0  0.53130  0.80080  0.97510  1.0000 0.1283245388
C   C2        1.0  0.39820  0.22600  0.68020  1.0000 0.0694400218
C   C3        1.0  0.40980  0.28980  0.58730  1.0000 0.09878306
C   C4        1.0  0.42930  0.45210  0.81580  1.0000 0.0523945213
C   C5        1.0  0.46190  0.77890  0.13410  1.0000 -0.1816756157
C   C6        1.0  0.43240  0.71200  0.08490  1.0000 0.0886625758
C   C7        1.0  0.50540  0.80000  0.02480  1.0000 -0.2113141828
C   C8        1.0  0.49150  0.20070  0.53490  1.0000 -0.229560949
C   C9        1.0  0.52530  0.19800  0.48860  1.0000 0.1283245388
C   C10       1.0  0.44600  0.28510  0.53870  1.0000 0.1996379591
C   C11       1.0  0.43480  0.22150  0.63700  1.0000 -0.1816756157
C   C12       1.0  0.50980  0.71770  0.93540  1.0000 -0.2387821091
C   C13       1.0  0.43240  0.77130  0.18090  1.0000 0.0694400218
C   C14       1.0  0.46170  0.71760  0.03290  1.0000 0.1996379591
C   C15       1.0  0.50630  0.28130  0.44840  1.0000 -0.247468602
C   C16       1.0  0.43170  0.55330  0.90070  1.0000 0.0791688337
C   C17       1.0  0.57770  0.11080  0.48460  1.0000 0.0315203764
C   C18       1.0  0.46330  0.52970  0.85650  1.0000 -0.189510098
C   C19       1.0  0.61380  0.04520  0.53270  1.0000 -0.1230920088
C   C20       1.0  0.46300  0.63980  0.94500  1.0000 0.2110148332
C   C21       1.0  0.43510  0.44970  0.41040  1.0000 0.0886625758
C   C22       1.0  0.37610  0.63830  0.08680  1.0000 -0.1816756157
C   C23       1.0  0.35750  0.60220  0.36960  1.0000 0.0694400218
C   C24       1.0  0.38040  0.52470  0.41320  1.0000 -0.1729894356
C   C25       1.0  0.58300  0.88810  0.96590  1.0000 0.0315203764
C   C26       1.0  0.34870  0.36020  0.58430  1.0000 -0.189510098
C   C27       1.0  0.67930  0.04550  0.94790  1.0000 0.2324611246
C   C28       1.0  0.35150  0.63440  0.13570  1.0000 0.0694400218
C   C29       1.0  0.45800  0.36170  0.45390  1.0000 0.2110148332
C   C30       1.0  0.68530  0.95300  0.48030  1.0000 0.2324611246
C   C31       1.0  0.33540  0.42090  0.85810  1.0000 0.0694400218
C   C32       1.0  0.31710  0.36010  0.63000  1.0000 0.0791688337
C   C33       1.0  0.68200  0.02470  0.00500  1.0000 -0.229560949
C   C34       1.0  0.63130  0.94550  0.01420  1.0000 -0.1296842658
C   C35       1.0  0.43860  0.53860  0.32240  1.0000 0.0588892288
C   C36       1.0  0.58200  0.91160  0.90740  1.0000 -0.1230920088
C   C37       1.0  0.59440  0.09290  0.43130  1.0000 -0.1422607838
C   C38       1.0  0.36840  0.49420  0.90230  1.0000 -0.1612731033
C   C39       1.0  0.66650  0.96810  0.53160  1.0000 -0.2241207324
C   C40       1.0  0.63030  0.98890  0.89840  1.0000 -0.2113141828
C   C41       1.0  0.64840  0.01500  0.43040  1.0000 -0.2113141828
C   C42       1.0  0.46630  0.46100  0.36520  1.0000 -0.195407983
C   C43       1.0  0.77510  0.18380  0.98290  1.0000 -0.2387821091
C   C44       1.0  0.77340  0.81160  0.52360  1.0000 -0.2387821091
C   C45       1.0  0.96870  0.30080  0.02490  1.0000 0.1283245388
C   C46       1.0  0.10180  0.72600  0.31980  1.0000 0.0588892288
C   C47       1.0  0.09020  0.78980  0.41270  1.0000 0.09878306
C   C48       1.0  0.07070  0.95210  0.18420  1.0000 0.0523945213
C   C49       1.0  0.03810  0.27890  0.86590  1.0000 -0.1816756157
C   C50       1.0  0.06760  0.21200  0.91510  1.0000 0.0886625758
C   C51       1.0  0.99460  0.30000  0.97520  1.0000 -0.2113141828
C   C52       1.0  0.00850  0.70070  0.46510  1.0000 -0.229560949
C   C53       1.0  0.97470  0.69800  0.51140  1.0000 0.1283245388
C   C54       1.0  0.05400  0.78510  0.46130  1.0000 0.1996379591
C   C55       1.0  0.06520  0.72150  0.36300  1.0000 -0.1816756157
C   C56       1.0  0.99020  0.21770  0.06460  1.0000 -0.2387821091
C   C57       1.0  0.06760  0.27130  0.81910  1.0000 0.0694400218
C   C58       1.0  0.03830  0.21760  0.96710  1.0000 0.1996379591
C   C59       1.0  0.99370  0.78130  0.55160  1.0000 -0.247468602
C   C60       1.0  0.06830  0.05330  0.09930  1.0000 0.0791688337
C   C61       1.0  0.92230  0.61080  0.51540  1.0000 0.0315203764
C   C62       1.0  0.03670  0.02970  0.14350  1.0000 -0.189510098
C   C63       1.0  0.88620  0.54520  0.46730  1.0000 -0.1230920088
C   C64       1.0  0.03700  0.13980  0.05500  1.0000 0.2110148332
C   C65       1.0  0.06490  0.94970  0.58960  1.0000 0.0886625758
C   C66       1.0  0.12390  0.13830  0.91320  1.0000 -0.1816756157
C   C67       1.0  0.14250  0.10220  0.63040  1.0000 0.0694400218
C   C68       1.0  0.11960  0.02470  0.58680  1.0000 -0.1729894356
C   C69       1.0  0.91700  0.38810  0.03410  1.0000 0.0315203764
C   C70       1.0  0.15130  0.86020  0.41570  1.0000 -0.189510098
C   C71       1.0  0.82070  0.54550  0.05210  1.0000 0.2324611246
C   C72       1.0  0.14850  0.13440  0.86430  1.0000 0.0694400218
C   C73       1.0  0.04200  0.86170  0.54610  1.0000 0.2110148332
C   C74       1.0  0.81470  0.45300  0.51970  1.0000 0.2324611246
C   C75       1.0  0.16460  0.92090  0.14190  1.0000 0.0694400218
C   C76       1.0  0.18290  0.86010  0.37000  1.0000 0.0791688337
C   C77       1.0  0.81800  0.52470  0.99500  1.0000 -0.229560949
C   C78       1.0  0.86870  0.44550  0.98580  1.0000 -0.1296842658
C   C79       1.0  0.06140  0.03860  0.67760  1.0000 0.0588892288
C   C80       1.0  0.91800  0.41160  0.09260  1.0000 -0.1230920088
C   C81       1.0  0.90560  0.59290  0.56870  1.0000 -0.1422607838
C   C82       1.0  0.13160  0.99420  0.09770  1.0000 -0.1612731033
C   C83       1.0  0.83350  0.46810  0.46840  1.0000 -0.2241207324
C   C84       1.0  0.86970  0.48890  0.10160  1.0000 -0.2113141828
C   C85       1.0  0.85160  0.51500  0.56960  1.0000 -0.2113141828
C   C86       1.0  0.03370  0.96100  0.63480  1.0000 -0.195407983
C   C87       1.0  0.72490  0.68380  0.01710  1.0000 -0.2387821091
C   C88       1.0  0.72660  0.31160  0.47640  1.0000 -0.2387821091
C   C89       1.0  0.46870  0.19920  0.02490  1.0000 0.1283245388
C   C90       1.0  0.60180  0.77400  0.31980  1.0000 0.0694400218
C   C91       1.0  0.59020  0.71020  0.41270  1.0000 0.09878306
C   C92       1.0  0.57070  0.54790  0.18420  1.0000 0.0523945213
C   C93       1.0  0.53810  0.22110  0.86590  1.0000 -0.1816756157
C   C94       1.0  0.56760  0.28800  0.91510  1.0000 0.0886625758
C   C95       1.0  0.49460  0.20000  0.97520  1.0000 -0.2113141828
C   C96       1.0  0.50850  0.79930  0.46510  1.0000 -0.229560949
C   C97       1.0  0.47470  0.80200  0.51140  1.0000 0.1283245388
C   C98       1.0  0.55400  0.71490  0.46130  1.0000 0.1996379591
C   C99       1.0  0.56520  0.77850  0.36300  1.0000 -0.1816756157
C   C100      1.0  0.49020  0.28230  0.06460  1.0000 -0.2387821091
C   C101      1.0  0.56760  0.22870  0.81910  1.0000 0.0694400218
C   C102      1.0  0.53830  0.28240  0.96710  1.0000 0.1996379591
C   C103      1.0  0.49370  0.71870  0.55160  1.0000 -0.247468602
C   C104      1.0  0.56830  0.44670  0.09930  1.0000 0.0791688337
C   C105      1.0  0.42230  0.88920  0.51540  1.0000 0.0315203764
C   C106      1.0  0.53670  0.47030  0.14350  1.0000 -0.189510098
C   C107      1.0  0.38620  0.95480  0.46730  1.0000 -0.1230920088
C   C108      1.0  0.53700  0.36020  0.05500  1.0000 0.2110148332
C   C109      1.0  0.56490  0.55030  0.58960  1.0000 0.0886625758
C   C110      1.0  0.62390  0.36170  0.91320  1.0000 -0.1816756157
C   C111      1.0  0.64250  0.39780  0.63040  1.0000 0.0694400218
C   C112      1.0  0.61960  0.47530  0.58680  1.0000 -0.1729894356
C   C113      1.0  0.41700  0.11190  0.03410  1.0000 0.0315203764
C   C114      1.0  0.65130  0.63980  0.41570  1.0000 -0.189510098
C   C115      1.0  0.32070  0.95450  0.05210  1.0000 0.2324611246
C   C116      1.0  0.64850  0.36560  0.86430  1.0000 0.0694400218
C   C117      1.0  0.54200  0.63830  0.54610  1.0000 0.2110148332
C   C118      1.0  0.31470  0.04700  0.51970  1.0000 0.2324611246
C   C119      1.0  0.66460  0.57910  0.14190  1.0000 0.0694400218
C   C120      1.0  0.68290  0.63990  0.37000  1.0000 0.0791688337
C   C121      1.0  0.31800  0.97530  0.99500  1.0000 -0.229560949
C   C122      1.0  0.36870  0.05450  0.98580  1.0000 -0.1296842658
C   C123      1.0  0.56140  0.46140  0.67760  1.0000 0.0588892288
C   C124      1.0  0.41800  0.08840  0.09260  1.0000 -0.1230920088
C   C125      1.0  0.40560  0.90710  0.56870  1.0000 -0.1422607838
C   C126      1.0  0.63160  0.50580  0.09770  1.0000 -0.1612731033
C   C127      1.0  0.33350  0.03190  0.46840  1.0000 -0.2241207324
C   C128      1.0  0.36970  0.01110  0.10160  1.0000 -0.2113141828
C   C129      1.0  0.35160  0.98500  0.56960  1.0000 -0.2113141828
C   C130      1.0  0.53370  0.53900  0.63480  1.0000 -0.195407983
C   C131      1.0  0.22490  0.81620  0.01710  1.0000 -0.2387821091
C   C132      1.0  0.22660  0.18840  0.47640  1.0000 -0.2387821091
C   C133      1.0  0.03130  0.69920  0.97510  1.0000 0.1283245388
C   C134      1.0  0.89820  0.27400  0.68020  1.0000 0.0694400218
C   C135      1.0  0.90980  0.21020  0.58730  1.0000 0.09878306
C   C136      1.0  0.92930  0.04790  0.81580  1.0000 0.0523945213
C   C137      1.0  0.96190  0.72110  0.13410  1.0000 -0.1816756157
C   C138      1.0  0.93240  0.78800  0.08490  1.0000 0.0886625758
C   C139      1.0  0.00540  0.70000  0.02480  1.0000 -0.2113141828
C   C140      1.0  0.99150  0.29930  0.53490  1.0000 -0.229560949
C   C141      1.0  0.02530  0.30200  0.48860  1.0000 0.1283245388
C   C142      1.0  0.94600  0.21490  0.53870  1.0000 0.1996379591
C   C143      1.0  0.93480  0.27850  0.63700  1.0000 -0.1816756157
C   C144      1.0  0.00980  0.78230  0.93540  1.0000 -0.2387821091
C   C145      1.0  0.93240  0.72870  0.18090  1.0000 0.0694400218
C   C146      1.0  0.96170  0.78240  0.03290  1.0000 0.1996379591
C   C147      1.0  0.00630  0.21870  0.44840  1.0000 -0.247468602
C   C148      1.0  0.93170  0.94670  0.90070  1.0000 0.0791688337
C   C149      1.0  0.07770  0.38920  0.48460  1.0000 0.0315203764
C   C150      1.0  0.96330  0.97030  0.85650  1.0000 -0.189510098
C   C151      1.0  0.11380  0.45480  0.53270  1.0000 -0.1230920088
C   C152      1.0  0.96300  0.86020  0.94500  1.0000 0.2110148332
C   C153      1.0  0.93510  0.05030  0.41040  1.0000 0.0886625758
C   C154      1.0  0.87610  0.86170  0.08680  1.0000 -0.1816756157
C   C155      1.0  0.85750  0.89780  0.36960  1.0000 0.0694400218
C   C156      1.0  0.88040  0.97530  0.41320  1.0000 -0.1729894356
C   C157      1.0  0.08300  0.61190  0.96590  1.0000 0.0315203764
C   C158      1.0  0.84870  0.13980  0.58430  1.0000 -0.1816756157
C   C159      1.0  0.17930  0.45450  0.94790  1.0000 0.2324611246
C   C160      1.0  0.85150  0.86560  0.13570  1.0000 0.0694400218
C   C161      1.0  0.95800  0.13830  0.45390  1.0000 0.2110148332
C   C162      1.0  0.18530  0.54700  0.48030  1.0000 0.2324611246
C   C163      1.0  0.83540  0.07910  0.85810  1.0000 0.0694400218
C   C164      1.0  0.81710  0.13990  0.63000  1.0000 0.0791688337
C   C165      1.0  0.18200  0.47530  0.00500  1.0000 -0.229560949
C   C166      1.0  0.13130  0.55450  0.01420  1.0000 -0.1296842658
C   C167      1.0  0.93860  0.96140  0.32240  1.0000 0.0588892288
C   C168      1.0  0.08200  0.58840  0.90740  1.0000 -0.1230920088
C   C169      1.0  0.09440  0.40710  0.43130  1.0000 -0.1422607838
C   C170      1.0  0.86840  0.00580  0.90230  1.0000 -0.1612731033
C   C171      1.0  0.16650  0.53190  0.53160  1.0000 -0.2241207324
C   C172      1.0  0.13030  0.51110  0.89840  1.0000 -0.2113141828
C   C173      1.0  0.14840  0.48500  0.43040  1.0000 -0.2113141828
C   C174      1.0  0.96630  0.03900  0.36520  1.0000 -0.195407983
C   C175      1.0  0.27510  0.31620  0.98290  1.0000 -0.2387821091
C   C176      1.0  0.27340  0.68840  0.52360  1.0000 -0.2387821091
I   I1        1.0  0.34455  0.89486  0.29092  1.0000 -0.4454401248
I   I2        1.0  0.31512  0.11697  0.80065  1.0000 -0.4449431413
I   I3        1.0  0.15545  0.39486  0.70908  1.0000 -0.4454401248
I   I4        1.0  0.18488  0.61697  0.19935  1.0000 -0.4449431413
I   I5        1.0  0.65545  0.10514  0.70908  1.0000 -0.4454401248
I   I6        1.0  0.68488  0.88303  0.19935  1.0000 -0.4454401248
I   I7        1.0  0.84455  0.60514  0.29092  1.0000 -0.4454401248
I   I8        1.0  0.81512  0.38303  0.80065  1.0000 -0.4454401248
N   N1        1.0  0.37660  0.70110  0.18200  1.0000 -0.1816756157
N   N2        1.0  0.38300  0.60860  0.32300  1.0000 -0.1816756157
N   N3        1.0  0.36310  0.39790  0.81350  1.0000 -0.1729894356
N   N4        1.0  0.33980  0.29510  0.67710  1.0000 -0.189510098
N   N5        1.0  0.43860  0.63880  0.99280  1.0000 -0.3247917407
N   N6        1.0  0.42760  0.36440  0.49930  1.0000 -0.3378134184
N   N7        1.0  0.12340  0.20110  0.81800  1.0000 -0.1816756157
N   N8        1.0  0.11700  0.10860  0.67700  1.0000 -0.1816756157
N   N9        1.0  0.13690  0.89790  0.18650  1.0000 -0.1729894356
N   N10       1.0  0.16020  0.79510  0.32290  1.0000 -0.189510098
N   N11       1.0  0.06140  0.13880  0.00720  1.0000 -0.3247917407
N   N12       1.0  0.07240  0.86440  0.50070  1.0000 -0.3378134184
N   N13       1.0  0.62340  0.29890  0.81800  1.0000 -0.1816756157
N   N14       1.0  0.61700  0.39140  0.67700  1.0000 -0.1816756157
N   N15       1.0  0.63690  0.60210  0.18650  1.0000 -0.1729894356
N   N16       1.0  0.66020  0.70490  0.32290  1.0000 -0.189510098
N   N17       1.0  0.56140  0.36120  0.00720  1.0000 -0.3247917407
N   N18       1.0  0.57240  0.63560  0.50070  1.0000 -0.3378134184
N   N19       1.0  0.87660  0.79890  0.18200  1.0000 -0.1816756157
N   N20       1.0  0.88300  0.89140  0.32300  1.0000 -0.1816756157
N   N21       1.0  0.86310  0.10210  0.81350  1.0000 -0.1729894356
N   N22       1.0  0.83980  0.20490  0.67710  1.0000 -0.189510098
N   N23       1.0  0.93860  0.86120  0.99280  1.0000 -0.3252222055
N   N24       1.0  0.92760  0.13560  0.49930  1.0000 -0.3378134184
O   O1        1.0  0.72430  0.12160  0.93460  1.0000 -0.1467061553
O   O2        1.0  0.73820  0.87980  0.47440  1.0000 -0.1467061553
O   O3        1.0  0.77570  0.62160  0.06540  1.0000 -0.1467061553
O   O4        1.0  0.76180  0.37980  0.52560  1.0000 -0.1467061553
O   O5        1.0  0.27570  0.87840  0.06540  1.0000 -0.1467061553
O   O6        1.0  0.26180  0.12020  0.52560  1.0000 -0.1422607838
O   O7        1.0  0.22430  0.37840  0.93460  1.0000 -0.1467061553
O   O8        1.0  0.23820  0.62020  0.47440  1.0000 -0.1422607838
