# DDEC6 charges by PACMAN v1.1 (https://github.com/mtap-research/PACMAN-charge/)
data_2020[Zn][nan]3[ASR]6
_chemical_formula_sum              "Zn6 H144 C168 N24 O30"
_cell_length_a       12.41
_cell_length_b       15.33
_cell_length_c       26.64
_cell_angle_alpha    76.96
_cell_angle_beta     80.97
_cell_angle_gamma    78.43

_symmetry_space_group_name_H-M    "P 1"
_symmetry_Int_Tables_number       1

loop_
  _symmetry_equiv_pos_as_xyz
  'x, y, z'

loop_
  _atom_site_type_symbol
  _atom_site_label
  _atom_site_symmetry_multiplicity
  _atom_site_fract_x
  _atom_site_fract_y
  _atom_site_fract_z
  _atom_site_occupancy
  _atom_site_charge
Zn  Zn1       1.0  0.72925  0.60949  0.14882  1.0000 0.7010226543
Zn  Zn2       1.0  0.86257  0.10536  0.17206  1.0000 0.7010226543
Zn  Zn3       1.0  0.24536  0.77185  0.49773  1.0000 0.7059168812
Zn  Zn4       1.0  0.27075  0.39051  0.85118  1.0000 0.7010226543
Zn  Zn5       1.0  0.13743  0.89464  0.82794  1.0000 0.7010226543
Zn  Zn6       1.0  0.75464  0.22815  0.50227  1.0000 0.7059168812
H   H1        1.0  0.80940  0.55800  0.25020  1.0000 0.1104794887
H   H2        1.0  0.91030  0.43900  0.30100  1.0000 0.1295529779
H   H3        1.0  0.99170  0.31710  0.17860  1.0000 0.120046301
H   H4        1.0  0.88330  0.44440  0.13230  1.0000 0.1104794887
H   H5        1.0  0.10280  0.22840  0.22250  1.0000 0.1104794887
H   H6        1.0  0.00420  0.17540  0.25080  1.0000 0.1104794887
H   H7        1.0  0.92660  0.31490  0.34310  1.0000 0.120046301
H   H8        1.0  0.05830  0.28890  0.34360  1.0000 0.120046301
H   H9        1.0  0.97180  0.16830  0.39480  1.0000 0.120046301
H   H10       1.0  0.91610  0.16120  0.34580  1.0000 0.1104794887
H   H11       1.0  0.17520  0.09020  0.27660  1.0000 0.120046301
H   H12       1.0  0.19890  0.17450  0.29710  1.0000 0.1104794887
H   H13       1.0  0.98000  0.03950  0.43020  1.0000 0.1383285525
H   H14       1.0  0.04680  0.91280  0.48460  1.0000 0.1104794887
H   H15       1.0  0.31890  0.87510  0.39170  1.0000 0.1017346527
H   H16       1.0  0.26770  0.00510  0.33590  1.0000 0.1295529779
H   H17       1.0  0.88120  0.71490  0.16270  1.0000 0.1017346527
H   H18       1.0  0.96180  0.84050  0.12150  1.0000 0.1383285525
H   H19       1.0  0.82070  0.83720  0.99620  1.0000 0.120046301
H   H20       1.0  0.74870  0.71780  0.04000  1.0000 0.1104794887
H   H21       1.0  0.87730  0.95450  0.96320  1.0000 0.1104794887
H   H22       1.0  0.00580  0.91230  0.95830  1.0000 0.120046301
H   H23       1.0  0.00240  0.95620  0.08560  1.0000 0.120046301
H   H24       1.0  0.09460  0.91330  0.04500  1.0000 0.1104794887
H   H25       1.0  0.72480  0.29400  0.15060  1.0000 0.1104794887
H   H26       1.0  0.63080  0.40130  0.19590  1.0000 0.1295529779
H   H27       1.0  0.70390  0.22510  0.32620  1.0000 0.1383285525
H   H28       1.0  0.79760  0.12550  0.27920  1.0000 0.1017346527
H   H29       1.0  0.69100  0.33950  0.35620  1.0000 0.120046301
H   H30       1.0  0.56010  0.34210  0.36880  1.0000 0.120046301
H   H31       1.0  0.51620  0.46610  0.24120  1.0000 0.120046301
H   H32       1.0  0.60110  0.51790  0.25740  1.0000 0.1104794887
H   H33       1.0  0.40470  0.47250  0.31790  1.0000 0.1104794887
H   H34       1.0  0.42530  0.57290  0.29010  1.0000 0.120046301
H   H35       1.0  0.60680  0.45240  0.40460  1.0000 0.1104794887
H   H36       1.0  0.66840  0.49580  0.34990  1.0000 0.1104794887
H   H37       1.0  0.30930  0.61800  0.34920  1.0000 0.1383285525
H   H38       1.0  0.22630  0.71670  0.39830  1.0000 0.1104794887
H   H39       1.0  0.46070  0.65150  0.48670  1.0000 0.1104794887
H   H40       1.0  0.55570  0.55640  0.43770  1.0000 0.1383285525
H   H41       1.0  0.76450  0.19630  0.07160  1.0000 0.1104794887
H   H42       1.0  0.66500  0.16010  0.01710  1.0000 0.1295529779
H   H43       1.0  0.63080  0.92900  0.12100  1.0000 0.1383285525
H   H44       1.0  0.74630  0.96540  0.16850  1.0000 0.1017346527
H   H45       1.0  0.60220  0.89370  0.02710  1.0000 0.1104794887
H   H46       1.0  0.52380  0.91310  0.07800  1.0000 0.120046301
H   H47       1.0  0.54170  0.14030  0.98240  1.0000 0.120046301
H   H48       1.0  0.61750  0.06140  0.95630  1.0000 0.1104794887
H   H49       1.0  0.54140  0.90720  0.22000  1.0000 0.1104794887
H   H50       1.0  0.52010  0.96210  0.29840  1.0000 0.1295529779
H   H51       1.0  0.62300  0.71640  0.37540  1.0000 0.1295529779
H   H52       1.0  0.65960  0.66270  0.29810  1.0000 0.1104794887
H   H53       1.0  0.71770  0.93470  0.34950  1.0000 0.1295529779
H   H54       1.0  0.78590  0.03700  0.37960  1.0000 0.1104794887
H   H55       1.0  0.49670  0.09720  0.46570  1.0000 0.120046301
H   H56       1.0  0.43910  0.97210  0.44570  1.0000 0.1383285525
H   H57       1.0  0.68560  0.44540  0.01180  1.0000 0.1295529779
H   H58       1.0  0.59950  0.33880  0.99150  1.0000 0.1383285525
H   H59       1.0  0.37190  0.36900  0.11590  1.0000 0.1383285525
H   H60       1.0  0.47250  0.45960  0.13800  1.0000 0.120046301
H   H61       1.0  0.24710  0.39210  0.03710  1.0000 0.1468009647
H   H62       1.0  0.07300  0.35590  0.06440  1.0000 0.120046301
H   H63       1.0  0.21160  0.09750  0.12100  1.0000 0.120046301
H   H64       1.0  0.38470  0.13760  0.09060  1.0000 0.1383285525
H   H65       1.0  0.95670  0.93780  0.32320  1.0000 0.1104794887
H   H66       1.0  0.00710  0.82030  0.38970  1.0000 0.1383285525
H   H67       1.0  0.05030  0.65040  0.29010  1.0000 0.1295529779
H   H68       1.0  0.97720  0.77500  0.22760  1.0000 0.120046301
H   H69       1.0  0.14290  0.50720  0.42200  1.0000 0.1383285525
H   H70       1.0  0.06900  0.37350  0.45680  1.0000 0.120046301
H   H71       1.0  0.78590  0.51020  0.40400  1.0000 0.1104794887
H   H72       1.0  0.85980  0.63690  0.37370  1.0000 0.1295529779
H   H73       1.0  0.19060  0.44200  0.74980  1.0000 0.1104794887
H   H74       1.0  0.08970  0.56100  0.69900  1.0000 0.1295529779
H   H75       1.0  0.00830  0.68290  0.82140  1.0000 0.120046301
H   H76       1.0  0.11670  0.55560  0.86770  1.0000 0.1104794887
H   H77       1.0  0.89720  0.77160  0.77750  1.0000 0.1104794887
H   H78       1.0  0.99580  0.82460  0.74920  1.0000 0.1104794887
H   H79       1.0  0.07340  0.68510  0.65690  1.0000 0.120046301
H   H80       1.0  0.94170  0.71110  0.65640  1.0000 0.120046301
H   H81       1.0  0.02820  0.83170  0.60520  1.0000 0.120046301
H   H82       1.0  0.08390  0.83880  0.65420  1.0000 0.1104794887
H   H83       1.0  0.82480  0.90980  0.72340  1.0000 0.120046301
H   H84       1.0  0.80110  0.82550  0.70290  1.0000 0.1104794887
H   H85       1.0  0.02000  0.96050  0.56980  1.0000 0.1383285525
H   H86       1.0  0.95320  0.08720  0.51540  1.0000 0.1104794887
H   H87       1.0  0.68110  0.12490  0.60830  1.0000 0.1017346527
H   H88       1.0  0.73230  0.99490  0.66410  1.0000 0.1295529779
H   H89       1.0  0.11880  0.28510  0.83730  1.0000 0.1017346527
H   H90       1.0  0.03820  0.15950  0.87850  1.0000 0.1383285525
H   H91       1.0  0.17930  0.16280  0.00380  1.0000 0.120046301
H   H92       1.0  0.25130  0.28220  0.96000  1.0000 0.1104794887
H   H93       1.0  0.12270  0.04550  0.03680  1.0000 0.1104794887
H   H94       1.0  0.99420  0.08770  0.04170  1.0000 0.120046301
H   H95       1.0  0.99760  0.04380  0.91440  1.0000 0.120046301
H   H96       1.0  0.90540  0.08670  0.95500  1.0000 0.1104794887
H   H97       1.0  0.27520  0.70600  0.84940  1.0000 0.1104794887
H   H98       1.0  0.36920  0.59870  0.80410  1.0000 0.1295529779
H   H99       1.0  0.29610  0.77490  0.67380  1.0000 0.1383285525
H   H100      1.0  0.20240  0.87450  0.72080  1.0000 0.1017346527
H   H101      1.0  0.30900  0.66050  0.64380  1.0000 0.120046301
H   H102      1.0  0.43990  0.65790  0.63120  1.0000 0.120046301
H   H103      1.0  0.48380  0.53390  0.75880  1.0000 0.120046301
H   H104      1.0  0.39890  0.48210  0.74260  1.0000 0.1104794887
H   H105      1.0  0.59530  0.52750  0.68210  1.0000 0.1104794887
H   H106      1.0  0.57470  0.42710  0.70990  1.0000 0.120046301
H   H107      1.0  0.39320  0.54760  0.59540  1.0000 0.1104794887
H   H108      1.0  0.33160  0.50420  0.65010  1.0000 0.1104794887
H   H109      1.0  0.69070  0.38200  0.65080  1.0000 0.1383285525
H   H110      1.0  0.77370  0.28330  0.60170  1.0000 0.1104794887
H   H111      1.0  0.53930  0.34850  0.51330  1.0000 0.1104794887
H   H112      1.0  0.44430  0.44360  0.56230  1.0000 0.1383285525
H   H113      1.0  0.23550  0.80370  0.92840  1.0000 0.1104794887
H   H114      1.0  0.33500  0.83990  0.98290  1.0000 0.1295529779
H   H115      1.0  0.36920  0.07100  0.87900  1.0000 0.1383285525
H   H116      1.0  0.25370  0.03460  0.83150  1.0000 0.1017346527
H   H117      1.0  0.39780  0.10630  0.97290  1.0000 0.1104794887
H   H118      1.0  0.47620  0.08690  0.92200  1.0000 0.120046301
H   H119      1.0  0.45830  0.85970  0.01760  1.0000 0.120046301
H   H120      1.0  0.38250  0.93860  0.04370  1.0000 0.1104794887
H   H121      1.0  0.45860  0.09280  0.78000  1.0000 0.1104794887
H   H122      1.0  0.47990  0.03790  0.70160  1.0000 0.1295529779
H   H123      1.0  0.37700  0.28360  0.62460  1.0000 0.1295529779
H   H124      1.0  0.34040  0.33730  0.70190  1.0000 0.1104794887
H   H125      1.0  0.28230  0.06530  0.65050  1.0000 0.1295529779
H   H126      1.0  0.21410  0.96300  0.62040  1.0000 0.1104794887
H   H127      1.0  0.50330  0.90280  0.53430  1.0000 0.120046301
H   H128      1.0  0.56090  0.02790  0.55430  1.0000 0.1383285525
H   H129      1.0  0.31440  0.55460  0.98820  1.0000 0.1295529779
H   H130      1.0  0.40050  0.66120  0.00850  1.0000 0.1383285525
H   H131      1.0  0.62810  0.63100  0.88410  1.0000 0.1383285525
H   H132      1.0  0.52750  0.54040  0.86200  1.0000 0.120046301
H   H133      1.0  0.75290  0.60790  0.96290  1.0000 0.1468009647
H   H134      1.0  0.92700  0.64410  0.93560  1.0000 0.120046301
H   H135      1.0  0.78840  0.90250  0.87900  1.0000 0.120046301
H   H136      1.0  0.61530  0.86240  0.90940  1.0000 0.1383285525
H   H137      1.0  0.04330  0.06220  0.67680  1.0000 0.1104794887
H   H138      1.0  0.99290  0.17970  0.61030  1.0000 0.1383285525
H   H139      1.0  0.94970  0.34960  0.70990  1.0000 0.1295529779
H   H140      1.0  0.02280  0.22500  0.77240  1.0000 0.120046301
H   H141      1.0  0.85710  0.49280  0.57800  1.0000 0.1383285525
H   H142      1.0  0.93100  0.62650  0.54320  1.0000 0.120046301
H   H143      1.0  0.21410  0.48980  0.59600  1.0000 0.1104794887
H   H144      1.0  0.14020  0.36310  0.62630  1.0000 0.1295529779
C   C1        1.0  0.84630  0.50730  0.23560  1.0000 0.0283954772
C   C2        1.0  0.90490  0.43590  0.26630  1.0000 -0.299911273
C   C3        1.0  0.95720  0.35810  0.24730  1.0000 0.219532625
C   C4        1.0  0.95270  0.36430  0.19560  1.0000 -0.299911273
C   C5        1.0  0.88850  0.44280  0.16770  1.0000 0.1017346527
C   C6        1.0  0.06080  0.20810  0.25650  1.0000 -0.1297183711
C   C7        1.0  0.99370  0.27340  0.33200  1.0000 -0.1297183711
C   C8        1.0  0.98230  0.17560  0.35660  1.0000 -0.1388543749
C   C9        1.0  0.13990  0.14320  0.29230  1.0000 -0.1388543749
C   C10       1.0  0.11490  0.03890  0.37360  1.0000 0.2416694458
C   C11       1.0  0.05140  0.00680  0.42120  1.0000 -0.2809960399
C   C12       1.0  0.09140  0.93140  0.45300  1.0000 0.0864486653
C   C13       1.0  0.24880  0.91060  0.39960  1.0000 0.0593511626
C   C14       1.0  0.21820  0.98670  0.36570  1.0000 -0.2599452068
C   C15       1.0  0.86920  0.74120  0.12770  1.0000 0.0726060118
C   C16       1.0  0.91790  0.81640  0.10360  1.0000 -0.250219268
C   C17       1.0  0.90010  0.85530  0.05240  1.0000 0.219532625
C   C18       1.0  0.83530  0.81370  0.03110  1.0000 -0.2685731355
C   C19       1.0  0.79310  0.74270  0.05730  1.0000 0.0832130532
C   C20       1.0  0.94940  0.95740  0.97370  1.0000 -0.1297183711
C   C21       1.0  0.02570  0.95830  0.04810  1.0000 -0.1388543749
C   C22       1.0  0.72220  0.28070  0.18740  1.0000 0.0593511626
C   C23       1.0  0.66667  0.34470  0.21380  1.0000 -0.250219268
C   C24       1.0  0.66260  0.32730  0.26670  1.0000 0.219532625
C   C25       1.0  0.71000  0.24200  0.28940  1.0000 -0.2685731355
C   C26       1.0  0.76390  0.18310  0.26150  1.0000 0.0593511626
C   C27       1.0  0.61800  0.37650  0.34890  1.0000 -0.1388543749
C   C28       1.0  0.54930  0.47430  0.27090  1.0000 -0.1199218412
C   C29       1.0  0.46140  0.51240  0.30740  1.0000 -0.1464486096
C   C30       1.0  0.60560  0.46460  0.36660  1.0000 -0.1388543749
C   C31       1.0  0.44860  0.57520  0.38460  1.0000 0.2277471121
C   C32       1.0  0.34510  0.62470  0.37680  1.0000 -0.250219268
C   C33       1.0  0.29530  0.68090  0.40690  1.0000 0.0499366555
C   C34       1.0  0.42920  0.64530  0.45760  1.0000 0.1017346527
C   C35       1.0  0.48580  0.58920  0.42840  1.0000 -0.299911273
C   C36       1.0  0.73980  0.13940  0.08050  1.0000 0.0421581636
C   C37       1.0  0.67790  0.11960  0.04910  1.0000 -0.250219268
C   C38       1.0  0.63210  0.04060  0.06280  1.0000 0.219532625
C   C39       1.0  0.65970  0.98400  0.10910  1.0000 -0.2685731355
C   C40       1.0  0.72750  0.00650  0.13740  1.0000 0.1017346527
C   C41       1.0  0.53720  0.93510  0.04010  1.0000 -0.1199218412
C   C42       1.0  0.55010  0.07550  0.98040  1.0000 -0.1464486096
C   C43       1.0  0.61710  0.74370  0.20370  1.0000 0.5487354394
C   C44       1.0  0.60430  0.77790  0.25380  1.0000 -0.0332246967
C   C45       1.0  0.56040  0.86800  0.25160  1.0000 -0.1090881108
C   C46       1.0  0.54480  0.89940  0.29820  1.0000 -0.2006273423
C   C47       1.0  0.56410  0.84280  0.34050  1.0000 0.1865027841
C   C48       1.0  0.60710  0.75560  0.34340  1.0000 -0.2006273423
C   C49       1.0  0.62760  0.72460  0.29770  1.0000 -0.1090881108
C   C50       1.0  0.57170  0.94410  0.39490  1.0000 0.2632991668
C   C51       1.0  0.67390  0.96490  0.37520  1.0000 -0.2091983226
C   C52       1.0  0.71250  0.02660  0.39170  1.0000 -0.0997319049
C   C53       1.0  0.64650  0.07670  0.42660  1.0000 -0.0502744433
C   C54       1.0  0.54460  0.06070  0.44410  1.0000 -0.080835015
C   C55       1.0  0.50820  0.98890  0.43020  1.0000 -0.2269727443
C   C56       1.0  0.69270  0.14030  0.44830  1.0000 0.5327178236
C   C57       1.0  0.65460  0.52060  0.09430  1.0000 0.5066972569
C   C58       1.0  0.59160  0.46070  0.07730  1.0000 -0.0502744433
C   C59       1.0  0.62360  0.42640  0.03430  1.0000 -0.0997319049
C   C60       1.0  0.57140  0.36520  0.02090  1.0000 -0.2200002823
C   C61       1.0  0.47590  0.34370  0.05220  1.0000 0.2716659899
C   C62       1.0  0.43870  0.38160  0.09510  1.0000 -0.2091983226
C   C63       1.0  0.49710  0.43630  0.10720  1.0000 -0.0997319049
C   C64       1.0  0.33070  0.26570  0.06050  1.0000 0.219532625
C   C65       1.0  0.23910  0.33170  0.05380  1.0000 -0.2006273423
C   C66       1.0  0.13680  0.31100  0.07100  1.0000 -0.0926609105
C   C67       1.0  0.12530  0.22330  0.09850  1.0000 -0.067531041
C   C68       1.0  0.21760  0.15830  0.10430  1.0000 -0.1090881108
C   C69       1.0  0.32010  0.18220  0.08550  1.0000 -0.2200002823
C   C70       1.0  0.01300  0.20120  0.11490  1.0000 0.5046823021
C   C71       1.0  0.94250  0.94140  0.22210  1.0000 0.5186274345
C   C72       1.0  0.96990  0.86540  0.26680  1.0000 -0.0389622917
C   C73       1.0  0.97490  0.87780  0.31690  1.0000 -0.1297183711
C   C74       1.0  0.00390  0.80980  0.35620  1.0000 -0.1685758535
C   C75       1.0  0.02780  0.72770  0.34590  1.0000 0.2097185548
C   C76       1.0  0.02700  0.70960  0.29750  1.0000 -0.2006273423
C   C77       1.0  0.98900  0.78520  0.26000  1.0000 -0.0926609105
C   C78       1.0  0.01030  0.57730  0.39620  1.0000 0.2038553651
C   C79       1.0  0.06800  0.50640  0.41880  1.0000 -0.1906972035
C   C80       1.0  0.02510  0.42630  0.43920  1.0000 -0.0997319049
C   C81       1.0  0.91580  0.42660  0.43280  1.0000 -0.0502744433
C   C82       1.0  0.86110  0.50770  0.40830  1.0000 -0.1297183711
C   C83       1.0  0.90260  0.58240  0.39010  1.0000 -0.1906972035
C   C84       1.0  0.85950  0.34830  0.45420  1.0000 0.5046823021
C   C85       1.0  0.15370  0.49270  0.76440  1.0000 0.0283954772
C   C86       1.0  0.09510  0.56410  0.73370  1.0000 -0.299911273
C   C87       1.0  0.04280  0.64190  0.75270  1.0000 0.219532625
C   C88       1.0  0.04730  0.63570  0.80440  1.0000 -0.3060685102
C   C89       1.0  0.11150  0.55720  0.83230  1.0000 0.1017346527
C   C90       1.0  0.93920  0.79190  0.74350  1.0000 -0.1297183711
C   C91       1.0  0.00630  0.72660  0.66800  1.0000 -0.1297183711
C   C92       1.0  0.01770  0.82440  0.64340  1.0000 -0.1464486096
C   C93       1.0  0.86010  0.85680  0.70770  1.0000 -0.1388543749
C   C94       1.0  0.88510  0.96110  0.62640  1.0000 0.2416694458
C   C95       1.0  0.94860  0.99320  0.57880  1.0000 -0.2809960399
C   C96       1.0  0.90860  0.06860  0.54700  1.0000 0.0864486653
C   C97       1.0  0.75120  0.08940  0.60040  1.0000 0.0593511626
C   C98       1.0  0.78180  0.01330  0.63430  1.0000 -0.2599452068
C   C99       1.0  0.13080  0.25880  0.87230  1.0000 0.0726060118
C   C100      1.0  0.08210  0.18360  0.89640  1.0000 -0.250219268
C   C101      1.0  0.09990  0.14470  0.94760  1.0000 0.219532625
C   C102      1.0  0.16470  0.18630  0.96890  1.0000 -0.2685731355
C   C103      1.0  0.20690  0.25730  0.94270  1.0000 0.0832130532
C   C104      1.0  0.05060  0.04260  0.02630  1.0000 -0.1297183711
C   C105      1.0  0.97430  0.04170  0.95190  1.0000 -0.1388543749
C   C106      1.0  0.27780  0.71930  0.81260  1.0000 0.0593511626
C   C107      1.0  0.33333  0.65530  0.78620  1.0000 -0.250219268
C   C108      1.0  0.33740  0.67270  0.73330  1.0000 0.219532625
C   C109      1.0  0.29000  0.75800  0.71060  1.0000 -0.2685731355
C   C110      1.0  0.23610  0.81690  0.73850  1.0000 0.0593511626
C   C111      1.0  0.38200  0.62350  0.65110  1.0000 -0.1388543749
C   C112      1.0  0.45070  0.52570  0.72910  1.0000 -0.1199218412
C   C113      1.0  0.53860  0.48760  0.69260  1.0000 -0.1464486096
C   C114      1.0  0.39440  0.53540  0.63340  1.0000 -0.1388543749
C   C115      1.0  0.55140  0.42480  0.61540  1.0000 0.2277471121
C   C116      1.0  0.65490  0.37530  0.62320  1.0000 -0.250219268
C   C117      1.0  0.70470  0.31910  0.59310  1.0000 0.0499366555
C   C118      1.0  0.57080  0.35470  0.54240  1.0000 0.1017346527
C   C119      1.0  0.51420  0.41080  0.57160  1.0000 -0.299911273
C   C120      1.0  0.26020  0.86060  0.91950  1.0000 0.0421581636
C   C121      1.0  0.32210  0.88040  0.95090  1.0000 -0.250219268
C   C122      1.0  0.36790  0.95940  0.93720  1.0000 0.219532625
C   C123      1.0  0.34030  0.01600  0.89090  1.0000 -0.2685731355
C   C124      1.0  0.27250  0.99350  0.86260  1.0000 0.1017346527
C   C125      1.0  0.46280  0.06490  0.95990  1.0000 -0.1199218412
C   C126      1.0  0.44990  0.92450  0.01960  1.0000 -0.1464486096
C   C127      1.0  0.38290  0.25630  0.79630  1.0000 0.5487354394
C   C128      1.0  0.39570  0.22210  0.74620  1.0000 -0.0332246967
C   C129      1.0  0.43960  0.13200  0.74840  1.0000 -0.1090881108
C   C130      1.0  0.45520  0.10060  0.70180  1.0000 -0.2006273423
C   C131      1.0  0.43590  0.15720  0.65950  1.0000 0.1865027841
C   C132      1.0  0.39290  0.24440  0.65660  1.0000 -0.2006273423
C   C133      1.0  0.37240  0.27540  0.70230  1.0000 -0.1090881108
C   C134      1.0  0.42830  0.05590  0.60510  1.0000 0.2632991668
C   C135      1.0  0.32610  0.03510  0.62480  1.0000 -0.2091983226
C   C136      1.0  0.28750  0.97340  0.60830  1.0000 -0.0997319049
C   C137      1.0  0.35350  0.92330  0.57340  1.0000 -0.0502744433
C   C138      1.0  0.45540  0.93930  0.55590  1.0000 -0.080835015
C   C139      1.0  0.49180  0.01110  0.56980  1.0000 -0.2269727443
C   C140      1.0  0.30730  0.85970  0.55170  1.0000 0.5327178236
C   C141      1.0  0.34540  0.47940  0.90570  1.0000 0.5066972569
C   C142      1.0  0.40840  0.53930  0.92270  1.0000 -0.0502744433
C   C143      1.0  0.37640  0.57360  0.96570  1.0000 -0.0997319049
C   C144      1.0  0.42860  0.63480  0.97910  1.0000 -0.2200002823
C   C145      1.0  0.52410  0.65630  0.94780  1.0000 0.2716659899
C   C146      1.0  0.56130  0.61840  0.90490  1.0000 -0.2091983226
C   C147      1.0  0.50290  0.56370  0.89280  1.0000 -0.0997319049
C   C148      1.0  0.66930  0.73430  0.93950  1.0000 0.219532625
C   C149      1.0  0.76090  0.66830  0.94620  1.0000 -0.2006273423
C   C150      1.0  0.86320  0.68900  0.92900  1.0000 -0.0926609105
C   C151      1.0  0.87470  0.77670  0.90150  1.0000 -0.067531041
C   C152      1.0  0.78240  0.84170  0.89570  1.0000 -0.1090881108
C   C153      1.0  0.67990  0.81780  0.91450  1.0000 -0.2200002823
C   C154      1.0  0.98700  0.79880  0.88510  1.0000 0.5046823021
C   C155      1.0  0.05750  0.05860  0.77790  1.0000 0.5186274345
C   C156      1.0  0.03010  0.13460  0.73320  1.0000 -0.0389622917
C   C157      1.0  0.02510  0.12220  0.68310  1.0000 -0.1297183711
C   C158      1.0  0.99610  0.19020  0.64380  1.0000 -0.1685758535
C   C159      1.0  0.97220  0.27230  0.65410  1.0000 0.2097185548
C   C160      1.0  0.97300  0.29040  0.70250  1.0000 -0.2006273423
C   C161      1.0  0.01100  0.21480  0.74000  1.0000 -0.0926609105
C   C162      1.0  0.98970  0.42270  0.60380  1.0000 0.2038553651
C   C163      1.0  0.93200  0.49360  0.58120  1.0000 -0.18468383
C   C164      1.0  0.97490  0.57370  0.56080  1.0000 -0.0997319049
C   C165      1.0  0.08420  0.57340  0.56720  1.0000 -0.0502744433
C   C166      1.0  0.13890  0.49230  0.59170  1.0000 -0.1297183711
C   C167      1.0  0.09740  0.41760  0.60990  1.0000 -0.1906972035
C   C168      1.0  0.14050  0.65170  0.54580  1.0000 0.5066972569
N   N1        1.0  0.83860  0.50930  0.18640  1.0000 -0.2091983226
N   N2        1.0  0.00790  0.28460  0.27710  1.0000 -0.0389622917
N   N3        1.0  0.07850  0.11350  0.34140  1.0000 -0.0389622917
N   N4        1.0  0.18840  0.88060  0.44400  1.0000 -0.250219268
N   N5        1.0  0.80740  0.70340  0.10540  1.0000 -0.250219268
N   N6        1.0  0.94310  0.92990  0.02760  1.0000 -0.067531041
N   N7        1.0  0.77420  0.19870  0.21040  1.0000 -0.2599452068
N   N8        1.0  0.60880  0.39060  0.29360  1.0000 -0.067531041
N   N9        1.0  0.50530  0.52110  0.35370  1.0000 -0.0389622917
N   N10       1.0  0.33350  0.69230  0.44900  1.0000 -0.250219268
N   N11       1.0  0.76840  0.08110  0.12450  1.0000 -0.250219268
N   N12       1.0  0.56750  0.01980  0.03220  1.0000 -0.0926609105
N   N13       1.0  0.16140  0.49070  0.81360  1.0000 -0.2091983226
N   N14       1.0  0.99210  0.71540  0.72290  1.0000 -0.0389622917
N   N15       1.0  0.92150  0.88650  0.65860  1.0000 -0.0389622917
N   N16       1.0  0.81160  0.11940  0.55600  1.0000 -0.250219268
N   N17       1.0  0.19260  0.29660  0.89460  1.0000 -0.250219268
N   N18       1.0  0.05690  0.07010  0.97240  1.0000 -0.067531041
N   N19       1.0  0.22580  0.80130  0.78960  1.0000 -0.2599452068
N   N20       1.0  0.39120  0.60940  0.70640  1.0000 -0.067531041
N   N21       1.0  0.49470  0.47890  0.64630  1.0000 -0.0389622917
N   N22       1.0  0.66650  0.30770  0.55100  1.0000 -0.2435533856
N   N23       1.0  0.23160  0.91890  0.87550  1.0000 -0.250219268
N   N24       1.0  0.43250  0.98020  0.96780  1.0000 -0.0926609105
O   O1        1.0  0.66480  0.66210  0.20950  1.0000 -0.5580807928
O   O2        1.0  0.58320  0.79080  0.16420  1.0000 -0.5395246947
O   O3        1.0  0.53260  0.87350  0.38830  1.0000 -0.2091983226
O   O4        1.0  0.62730  0.18710  0.47770  1.0000 -0.5271009807
O   O5        1.0  0.79310  0.14230  0.43910  1.0000 -0.5395246947
O   O6        1.0  0.61860  0.55130  0.13220  1.0000 -0.4663409595
O   O7        1.0  0.74240  0.53600  0.06870  1.0000 -0.5131822829
O   O8        1.0  0.43230  0.28240  0.03820  1.0000 -0.2006273423
O   O9        1.0  0.00790  0.12610  0.14770  1.0000 -0.5395246947
O   O10       1.0  0.93360  0.24920  0.09890  1.0000 -0.5021688346
O   O11       1.0  0.88120  0.00140  0.22740  1.0000 -0.4085139636
O   O12       1.0  0.98080  0.92660  0.17450  1.0000 -0.5465692286
O   O13       1.0  0.05950  0.65590  0.38740  1.0000 -0.2435533856
O   O14       1.0  0.76770  0.35180  0.44490  1.0000 -0.4905129675
O   O15       1.0  0.91300  0.28200  0.48050  1.0000 -0.5021688346
O   O16       1.0  0.33520  0.33790  0.79050  1.0000 -0.5580807928
O   O17       1.0  0.41680  0.20920  0.83580  1.0000 -0.5395246947
O   O18       1.0  0.46740  0.12650  0.61170  1.0000 -0.2091983226
O   O19       1.0  0.37270  0.81290  0.52230  1.0000 -0.5271009807
O   O20       1.0  0.20690  0.85770  0.56090  1.0000 -0.5395246947
O   O21       1.0  0.38140  0.44870  0.86780  1.0000 -0.4663409595
O   O22       1.0  0.25760  0.46400  0.93130  1.0000 -0.5131822829
O   O23       1.0  0.56770  0.71760  0.96180  1.0000 -0.2006273423
O   O24       1.0  0.99210  0.87390  0.85230  1.0000 -0.5395246947
O   O25       1.0  0.06640  0.75080  0.90110  1.0000 -0.5021688346
O   O26       1.0  0.11880  0.99860  0.77260  1.0000 -0.4085139636
O   O27       1.0  0.01920  0.07340  0.82550  1.0000 -0.5465692286
O   O28       1.0  0.94050  0.34410  0.61260  1.0000 -0.2435533856
O   O29       1.0  0.23230  0.64820  0.55510  1.0000 -0.4905129675
O   O30       1.0  0.08700  0.71800  0.51950  1.0000 -0.5021688346
