# DDEC6 charges by PACMAN v1.1 (https://github.com/mtap-research/PACMAN-charge/)
data_2020[Eu][sql]2[ASR]1
_chemical_formula_sum              "Eu4 H16 C40 S8 N4 O28"
_cell_length_a       14.8715
_cell_length_b       14.8715
_cell_length_c       17.1076
_cell_angle_alpha    81.8034
_cell_angle_beta     98.1966
_cell_angle_gamma    123.48

_symmetry_space_group_name_H-M    "P 1"
_symmetry_Int_Tables_number       1

loop_
  _symmetry_equiv_pos_as_xyz
  'x, y, z'

loop_
  _atom_site_type_symbol
  _atom_site_label
  _atom_site_symmetry_multiplicity
  _atom_site_fract_x
  _atom_site_fract_y
  _atom_site_fract_z
  _atom_site_occupancy
  _atom_site_charge
Eu  Eu1       1.0  0.48660  0.02718  0.60854  1.0000 2.06511254
Eu  Eu2       1.0  0.02718  0.48660  0.89146  1.0000 2.0631204336
Eu  Eu3       1.0  0.51340  0.97282  0.39146  1.0000 2.06511254
Eu  Eu4       1.0  0.97282  0.51340  0.10854  1.0000 2.0631204336
H   H1        1.0  0.76710  0.26210  0.61530  1.0000 0.1492640054
H   H2        1.0  0.93382  0.43988  0.62335  1.0000 0.1314323757
H   H3        1.0  0.65664  0.75112  0.52517  1.0000 0.1314323757
H   H4        1.0  0.72070  0.66596  0.62756  1.0000 0.1314323757
H   H5        1.0  0.26210  0.76710  0.88470  1.0000 0.1492640054
H   H6        1.0  0.43988  0.93382  0.87665  1.0000 0.1314323757
H   H7        1.0  0.75112  0.65664  0.97483  1.0000 0.1314323757
H   H8        1.0  0.66596  0.72070  0.87244  1.0000 0.1314323757
H   H9        1.0  0.23290  0.73790  0.38470  1.0000 0.1492640054
H   H10       1.0  0.06618  0.56012  0.37665  1.0000 0.1314323757
H   H11       1.0  0.34336  0.24888  0.47483  1.0000 0.1314323757
H   H12       1.0  0.27930  0.33404  0.37244  1.0000 0.1314323757
H   H13       1.0  0.73790  0.23290  0.11530  1.0000 0.1492640054
H   H14       1.0  0.56012  0.06618  0.12335  1.0000 0.1314323757
H   H15       1.0  0.24888  0.34336  0.02517  1.0000 0.1314323757
H   H16       1.0  0.33404  0.27930  0.12756  1.0000 0.1314323757
C   C1        1.0  0.68740  0.16820  0.46890  1.0000 0.638409683
C   C2        1.0  0.78090  0.27030  0.49800  1.0000 -0.1140046479
C   C3        1.0  0.80760  0.30260  0.57240  1.0000 -0.0992602531
C   C4        1.0  0.90450  0.40510  0.57670  1.0000 -0.1401693137
C   C5        1.0  0.95100  0.44860  0.50820  1.0000 -0.0173786131
C   C6        1.0  0.58390  0.88010  0.56420  1.0000 0.6520748227
C   C7        1.0  0.63230  0.81950  0.60690  1.0000 -0.0992602531
C   C8        1.0  0.66150  0.75930  0.57880  1.0000 -0.0992602531
C   C9        1.0  0.69930  0.71110  0.63760  1.0000 -0.1576217275
C   C10       1.0  0.70210  0.73670  0.71180  1.0000 -0.0305700494
C   C11       1.0  0.16820  0.68740  0.03110  1.0000 0.638409683
C   C12       1.0  0.27030  0.78090  0.00200  1.0000 -0.1140046479
C   C13       1.0  0.30260  0.80760  0.92760  1.0000 -0.0992602531
C   C14       1.0  0.40510  0.90450  0.92330  1.0000 -0.1401693137
C   C15       1.0  0.44860  0.95100  0.99180  1.0000 -0.0173786131
C   C16       1.0  0.88010  0.58390  0.93580  1.0000 0.6520748227
C   C17       1.0  0.81950  0.63230  0.89310  1.0000 -0.0992602531
C   C18       1.0  0.75930  0.66150  0.92120  1.0000 -0.0992602531
C   C19       1.0  0.71110  0.69930  0.86240  1.0000 -0.1528221281
C   C20       1.0  0.73670  0.70210  0.78820  1.0000 -0.0386979343
C   C21       1.0  0.31260  0.83180  0.53110  1.0000 0.638409683
C   C22       1.0  0.21910  0.72970  0.50200  1.0000 -0.1140046479
C   C23       1.0  0.19240  0.69740  0.42760  1.0000 -0.0992602531
C   C24       1.0  0.09550  0.59490  0.42330  1.0000 -0.1401693137
C   C25       1.0  0.04900  0.55140  0.49180  1.0000 -0.0173786131
C   C26       1.0  0.41610  0.11990  0.43580  1.0000 0.6520748227
C   C27       1.0  0.36770  0.18050  0.39310  1.0000 -0.0992602531
C   C28       1.0  0.33850  0.24070  0.42120  1.0000 -0.0992602531
C   C29       1.0  0.30070  0.28890  0.36240  1.0000 -0.1576217275
C   C30       1.0  0.29790  0.26330  0.28820  1.0000 -0.0305700494
C   C31       1.0  0.83180  0.31260  0.96890  1.0000 0.638409683
C   C32       1.0  0.72970  0.21910  0.99800  1.0000 -0.1140046479
C   C33       1.0  0.69740  0.19240  0.07240  1.0000 -0.0992602531
C   C34       1.0  0.59490  0.09550  0.07670  1.0000 -0.1401693137
C   C35       1.0  0.55140  0.04900  0.00820  1.0000 -0.0173786131
C   C36       1.0  0.11990  0.41610  0.06420  1.0000 0.6520748227
C   C37       1.0  0.18050  0.36770  0.10690  1.0000 -0.0992602531
C   C38       1.0  0.24070  0.33850  0.07880  1.0000 -0.0992602531
C   C39       1.0  0.28890  0.30070  0.13760  1.0000 -0.1576217275
C   C40       1.0  0.26330  0.29790  0.21180  1.0000 -0.0386979343
S   S1        1.0  0.87519  0.36315  0.43400  1.0000 0.1883199788
S   S2        1.0  0.65540  0.81964  0.70765  1.0000 0.1492640054
S   S3        1.0  0.36315  0.87519  0.06600  1.0000 0.1883199788
S   S4        1.0  0.81964  0.65540  0.79235  1.0000 0.1492640054
S   S5        1.0  0.12481  0.63685  0.56600  1.0000 0.1883199788
S   S6        1.0  0.34460  0.18036  0.29235  1.0000 0.1492640054
S   S7        1.0  0.63685  0.12481  0.93400  1.0000 0.1883199788
S   S8        1.0  0.18036  0.34460  0.20765  1.0000 0.1492640054
N   N1        1.0  0.60850  0.01190  0.75600  1.0000 0.6737990766
N   N2        1.0  0.01190  0.60850  0.74400  1.0000 0.6737990766
N   N3        1.0  0.39150  0.98810  0.24400  1.0000 0.6737990766
N   N4        1.0  0.98810  0.39150  0.25600  1.0000 0.6737990766
O   O1        1.0  0.50500  0.96200  0.74810  1.0000 -0.5763224672
O   O2        1.0  0.65760  0.08160  0.70120  1.0000 -0.5228515477
O   O3        1.0  0.65250  0.98950  0.81370  1.0000 -0.3621163479
O   O4        1.0  0.61460  0.10340  0.51450  1.0000 -0.7486288161
O   O5        1.0  0.68260  0.14780  0.39860  1.0000 -0.6074281247
O   O6        1.0  0.54290  0.90710  0.60720  1.0000 -0.6500577392
O   O7        1.0  0.58780  0.89780  0.49060  1.0000 -0.6817413331
O   O8        1.0  0.96200  0.50500  0.75190  1.0000 -0.5763224672
O   O9        1.0  0.08160  0.65760  0.79880  1.0000 -0.5228515477
O   O10       1.0  0.98950  0.65250  0.68630  1.0000 -0.3651078851
O   O11       1.0  0.10340  0.61460  0.98550  1.0000 -0.7486288161
O   O12       1.0  0.14780  0.68260  0.10140  1.0000 -0.6074281247
O   O13       1.0  0.90710  0.54290  0.89280  1.0000 -0.6500577392
O   O14       1.0  0.89780  0.58780  0.00940  1.0000 -0.6817413331
O   O15       1.0  0.49500  0.03800  0.25190  1.0000 -0.5763224672
O   O16       1.0  0.34240  0.91840  0.29880  1.0000 -0.5228515477
O   O17       1.0  0.34750  0.01050  0.18630  1.0000 -0.3621163479
O   O18       1.0  0.38540  0.89660  0.48550  1.0000 -0.7486288161
O   O19       1.0  0.31740  0.85220  0.60140  1.0000 -0.6074281247
O   O20       1.0  0.45710  0.09290  0.39280  1.0000 -0.6500577392
O   O21       1.0  0.41220  0.10220  0.50940  1.0000 -0.6817413331
O   O22       1.0  0.03800  0.49500  0.24810  1.0000 -0.5733695538
O   O23       1.0  0.91840  0.34240  0.20120  1.0000 -0.5228515477
O   O24       1.0  0.01050  0.34750  0.31370  1.0000 -0.3621163479
O   O25       1.0  0.89660  0.38540  0.01450  1.0000 -0.7486288161
O   O26       1.0  0.85220  0.31740  0.89860  1.0000 -0.6074281247
O   O27       1.0  0.09290  0.45710  0.10720  1.0000 -0.6500577392
O   O28       1.0  0.10220  0.41220  0.99060  1.0000 -0.6817413331
