# DDEC6 charges by PACMAN v1.1 (https://github.com/mtap-research/PACMAN-charge/)
data_2020[Cd][kgd]2[ASR]5
_chemical_formula_sum              "Cd4 H12 C32 O18"
_cell_length_a       10.8445
_cell_length_b       11.9969
_cell_length_c       12.7207
_cell_angle_alpha    84.688
_cell_angle_beta     85.969
_cell_angle_gamma    68.465

_symmetry_space_group_name_H-M    "P 1"
_symmetry_Int_Tables_number       1

loop_
  _symmetry_equiv_pos_as_xyz
  'x, y, z'

loop_
  _atom_site_type_symbol
  _atom_site_label
  _atom_site_symmetry_multiplicity
  _atom_site_fract_x
  _atom_site_fract_y
  _atom_site_fract_z
  _atom_site_occupancy
  _atom_site_charge
Cd  Cd1       1.0  0.60437  0.25697  0.12974  1.0000 1.0476217035
Cd  Cd2       1.0  0.67613  0.51741  0.03859  1.0000 1.0607048039
Cd  Cd3       1.0  0.39563  0.74303  0.87026  1.0000 1.0476217035
Cd  Cd4       1.0  0.32387  0.48259  0.96141  1.0000 1.0607048039
H   H1        1.0  0.39740  0.98740  0.11830  1.0000 0.143091372
H   H2        1.0  0.28840  0.92790  0.32180  1.0000 0.1297217094
H   H3        1.0  0.10450  0.31180  0.08840  1.0000 0.1297217094
H   H4        1.0  0.01540  0.01370  0.12420  1.0000 0.143091372
H   H5        1.0  0.53330  0.60560  0.43880  1.0000 0.1297217094
H   H6        1.0  0.42200  0.80760  0.45440  1.0000 0.1297217094
H   H7        1.0  0.60260  0.01260  0.88170  1.0000 0.143091372
H   H8        1.0  0.71160  0.07210  0.67820  1.0000 0.1297217094
H   H9        1.0  0.89550  0.68820  0.91160  1.0000 0.1297217094
H   H10       1.0  0.98460  0.98630  0.87580  1.0000 0.143091372
H   H11       1.0  0.46670  0.39440  0.56120  1.0000 0.1297217094
H   H12       1.0  0.57800  0.19240  0.54560  1.0000 0.1297217094
C   C1        1.0  0.37580  0.62480  0.11190  1.0000 0.6176639859
C   C2        1.0  0.39540  0.67460  0.21130  1.0000 -0.138504469
C   C3        1.0  0.30760  0.03460  0.11620  1.0000 -0.2021624332
C   C4        1.0  0.33510  0.84670  0.31360  1.0000 -0.218240806
C   C5        1.0  0.13210  0.22850  0.09640  1.0000 -0.1172108214
C   C6        1.0  0.47600  0.60360  0.29240  1.0000 -0.0500193249
C   C7        1.0  0.32670  0.79670  0.22270  1.0000 0.2390108805
C   C8        1.0  0.07760  0.05070  0.11780  1.0000 -0.1831265028
C   C9        1.0  0.26590  0.15980  0.10370  1.0000 -0.0207138482
C   C10       1.0  0.54730  0.47150  0.28040  1.0000 0.5909263257
C   C11       1.0  0.21270  0.98270  0.12520  1.0000 0.2390108805
C   C12       1.0  0.36620  0.21730  0.10040  1.0000 0.5700855021
C   C13       1.0  0.89310  0.24780  0.09330  1.0000 0.5909263257
C   C14       1.0  0.03820  0.17330  0.10100  1.0000 -0.0207138482
C   C15       1.0  0.48290  0.65320  0.38380  1.0000 -0.0970718201
C   C16       1.0  0.41480  0.77380  0.39330  1.0000 -0.0612471729
C   C17       1.0  0.62420  0.37520  0.88810  1.0000 0.6176639859
C   C18       1.0  0.60460  0.32540  0.78870  1.0000 -0.138504469
C   C19       1.0  0.69240  0.96540  0.88380  1.0000 -0.2021624332
C   C20       1.0  0.66490  0.15330  0.68640  1.0000 -0.218240806
C   C21       1.0  0.86790  0.77150  0.90360  1.0000 -0.1172108214
C   C22       1.0  0.52400  0.39640  0.70760  1.0000 -0.0500193249
C   C23       1.0  0.67330  0.20330  0.77730  1.0000 0.2390108805
C   C24       1.0  0.92240  0.94930  0.88220  1.0000 -0.1831265028
C   C25       1.0  0.73410  0.84020  0.89630  1.0000 -0.0207138482
C   C26       1.0  0.45270  0.52850  0.71960  1.0000 0.5909263257
C   C27       1.0  0.78730  0.01730  0.87480  1.0000 0.2390108805
C   C28       1.0  0.63380  0.78270  0.89960  1.0000 0.5700855021
C   C29       1.0  0.10690  0.75220  0.90670  1.0000 0.5909263257
C   C30       1.0  0.96180  0.82670  0.89900  1.0000 -0.0207138482
C   C31       1.0  0.51710  0.34680  0.61620  1.0000 -0.0970718201
C   C32       1.0  0.58520  0.22620  0.60670  1.0000 -0.0612471729
O   O1        1.0  0.57260  0.43870  0.18560  1.0000 -0.63375079
O   O2        1.0  0.44990  0.63160  0.02980  1.0000 -0.6414638098
O   O3        1.0  0.29120  0.58000  0.11370  1.0000 -0.4219400223
O   O4        1.0  0.24830  0.85680  0.14050  1.0000 -0.2053185787
O   O5        1.0  0.81540  0.19020  0.09370  1.0000 -0.5698383238
O   O6        1.0  0.86000  0.36020  0.08570  1.0000 -0.5698383238
O   O7        1.0  0.32740  0.33040  0.09580  1.0000 -0.5769648786
O   O8        1.0  0.48610  0.15060  0.10540  1.0000 -0.5360983844
O   O9        1.0  0.57600  0.40310  0.36110  1.0000 -0.4983739044
O   O10       1.0  0.42740  0.56130  0.81440  1.0000 -0.63375079
O   O11       1.0  0.55010  0.36840  0.97020  1.0000 -0.6414638098
O   O12       1.0  0.70880  0.42000  0.88630  1.0000 -0.4219400223
O   O13       1.0  0.75170  0.14320  0.85950  1.0000 -0.2021624332
O   O14       1.0  0.18460  0.80980  0.90630  1.0000 -0.5698383238
O   O15       1.0  0.14000  0.63980  0.91430  1.0000 -0.5698383238
O   O16       1.0  0.67260  0.66960  0.90420  1.0000 -0.5769648786
O   O17       1.0  0.51390  0.84940  0.89460  1.0000 -0.5360983844
O   O18       1.0  0.42400  0.59690  0.63890  1.0000 -0.4983739044
