# DDEC6 charges by PACMAN v1.1 (https://github.com/mtap-research/PACMAN-charge/)
data_2020[Cu][dia]3[ASR]5
_chemical_formula_sum              "Cu16 H544 C704 N96 O32"
_cell_length_a       24.7044
_cell_length_b       24.7044
_cell_length_c       44.8698
_cell_angle_alpha    90
_cell_angle_beta     90
_cell_angle_gamma    90

_symmetry_space_group_name_H-M    "P 1"
_symmetry_Int_Tables_number       1

loop_
  _symmetry_equiv_pos_as_xyz
  'x, y, z'

loop_
  _atom_site_type_symbol
  _atom_site_label
  _atom_site_symmetry_multiplicity
  _atom_site_fract_x
  _atom_site_fract_y
  _atom_site_fract_z
  _atom_site_occupancy
  _atom_site_charge
Cu  Cu1       1.0  0.12455  0.62079  0.50655  1.0000 0.1904770226
Cu  Cu2       1.0  0.87545  0.37921  0.00655  1.0000 0.1904770226
Cu  Cu3       1.0  0.87921  0.62455  0.25655  1.0000 0.1904770226
Cu  Cu4       1.0  0.12079  0.37545  0.75655  1.0000 0.1904770226
Cu  Cu5       1.0  0.37545  0.12079  0.24345  1.0000 0.1904770226
Cu  Cu6       1.0  0.62455  0.87921  0.74345  1.0000 0.1904770226
Cu  Cu7       1.0  0.62079  0.12455  0.49345  1.0000 0.1904770226
Cu  Cu8       1.0  0.37921  0.87545  0.99345  1.0000 0.1904770226
Cu  Cu9       1.0  0.35632  0.64368  0.25000  1.0000 0.22868476
Cu  Cu10      1.0  0.64368  0.35632  0.75000  1.0000 0.2204331732
Cu  Cu11      1.0  0.85632  0.85632  0.00000  1.0000 0.22868476
Cu  Cu12      1.0  0.14368  0.14368  0.50000  1.0000 0.22868476
Cu  Cu13      1.0  0.39421  0.39421  0.00000  1.0000 0.2204331732
Cu  Cu14      1.0  0.60579  0.60579  0.50000  1.0000 0.2204331732
Cu  Cu15      1.0  0.10579  0.89421  0.75000  1.0000 0.2204331732
Cu  Cu16      1.0  0.89421  0.10579  0.25000  1.0000 0.2204331732
H   H1        1.0  0.52895  0.59261  0.20475  1.0000 0.1292747662
H   H2        1.0  0.18439  0.60710  0.44774  1.0000 0.099853118
H   H3        1.0  0.14087  0.55782  0.56265  1.0000 0.099853118
H   H4        1.0  0.21059  0.65915  0.40896  1.0000 0.1292747662
H   H5        1.0  0.23538  0.84528  0.33386  1.0000 0.1195035642
H   H6        1.0  0.47206  0.62226  0.23907  1.0000 0.099853118
H   H7        1.0  0.18018  0.83761  0.41812  1.0000 0.1102660637
H   H8        1.0  0.34660  0.58971  0.18912  1.0000 0.099853118
H   H9        1.0  0.09002  0.53883  0.60633  1.0000 0.1195035642
H   H10       1.0  0.14311  0.73501  0.49233  1.0000 0.099853118
H   H11       1.0  0.24018  0.66419  0.34079  1.0000 0.1195035642
H   H12       1.0  0.33156  0.75438  0.26715  1.0000 0.099853118
H   H13       1.0  0.95282  0.44459  0.70917  1.0000 0.1292747662
H   H14       1.0  0.27522  0.61868  0.29966  1.0000 0.099853118
H   H15       1.0  0.29070  0.80371  0.30432  1.0000 0.1292747662
H   H16       1.0  0.22465  0.33351  0.04902  1.0000 0.1292747662
H   H17       1.0  0.95690  0.57077  0.55888  1.0000 0.1292747662
H   H18       1.0  0.17013  0.79019  0.45457  1.0000 0.1292747662
H   H19       1.0  0.40104  0.55327  0.15393  1.0000 0.1292747662
H   H20       1.0  0.01067  0.60012  0.51973  1.0000 0.0912352684
H   H21       1.0  0.75769  0.54447  0.17485  1.0000 0.1292747662
H   H22       1.0  0.57975  0.57849  0.16567  1.0000 0.1195035642
H   H23       1.0  0.40708  0.33962  0.05939  1.0000 0.099853118
H   H24       1.0  0.91116  0.56715  0.59890  1.0000 0.1102660637
H   H25       1.0  0.35227  0.23097  0.15221  1.0000 0.1292747662
H   H26       1.0  0.27844  0.37542  0.01262  1.0000 0.099853118
H   H27       1.0  0.41212  0.51780  0.08523  1.0000 0.1424740559
H   H28       1.0  0.39595  0.18717  0.19088  1.0000 0.099853118
H   H29       1.0  0.90990  0.49972  0.68081  1.0000 0.1195035642
H   H30       1.0  0.17050  0.24771  0.16483  1.0000 0.1195035642
H   H31       1.0  0.08880  0.48727  0.66626  1.0000 0.1292747662
H   H32       1.0  0.13836  0.44140  0.70182  1.0000 0.099853118
H   H33       1.0  0.26177  0.14948  0.22801  1.0000 0.099853118
H   H34       1.0  0.36962  0.46583  0.05373  1.0000 0.099853118
H   H35       1.0  0.59372  0.51166  0.08676  1.0000 0.1292747662
H   H36       1.0  0.21242  0.19681  0.19288  1.0000 0.1292747662
H   H37       1.0  0.54922  0.45416  0.05900  1.0000 0.1292747662
H   H38       1.0  0.66914  0.57420  0.08538  1.0000 0.1102660637
H   H39       1.0  0.00547  0.39659  0.74277  1.0000 0.099853118
H   H40       1.0  0.50672  0.41705  0.01908  1.0000 0.099853118
H   H41       1.0  0.66536  0.54487  0.17212  1.0000 0.1102660637
H   H42       1.0  0.35698  0.29446  0.09378  1.0000 0.1292747662
H   H43       1.0  0.76209  0.58831  0.09008  1.0000 0.1195035642
H   H44       1.0  0.22134  0.92066  0.41883  1.0000 0.1102660637
H   H45       1.0  0.17468  0.91977  0.33304  1.0000 0.1102660637
H   H46       1.0  0.16884  0.01349  0.33371  1.0000 0.1195035642
H   H47       1.0  0.21550  0.01439  0.41950  1.0000 0.1195035642
H   H48       1.0  0.18229  0.34225  0.09505  1.0000 0.1195035642
H   H49       1.0  0.15014  0.08255  0.34266  1.0000 0.099853118
H   H50       1.0  0.20195  0.11704  0.34948  1.0000 0.1195035642
H   H51       1.0  0.14577  0.13455  0.36255  1.0000 0.1102660637
H   H52       1.0  0.09394  0.30108  0.08266  1.0000 0.1102660637
H   H53       1.0  0.00082  0.31320  0.08283  1.0000 0.1195035642
H   H54       1.0  0.00229  0.32051  0.17229  1.0000 0.1195035642
H   H55       1.0  0.09541  0.30839  0.17213  1.0000 0.1102660637
H   H56       1.0  0.85170  0.54982  0.09822  1.0000 0.1102660637
H   H57       1.0  0.88836  0.58780  0.11761  1.0000 0.1195035642
H   H58       1.0  0.83745  0.61140  0.10130  1.0000 0.1102660637
H   H59       1.0  0.83716  0.56712  0.68413  1.0000 0.1102660637
H   H60       1.0  0.82566  0.53190  0.59693  1.0000 0.1102660637
H   H61       1.0  0.73304  0.54708  0.59877  1.0000 0.1195035642
H   H62       1.0  0.74454  0.58230  0.68597  1.0000 0.1195035642
H   H63       1.0  0.90473  0.37260  0.14926  1.0000 0.1195035642
H   H64       1.0  0.93621  0.33075  0.16899  1.0000 0.099853118
H   H65       1.0  0.88070  0.31466  0.15455  1.0000 0.1102660637
H   H66       1.0  0.64927  0.66228  0.65025  1.0000 0.0912352684
H   H67       1.0  0.69726  0.63802  0.66879  1.0000 0.1102660637
H   H68       1.0  0.64281  0.60588  0.66584  1.0000 0.1424740559
H   H69       1.0  0.47105  0.40739  0.70475  1.0000 0.1292747662
H   H70       1.0  0.81561  0.39290  0.94774  1.0000 0.099853118
H   H71       1.0  0.85913  0.44218  0.06265  1.0000 0.099853118
H   H72       1.0  0.78941  0.34085  0.90896  1.0000 0.1292747662
H   H73       1.0  0.76462  0.15472  0.83386  1.0000 0.1195035642
H   H74       1.0  0.52794  0.37774  0.73907  1.0000 0.099853118
H   H75       1.0  0.81982  0.16239  0.91812  1.0000 0.1102660637
H   H76       1.0  0.65340  0.41029  0.68912  1.0000 0.099853118
H   H77       1.0  0.90998  0.46117  0.10633  1.0000 0.1195035642
H   H78       1.0  0.85689  0.26499  0.99233  1.0000 0.099853118
H   H79       1.0  0.75982  0.33581  0.84079  1.0000 0.1292747662
H   H80       1.0  0.66844  0.24562  0.76715  1.0000 0.099853118
H   H81       1.0  0.04718  0.55541  0.20917  1.0000 0.1292747662
H   H82       1.0  0.72478  0.38132  0.79966  1.0000 0.099853118
H   H83       1.0  0.70930  0.19629  0.80432  1.0000 0.1292747662
H   H84       1.0  0.77535  0.66649  0.54902  1.0000 0.1292747662
H   H85       1.0  0.04310  0.42923  0.05888  1.0000 0.1292747662
H   H86       1.0  0.82987  0.20981  0.95457  1.0000 0.1292747662
H   H87       1.0  0.59896  0.44673  0.65393  1.0000 0.1292747662
H   H88       1.0  0.98933  0.39988  0.01973  1.0000 0.099853118
H   H89       1.0  0.24231  0.45553  0.67485  1.0000 0.1195035642
H   H90       1.0  0.42025  0.42151  0.66567  1.0000 0.1195035642
H   H91       1.0  0.59292  0.66038  0.55939  1.0000 0.099853118
H   H92       1.0  0.08884  0.43285  0.09890  1.0000 0.1102660637
H   H93       1.0  0.64773  0.76903  0.65221  1.0000 0.1292747662
H   H94       1.0  0.72156  0.62458  0.51262  1.0000 0.099853118
H   H95       1.0  0.58788  0.48220  0.58523  1.0000 0.1424740559
H   H96       1.0  0.60405  0.81283  0.69088  1.0000 0.099853118
H   H97       1.0  0.09010  0.50028  0.18081  1.0000 0.1195035642
H   H98       1.0  0.82950  0.75229  0.66483  1.0000 0.1195035642
H   H99       1.0  0.91120  0.51273  0.16626  1.0000 0.1292747662
H   H100      1.0  0.86164  0.55860  0.20182  1.0000 0.099853118
H   H101      1.0  0.73823  0.85052  0.72801  1.0000 0.099853118
H   H102      1.0  0.63038  0.53417  0.55373  1.0000 0.099853118
H   H103      1.0  0.40628  0.48834  0.58676  1.0000 0.1292747662
H   H104      1.0  0.78758  0.80319  0.69288  1.0000 0.1292747662
H   H105      1.0  0.45078  0.54584  0.55900  1.0000 0.1292747662
H   H106      1.0  0.33086  0.42580  0.58538  1.0000 0.1102660637
H   H107      1.0  0.99453  0.60341  0.24277  1.0000 0.099853118
H   H108      1.0  0.49328  0.58295  0.51908  1.0000 0.099853118
H   H109      1.0  0.33464  0.45513  0.67212  1.0000 0.1102660637
H   H110      1.0  0.64302  0.70554  0.59378  1.0000 0.1292747662
H   H111      1.0  0.23791  0.41169  0.59008  1.0000 0.1102660637
H   H112      1.0  0.77866  0.07934  0.91883  1.0000 0.1102660637
H   H113      1.0  0.82532  0.08023  0.83304  1.0000 0.1102660637
H   H114      1.0  0.83116  0.98651  0.83371  1.0000 0.1195035642
H   H115      1.0  0.78450  0.98561  0.91950  1.0000 0.1195035642
H   H116      1.0  0.81771  0.65775  0.59505  1.0000 0.1195035642
H   H117      1.0  0.84986  0.91745  0.84266  1.0000 0.099853118
H   H118      1.0  0.79805  0.88296  0.84948  1.0000 0.1195035642
H   H119      1.0  0.85423  0.86545  0.86255  1.0000 0.1102660637
H   H120      1.0  0.90606  0.69892  0.58266  1.0000 0.1102660637
H   H121      1.0  0.99918  0.68680  0.58283  1.0000 0.1195035642
H   H122      1.0  0.99771  0.67949  0.67229  1.0000 0.1195035642
H   H123      1.0  0.90459  0.69161  0.67213  1.0000 0.1102660637
H   H124      1.0  0.14830  0.45018  0.59822  1.0000 0.1102660637
H   H125      1.0  0.11164  0.41220  0.61761  1.0000 0.1195035642
H   H126      1.0  0.16255  0.38860  0.60130  1.0000 0.1102660637
H   H127      1.0  0.16284  0.43288  0.18413  1.0000 0.1102660637
H   H128      1.0  0.17434  0.46810  0.09693  1.0000 0.1102660637
H   H129      1.0  0.26696  0.45292  0.09877  1.0000 0.1195035642
H   H130      1.0  0.25546  0.41770  0.18597  1.0000 0.1195035642
H   H131      1.0  0.09527  0.62740  0.64926  1.0000 0.1195035642
H   H132      1.0  0.06379  0.66925  0.66899  1.0000 0.099853118
H   H133      1.0  0.11930  0.68534  0.65455  1.0000 0.1102660637
H   H134      1.0  0.35073  0.33772  0.15025  1.0000 0.0912352684
H   H135      1.0  0.30274  0.36198  0.16879  1.0000 0.1102660637
H   H136      1.0  0.35719  0.39412  0.16584  1.0000 0.1424740559
H   H137      1.0  0.90739  0.02895  0.95475  1.0000 0.1292747662
H   H138      1.0  0.89290  0.68439  0.19774  1.0000 0.099853118
H   H139      1.0  0.94218  0.64087  0.31265  1.0000 0.099853118
H   H140      1.0  0.84085  0.71059  0.15896  1.0000 0.1292747662
H   H141      1.0  0.65472  0.73538  0.08386  1.0000 0.1195035642
H   H142      1.0  0.87774  0.97206  0.98907  1.0000 0.099853118
H   H143      1.0  0.66239  0.68018  0.16812  1.0000 0.1102660637
H   H144      1.0  0.91029  0.84660  0.93912  1.0000 0.099853118
H   H145      1.0  0.96117  0.59002  0.35633  1.0000 0.1195035642
H   H146      1.0  0.76499  0.64311  0.24233  1.0000 0.099853118
H   H147      1.0  0.83581  0.74018  0.09079  1.0000 0.1292747662
H   H148      1.0  0.74562  0.83156  0.01715  1.0000 0.099853118
H   H149      1.0  0.05541  0.45282  0.45917  1.0000 0.1292747662
H   H150      1.0  0.88132  0.77522  0.04966  1.0000 0.099853118
H   H151      1.0  0.69629  0.79070  0.05432  1.0000 0.1292747662
H   H152      1.0  0.16649  0.72465  0.79902  1.0000 0.1292747662
H   H153      1.0  0.92923  0.45690  0.30888  1.0000 0.1292747662
H   H154      1.0  0.70981  0.67013  0.20457  1.0000 0.1292747662
H   H155      1.0  0.94673  0.90104  0.90393  1.0000 0.1292747662
H   H156      1.0  0.89988  0.51067  0.26973  1.0000 0.099853118
H   H157      1.0  0.95553  0.25769  0.92485  1.0000 0.1292747662
H   H158      1.0  0.92151  0.07975  0.91567  1.0000 0.1195035642
H   H159      1.0  0.16038  0.90708  0.80939  1.0000 0.099853118
H   H160      1.0  0.93285  0.41116  0.34890  1.0000 0.1102660637
H   H161      1.0  0.26903  0.85227  0.90221  1.0000 0.1292747662
H   H162      1.0  0.12458  0.77844  0.76262  1.0000 0.099853118
H   H163      1.0  0.98220  0.91212  0.83523  1.0000 0.1424740559
H   H164      1.0  0.31283  0.89595  0.94088  1.0000 0.099853118
H   H165      1.0  0.00028  0.40990  0.43081  1.0000 0.1195035642
H   H166      1.0  0.25229  0.67050  0.91483  1.0000 0.1195035642
H   H167      1.0  0.01273  0.58880  0.41626  1.0000 0.1292747662
H   H168      1.0  0.05860  0.63836  0.45182  1.0000 0.099853118
H   H169      1.0  0.35052  0.76177  0.97801  1.0000 0.099853118
H   H170      1.0  0.03417  0.86962  0.80373  1.0000 0.099853118
H   H171      1.0  0.98834  0.09372  0.83676  1.0000 0.1292747662
H   H172      1.0  0.30319  0.71242  0.94288  1.0000 0.1292747662
H   H173      1.0  0.04584  0.04922  0.80900  1.0000 0.1292747662
H   H174      1.0  0.92580  0.16914  0.83538  1.0000 0.1102660637
H   H175      1.0  0.10341  0.50547  0.49277  1.0000 0.099853118
H   H176      1.0  0.08295  0.00672  0.76908  1.0000 0.099853118
H   H177      1.0  0.95513  0.16536  0.92212  1.0000 0.1102660637
H   H178      1.0  0.20554  0.85698  0.84378  1.0000 0.1292747662
H   H179      1.0  0.91169  0.26209  0.84008  1.0000 0.1195035642
H   H180      1.0  0.57934  0.72134  0.16883  1.0000 0.1102660637
H   H181      1.0  0.58023  0.67468  0.08304  1.0000 0.1102660637
H   H182      1.0  0.48651  0.66884  0.08371  1.0000 0.1195035642
H   H183      1.0  0.48561  0.71550  0.16950  1.0000 0.1195035642
H   H184      1.0  0.15775  0.68229  0.84505  1.0000 0.1195035642
H   H185      1.0  0.41745  0.65014  0.09266  1.0000 0.099853118
H   H186      1.0  0.38296  0.70195  0.09948  1.0000 0.1195035642
H   H187      1.0  0.36545  0.64577  0.11255  1.0000 0.1102660637
H   H188      1.0  0.19892  0.59394  0.83266  1.0000 0.1102660637
H   H189      1.0  0.18680  0.50082  0.83283  1.0000 0.1195035642
H   H190      1.0  0.17949  0.50229  0.92229  1.0000 0.1195035642
H   H191      1.0  0.19161  0.59541  0.92213  1.0000 0.1102660637
H   H192      1.0  0.95018  0.35170  0.84822  1.0000 0.1102660637
H   H193      1.0  0.91220  0.38836  0.86761  1.0000 0.1195035642
H   H194      1.0  0.88860  0.33745  0.85130  1.0000 0.1102660637
H   H195      1.0  0.93288  0.33716  0.43413  1.0000 0.1102660637
H   H196      1.0  0.96810  0.32566  0.34693  1.0000 0.1102660637
H   H197      1.0  0.95292  0.23304  0.34877  1.0000 0.1195035642
H   H198      1.0  0.91770  0.24454  0.43597  1.0000 0.1195035642
H   H199      1.0  0.12740  0.40473  0.89926  1.0000 0.1195035642
H   H200      1.0  0.16925  0.43621  0.91899  1.0000 0.099853118
H   H201      1.0  0.18534  0.38070  0.90455  1.0000 0.1102660637
H   H202      1.0  0.83772  0.14927  0.40025  1.0000 0.0912352684
H   H203      1.0  0.86198  0.19726  0.41879  1.0000 0.1102660637
H   H204      1.0  0.89412  0.14281  0.41584  1.0000 0.1424740559
H   H205      1.0  0.09261  0.97105  0.45475  1.0000 0.1292747662
H   H206      1.0  0.10710  0.31561  0.69774  1.0000 0.099853118
H   H207      1.0  0.05782  0.35913  0.81265  1.0000 0.099853118
H   H208      1.0  0.15915  0.28941  0.65896  1.0000 0.1292747662
H   H209      1.0  0.34528  0.26462  0.58386  1.0000 0.1195035642
H   H210      1.0  0.12226  0.02794  0.48907  1.0000 0.099853118
H   H211      1.0  0.33761  0.31982  0.66812  1.0000 0.1102660637
H   H212      1.0  0.08971  0.15340  0.43912  1.0000 0.099853118
H   H213      1.0  0.03883  0.40998  0.85633  1.0000 0.1195035642
H   H214      1.0  0.23501  0.35689  0.74233  1.0000 0.099853118
H   H215      1.0  0.16419  0.25982  0.59079  1.0000 0.1292747662
H   H216      1.0  0.25438  0.16844  0.51715  1.0000 0.099853118
H   H217      1.0  0.94459  0.54718  0.95917  1.0000 0.1292747662
H   H218      1.0  0.11868  0.22478  0.54966  1.0000 0.099853118
H   H219      1.0  0.30371  0.20930  0.55432  1.0000 0.1292747662
H   H220      1.0  0.83351  0.27535  0.29902  1.0000 0.1292747662
H   H221      1.0  0.07077  0.54310  0.80888  1.0000 0.1292747662
H   H222      1.0  0.29019  0.32987  0.70457  1.0000 0.1292747662
H   H223      1.0  0.05327  0.09896  0.40393  1.0000 0.1292747662
H   H224      1.0  0.10012  0.48933  0.76973  1.0000 0.099853118
H   H225      1.0  0.04447  0.74231  0.42485  1.0000 0.1195035642
H   H226      1.0  0.07849  0.92025  0.41567  1.0000 0.1195035642
H   H227      1.0  0.83962  0.09292  0.30939  1.0000 0.099853118
H   H228      1.0  0.06715  0.58884  0.84890  1.0000 0.1102660637
H   H229      1.0  0.73097  0.14773  0.40221  1.0000 0.1292747662
H   H230      1.0  0.87542  0.22156  0.26262  1.0000 0.099853118
H   H231      1.0  0.01780  0.08788  0.33523  1.0000 0.1424740559
H   H232      1.0  0.68717  0.10405  0.44088  1.0000 0.099853118
H   H233      1.0  0.99972  0.59010  0.93081  1.0000 0.1195035642
H   H234      1.0  0.74771  0.32950  0.41483  1.0000 0.1195035642
H   H235      1.0  0.98727  0.41120  0.91626  1.0000 0.1292747662
H   H236      1.0  0.94140  0.36164  0.95182  1.0000 0.099853118
H   H237      1.0  0.64948  0.23823  0.47801  1.0000 0.099853118
H   H238      1.0  0.96583  0.13038  0.30373  1.0000 0.099853118
H   H239      1.0  0.01166  0.90628  0.33676  1.0000 0.1292747662
H   H240      1.0  0.69681  0.28758  0.44288  1.0000 0.1292747662
H   H241      1.0  0.95416  0.95078  0.30900  1.0000 0.1292747662
H   H242      1.0  0.07420  0.83086  0.33538  1.0000 0.1102660637
H   H243      1.0  0.89659  0.49453  0.99277  1.0000 0.099853118
H   H244      1.0  0.91705  0.99328  0.26908  1.0000 0.099853118
H   H245      1.0  0.04487  0.83464  0.42212  1.0000 0.1102660637
H   H246      1.0  0.79446  0.14302  0.34378  1.0000 0.1292747662
H   H247      1.0  0.08831  0.73791  0.34008  1.0000 0.1102660637
H   H248      1.0  0.42066  0.27866  0.66883  1.0000 0.1102660637
H   H249      1.0  0.41977  0.32532  0.58304  1.0000 0.1102660637
H   H250      1.0  0.51349  0.33116  0.58371  1.0000 0.1195035642
H   H251      1.0  0.51439  0.28450  0.66950  1.0000 0.1195035642
H   H252      1.0  0.84225  0.31771  0.34505  1.0000 0.1195035642
H   H253      1.0  0.58255  0.34986  0.59266  1.0000 0.099853118
H   H254      1.0  0.61704  0.29805  0.59948  1.0000 0.1195035642
H   H255      1.0  0.63455  0.35423  0.61255  1.0000 0.1102660637
H   H256      1.0  0.80108  0.40606  0.33266  1.0000 0.1102660637
H   H257      1.0  0.81320  0.49918  0.33283  1.0000 0.1195035642
H   H258      1.0  0.82051  0.49771  0.42229  1.0000 0.1195035642
H   H259      1.0  0.80839  0.40459  0.42213  1.0000 0.1102660637
H   H260      1.0  0.04982  0.64830  0.34822  1.0000 0.1102660637
H   H261      1.0  0.08780  0.61164  0.36761  1.0000 0.1195035642
H   H262      1.0  0.11140  0.66255  0.35130  1.0000 0.1102660637
H   H263      1.0  0.06712  0.66284  0.93413  1.0000 0.1102660637
H   H264      1.0  0.03190  0.67434  0.84693  1.0000 0.1102660637
H   H265      1.0  0.04708  0.76696  0.84877  1.0000 0.1195035642
H   H266      1.0  0.08230  0.75546  0.93597  1.0000 0.1195035642
H   H267      1.0  0.87260  0.59527  0.39926  1.0000 0.1195035642
H   H268      1.0  0.83075  0.56379  0.41899  1.0000 0.099853118
H   H269      1.0  0.81466  0.61930  0.40455  1.0000 0.1102660637
H   H270      1.0  0.16228  0.85073  0.90025  1.0000 0.0912352684
H   H271      1.0  0.13802  0.80274  0.91879  1.0000 0.099853118
H   H272      1.0  0.10588  0.85719  0.91584  1.0000 0.1424740559
H   H273      1.0  0.97105  0.09261  0.54525  1.0000 0.1292747662
H   H274      1.0  0.31561  0.10710  0.30226  1.0000 0.099853118
H   H275      1.0  0.35913  0.05782  0.18735  1.0000 0.099853118
H   H276      1.0  0.28941  0.15915  0.34104  1.0000 0.1292747662
H   H277      1.0  0.26462  0.34528  0.41614  1.0000 0.1195035642
H   H278      1.0  0.02794  0.12226  0.51093  1.0000 0.099853118
H   H279      1.0  0.31982  0.33761  0.33188  1.0000 0.1102660637
H   H280      1.0  0.15340  0.08971  0.56088  1.0000 0.099853118
H   H281      1.0  0.40998  0.03883  0.14367  1.0000 0.1195035642
H   H282      1.0  0.35689  0.23501  0.25767  1.0000 0.099853118
H   H283      1.0  0.25982  0.16419  0.40921  1.0000 0.1292747662
H   H284      1.0  0.16844  0.25438  0.48285  1.0000 0.099853118
H   H285      1.0  0.54718  0.94459  0.04083  1.0000 0.1292747662
H   H286      1.0  0.22478  0.11868  0.45034  1.0000 0.099853118
H   H287      1.0  0.20930  0.30371  0.44568  1.0000 0.1292747662
H   H288      1.0  0.27535  0.83351  0.70098  1.0000 0.1292747662
H   H289      1.0  0.54310  0.07077  0.19112  1.0000 0.1292747662
H   H290      1.0  0.32987  0.29019  0.29543  1.0000 0.1292747662
H   H291      1.0  0.09896  0.05327  0.59607  1.0000 0.1292747662
H   H292      1.0  0.48933  0.10012  0.23027  1.0000 0.099853118
H   H293      1.0  0.74231  0.04447  0.57515  1.0000 0.1195035642
H   H294      1.0  0.92025  0.07849  0.58433  1.0000 0.1195035642
H   H295      1.0  0.09292  0.83962  0.69061  1.0000 0.099853118
H   H296      1.0  0.58884  0.06715  0.15110  1.0000 0.1102660637
H   H297      1.0  0.14773  0.73097  0.59779  1.0000 0.1292747662
H   H298      1.0  0.22156  0.87542  0.73738  1.0000 0.099853118
H   H299      1.0  0.08788  0.01780  0.66477  1.0000 0.1424740559
H   H300      1.0  0.10405  0.68717  0.55912  1.0000 0.099853118
H   H301      1.0  0.59010  0.99972  0.06919  1.0000 0.1195035642
H   H302      1.0  0.32950  0.74771  0.58517  1.0000 0.1195035642
H   H303      1.0  0.41120  0.98727  0.08374  1.0000 0.1292747662
H   H304      1.0  0.36164  0.94140  0.04818  1.0000 0.099853118
H   H305      1.0  0.23823  0.64948  0.52199  1.0000 0.099853118
H   H306      1.0  0.13038  0.96583  0.69627  1.0000 0.099853118
H   H307      1.0  0.90628  0.01166  0.66324  1.0000 0.1292747662
H   H308      1.0  0.28758  0.69681  0.55712  1.0000 0.1292747662
H   H309      1.0  0.95078  0.95416  0.69100  1.0000 0.1292747662
H   H310      1.0  0.83086  0.07420  0.66462  1.0000 0.1102660637
H   H311      1.0  0.49453  0.89659  0.00723  1.0000 0.099853118
H   H312      1.0  0.99328  0.91705  0.73092  1.0000 0.099853118
H   H313      1.0  0.83464  0.04487  0.57788  1.0000 0.1102660637
H   H314      1.0  0.14302  0.79446  0.65622  1.0000 0.1292747662
H   H315      1.0  0.73791  0.08831  0.65992  1.0000 0.1195035642
H   H316      1.0  0.27866  0.42066  0.33117  1.0000 0.1102660637
H   H317      1.0  0.32532  0.41977  0.41696  1.0000 0.1102660637
H   H318      1.0  0.33116  0.51349  0.41629  1.0000 0.1195035642
H   H319      1.0  0.28450  0.51439  0.33050  1.0000 0.1195035642
H   H320      1.0  0.31771  0.84225  0.65495  1.0000 0.1195035642
H   H321      1.0  0.34986  0.58255  0.40734  1.0000 0.099853118
H   H322      1.0  0.29805  0.61704  0.40052  1.0000 0.1195035642
H   H323      1.0  0.35423  0.63455  0.38745  1.0000 0.1102660637
H   H324      1.0  0.40606  0.80108  0.66734  1.0000 0.1102660637
H   H325      1.0  0.49918  0.81320  0.66717  1.0000 0.1195035642
H   H326      1.0  0.49771  0.82051  0.57771  1.0000 0.1195035642
H   H327      1.0  0.40459  0.80839  0.57787  1.0000 0.1102660637
H   H328      1.0  0.64830  0.04982  0.65178  1.0000 0.1102660637
H   H329      1.0  0.61164  0.08780  0.63239  1.0000 0.1195035642
H   H330      1.0  0.66255  0.11140  0.64870  1.0000 0.1102660637
H   H331      1.0  0.66284  0.06712  0.06587  1.0000 0.1102660637
H   H332      1.0  0.67434  0.03190  0.15307  1.0000 0.1102660637
H   H333      1.0  0.76696  0.04708  0.15123  1.0000 0.1195035642
H   H334      1.0  0.75546  0.08230  0.06403  1.0000 0.1195035642
H   H335      1.0  0.59527  0.87260  0.60074  1.0000 0.1195035642
H   H336      1.0  0.56379  0.83075  0.58101  1.0000 0.099853118
H   H337      1.0  0.61930  0.81466  0.59545  1.0000 0.1102660637
H   H338      1.0  0.85073  0.16228  0.09975  1.0000 0.0912352684
H   H339      1.0  0.80274  0.13802  0.08121  1.0000 0.1102660637
H   H340      1.0  0.85719  0.10588  0.08416  1.0000 0.1424740559
H   H341      1.0  0.02895  0.90739  0.04525  1.0000 0.1292747662
H   H342      1.0  0.68439  0.89290  0.80226  1.0000 0.099853118
H   H343      1.0  0.64087  0.94218  0.68735  1.0000 0.099853118
H   H344      1.0  0.71059  0.84085  0.84104  1.0000 0.1292747662
H   H345      1.0  0.73538  0.65472  0.91614  1.0000 0.1195035642
H   H346      1.0  0.97206  0.87774  0.01093  1.0000 0.099853118
H   H347      1.0  0.68018  0.66239  0.83188  1.0000 0.1102660637
H   H348      1.0  0.84660  0.91029  0.06088  1.0000 0.099853118
H   H349      1.0  0.59002  0.96117  0.64367  1.0000 0.1195035642
H   H350      1.0  0.64311  0.76499  0.75767  1.0000 0.099853118
H   H351      1.0  0.74018  0.83581  0.90921  1.0000 0.1292747662
H   H352      1.0  0.83156  0.74562  0.98285  1.0000 0.099853118
H   H353      1.0  0.45282  0.05541  0.54083  1.0000 0.1292747662
H   H354      1.0  0.77522  0.88132  0.95034  1.0000 0.099853118
H   H355      1.0  0.79070  0.69629  0.94568  1.0000 0.1292747662
H   H356      1.0  0.72465  0.16649  0.20098  1.0000 0.1292747662
H   H357      1.0  0.45690  0.92923  0.69112  1.0000 0.1292747662
H   H358      1.0  0.67013  0.70981  0.79543  1.0000 0.1292747662
H   H359      1.0  0.90104  0.94673  0.09607  1.0000 0.1292747662
H   H360      1.0  0.51067  0.89988  0.73027  1.0000 0.099853118
H   H361      1.0  0.25769  0.95553  0.07515  1.0000 0.1195035642
H   H362      1.0  0.07975  0.92151  0.08433  1.0000 0.1195035642
H   H363      1.0  0.90708  0.16038  0.19061  1.0000 0.099853118
H   H364      1.0  0.41116  0.93285  0.65110  1.0000 0.1102660637
H   H365      1.0  0.85227  0.26903  0.09779  1.0000 0.1292747662
H   H366      1.0  0.77844  0.12458  0.23738  1.0000 0.099853118
H   H367      1.0  0.91212  0.98220  0.16477  1.0000 0.1424740559
H   H368      1.0  0.89595  0.31283  0.05912  1.0000 0.099853118
H   H369      1.0  0.40990  0.00028  0.56919  1.0000 0.1195035642
H   H370      1.0  0.67050  0.25229  0.08517  1.0000 0.1195035642
H   H371      1.0  0.58880  0.01273  0.58374  1.0000 0.1292747662
H   H372      1.0  0.63836  0.05860  0.54818  1.0000 0.099853118
H   H373      1.0  0.76177  0.35052  0.02199  1.0000 0.099853118
H   H374      1.0  0.86962  0.03417  0.19627  1.0000 0.099853118
H   H375      1.0  0.09372  0.98834  0.16324  1.0000 0.1292747662
H   H376      1.0  0.71242  0.30319  0.05712  1.0000 0.1292747662
H   H377      1.0  0.04922  0.04584  0.19100  1.0000 0.1292747662
H   H378      1.0  0.16914  0.92580  0.16462  1.0000 0.1102660637
H   H379      1.0  0.50547  0.10341  0.50723  1.0000 0.099853118
H   H380      1.0  0.00672  0.08295  0.23092  1.0000 0.099853118
H   H381      1.0  0.16536  0.95513  0.07788  1.0000 0.1102660637
H   H382      1.0  0.85698  0.20554  0.15622  1.0000 0.1292747662
H   H383      1.0  0.26209  0.91169  0.15992  1.0000 0.1102660637
H   H384      1.0  0.72134  0.57934  0.83117  1.0000 0.1102660637
H   H385      1.0  0.67468  0.58023  0.91696  1.0000 0.1102660637
H   H386      1.0  0.66884  0.48651  0.91629  1.0000 0.1195035642
H   H387      1.0  0.71550  0.48561  0.83050  1.0000 0.1195035642
H   H388      1.0  0.68229  0.15775  0.15495  1.0000 0.1195035642
H   H389      1.0  0.65014  0.41745  0.90734  1.0000 0.099853118
H   H390      1.0  0.70195  0.38296  0.90052  1.0000 0.1195035642
H   H391      1.0  0.64577  0.36545  0.88745  1.0000 0.1102660637
H   H392      1.0  0.59394  0.19892  0.16734  1.0000 0.1102660637
H   H393      1.0  0.50082  0.18680  0.16717  1.0000 0.1195035642
H   H394      1.0  0.50229  0.17949  0.07771  1.0000 0.1195035642
H   H395      1.0  0.59541  0.19161  0.07787  1.0000 0.1102660637
H   H396      1.0  0.35170  0.95018  0.15178  1.0000 0.1102660637
H   H397      1.0  0.38836  0.91220  0.13239  1.0000 0.1195035642
H   H398      1.0  0.33745  0.88860  0.14870  1.0000 0.1102660637
H   H399      1.0  0.33716  0.93288  0.56587  1.0000 0.1102660637
H   H400      1.0  0.32566  0.96810  0.65307  1.0000 0.1102660637
H   H401      1.0  0.23304  0.95292  0.65123  1.0000 0.1195035642
H   H402      1.0  0.24454  0.91770  0.56403  1.0000 0.1195035642
H   H403      1.0  0.40473  0.12740  0.10074  1.0000 0.1195035642
H   H404      1.0  0.43621  0.16925  0.08101  1.0000 0.099853118
H   H405      1.0  0.38070  0.18534  0.09545  1.0000 0.1102660637
H   H406      1.0  0.14927  0.83772  0.59975  1.0000 0.0912352684
H   H407      1.0  0.19726  0.86198  0.58121  1.0000 0.1102660637
H   H408      1.0  0.14281  0.89412  0.58416  1.0000 0.1424740559
H   H409      1.0  0.59261  0.52895  0.79525  1.0000 0.1292747662
H   H410      1.0  0.60710  0.18439  0.55226  1.0000 0.099853118
H   H411      1.0  0.55782  0.14087  0.43735  1.0000 0.099853118
H   H412      1.0  0.65915  0.21059  0.59104  1.0000 0.1292747662
H   H413      1.0  0.84528  0.23538  0.66614  1.0000 0.1195035642
H   H414      1.0  0.62226  0.47206  0.76093  1.0000 0.099853118
H   H415      1.0  0.83761  0.18018  0.58188  1.0000 0.1102660637
H   H416      1.0  0.58971  0.34660  0.81088  1.0000 0.099853118
H   H417      1.0  0.53883  0.09002  0.39367  1.0000 0.1195035642
H   H418      1.0  0.73501  0.14311  0.50767  1.0000 0.099853118
H   H419      1.0  0.66419  0.24018  0.65921  1.0000 0.1292747662
H   H420      1.0  0.75438  0.33156  0.73285  1.0000 0.099853118
H   H421      1.0  0.44459  0.95282  0.29083  1.0000 0.1292747662
H   H422      1.0  0.61868  0.27522  0.70034  1.0000 0.099853118
H   H423      1.0  0.80371  0.29070  0.69568  1.0000 0.1292747662
H   H424      1.0  0.33351  0.22465  0.95098  1.0000 0.1292747662
H   H425      1.0  0.57077  0.95690  0.44112  1.0000 0.1292747662
H   H426      1.0  0.79019  0.17013  0.54543  1.0000 0.1292747662
H   H427      1.0  0.55327  0.40104  0.84607  1.0000 0.1292747662
H   H428      1.0  0.60012  0.01067  0.48027  1.0000 0.099853118
H   H429      1.0  0.54447  0.75769  0.82515  1.0000 0.1195035642
H   H430      1.0  0.57849  0.57975  0.83433  1.0000 0.1195035642
H   H431      1.0  0.33962  0.40708  0.94061  1.0000 0.099853118
H   H432      1.0  0.56715  0.91116  0.40110  1.0000 0.1102660637
H   H433      1.0  0.23097  0.35227  0.84779  1.0000 0.1292747662
H   H434      1.0  0.37542  0.27844  0.98738  1.0000 0.099853118
H   H435      1.0  0.51780  0.41212  0.91477  1.0000 0.1424740559
H   H436      1.0  0.18717  0.39595  0.80912  1.0000 0.099853118
H   H437      1.0  0.49972  0.90990  0.31919  1.0000 0.1195035642
H   H438      1.0  0.24771  0.17050  0.83517  1.0000 0.1195035642
H   H439      1.0  0.48727  0.08880  0.33374  1.0000 0.1292747662
H   H440      1.0  0.44140  0.13836  0.29818  1.0000 0.099853118
H   H441      1.0  0.14948  0.26177  0.77199  1.0000 0.099853118
H   H442      1.0  0.46583  0.36962  0.94627  1.0000 0.099853118
H   H443      1.0  0.51166  0.59372  0.91324  1.0000 0.1292747662
H   H444      1.0  0.19681  0.21242  0.80712  1.0000 0.1292747662
H   H445      1.0  0.45416  0.54922  0.94100  1.0000 0.1292747662
H   H446      1.0  0.57420  0.66914  0.91462  1.0000 0.1102660637
H   H447      1.0  0.39659  0.00547  0.25723  1.0000 0.099853118
H   H448      1.0  0.41705  0.50672  0.98092  1.0000 0.099853118
H   H449      1.0  0.54487  0.66536  0.82788  1.0000 0.1102660637
H   H450      1.0  0.29446  0.35698  0.90622  1.0000 0.1292747662
H   H451      1.0  0.58831  0.76209  0.90992  1.0000 0.1195035642
H   H452      1.0  0.92066  0.22134  0.58117  1.0000 0.1102660637
H   H453      1.0  0.91977  0.17468  0.66696  1.0000 0.1102660637
H   H454      1.0  0.01349  0.16884  0.66629  1.0000 0.1195035642
H   H455      1.0  0.01439  0.21550  0.58050  1.0000 0.1195035642
H   H456      1.0  0.34225  0.18229  0.90495  1.0000 0.1195035642
H   H457      1.0  0.08255  0.15014  0.65734  1.0000 0.099853118
H   H458      1.0  0.11704  0.20195  0.65052  1.0000 0.1195035642
H   H459      1.0  0.13455  0.14577  0.63745  1.0000 0.1102660637
H   H460      1.0  0.30108  0.09394  0.91734  1.0000 0.1102660637
H   H461      1.0  0.31320  0.00082  0.91717  1.0000 0.1195035642
H   H462      1.0  0.32051  0.00229  0.82771  1.0000 0.1195035642
H   H463      1.0  0.30839  0.09541  0.82787  1.0000 0.1102660637
H   H464      1.0  0.54982  0.85170  0.90178  1.0000 0.1102660637
H   H465      1.0  0.58780  0.88836  0.88239  1.0000 0.1195035642
H   H466      1.0  0.61140  0.83745  0.89870  1.0000 0.1102660637
H   H467      1.0  0.56712  0.83716  0.31587  1.0000 0.1102660637
H   H468      1.0  0.53190  0.82566  0.40307  1.0000 0.1102660637
H   H469      1.0  0.54708  0.73304  0.40123  1.0000 0.1195035642
H   H470      1.0  0.58230  0.74454  0.31403  1.0000 0.1195035642
H   H471      1.0  0.37260  0.90473  0.85074  1.0000 0.1195035642
H   H472      1.0  0.33075  0.93621  0.83101  1.0000 0.099853118
H   H473      1.0  0.31466  0.88070  0.84545  1.0000 0.1102660637
H   H474      1.0  0.66228  0.64927  0.34975  1.0000 0.0912352684
H   H475      1.0  0.63802  0.69726  0.33121  1.0000 0.1102660637
H   H476      1.0  0.60588  0.64281  0.33416  1.0000 0.1424740559
H   H477      1.0  0.40739  0.47105  0.29525  1.0000 0.1292747662
H   H478      1.0  0.39290  0.81561  0.05226  1.0000 0.099853118
H   H479      1.0  0.44218  0.85913  0.93735  1.0000 0.099853118
H   H480      1.0  0.34085  0.78941  0.09104  1.0000 0.1292747662
H   H481      1.0  0.15472  0.76462  0.16614  1.0000 0.1195035642
H   H482      1.0  0.37774  0.52794  0.26093  1.0000 0.099853118
H   H483      1.0  0.16239  0.81982  0.08188  1.0000 0.1102660637
H   H484      1.0  0.41029  0.65340  0.31088  1.0000 0.099853118
H   H485      1.0  0.46117  0.90998  0.89367  1.0000 0.1195035642
H   H486      1.0  0.26499  0.85689  0.00767  1.0000 0.099853118
H   H487      1.0  0.33581  0.75982  0.15921  1.0000 0.1292747662
H   H488      1.0  0.24562  0.66844  0.23285  1.0000 0.099853118
H   H489      1.0  0.55541  0.04718  0.79083  1.0000 0.1292747662
H   H490      1.0  0.38132  0.72478  0.20034  1.0000 0.099853118
H   H491      1.0  0.19629  0.70930  0.19568  1.0000 0.1292747662
H   H492      1.0  0.66649  0.77535  0.45098  1.0000 0.1292747662
H   H493      1.0  0.42923  0.04310  0.94112  1.0000 0.1292747662
H   H494      1.0  0.20981  0.82987  0.04543  1.0000 0.1292747662
H   H495      1.0  0.44673  0.59896  0.34607  1.0000 0.1292747662
H   H496      1.0  0.39988  0.98933  0.98027  1.0000 0.099853118
H   H497      1.0  0.45553  0.24231  0.32515  1.0000 0.1292747662
H   H498      1.0  0.42151  0.42025  0.33433  1.0000 0.1195035642
H   H499      1.0  0.66038  0.59292  0.44061  1.0000 0.099853118
H   H500      1.0  0.43285  0.08884  0.90110  1.0000 0.1102660637
H   H501      1.0  0.76903  0.64773  0.34779  1.0000 0.1292747662
H   H502      1.0  0.62458  0.72156  0.48738  1.0000 0.099853118
H   H503      1.0  0.48220  0.58788  0.41477  1.0000 0.1424740559
H   H504      1.0  0.81283  0.60405  0.30912  1.0000 0.099853118
H   H505      1.0  0.50028  0.09010  0.81919  1.0000 0.1195035642
H   H506      1.0  0.75229  0.82950  0.33517  1.0000 0.1195035642
H   H507      1.0  0.51273  0.91120  0.83374  1.0000 0.1292747662
H   H508      1.0  0.55860  0.86164  0.79818  1.0000 0.099853118
H   H509      1.0  0.85052  0.73823  0.27199  1.0000 0.099853118
H   H510      1.0  0.53417  0.63038  0.44627  1.0000 0.099853118
H   H511      1.0  0.48834  0.40628  0.41324  1.0000 0.1292747662
H   H512      1.0  0.80319  0.78758  0.30712  1.0000 0.1292747662
H   H513      1.0  0.54584  0.45078  0.44100  1.0000 0.1292747662
H   H514      1.0  0.42580  0.33086  0.41462  1.0000 0.1102660637
H   H515      1.0  0.60341  0.99453  0.75723  1.0000 0.099853118
H   H516      1.0  0.58295  0.49328  0.48092  1.0000 0.099853118
H   H517      1.0  0.45513  0.33464  0.32788  1.0000 0.1102660637
H   H518      1.0  0.70554  0.64302  0.40622  1.0000 0.1292747662
H   H519      1.0  0.41169  0.23791  0.40992  1.0000 0.1102660637
H   H520      1.0  0.07934  0.77866  0.08117  1.0000 0.1102660637
H   H521      1.0  0.08023  0.82532  0.16696  1.0000 0.1102660637
H   H522      1.0  0.98651  0.83116  0.16629  1.0000 0.1195035642
H   H523      1.0  0.98561  0.78450  0.08050  1.0000 0.1195035642
H   H524      1.0  0.65775  0.81771  0.40495  1.0000 0.1195035642
H   H525      1.0  0.91745  0.84986  0.15734  1.0000 0.099853118
H   H526      1.0  0.88296  0.79805  0.15052  1.0000 0.1195035642
H   H527      1.0  0.86545  0.85423  0.13745  1.0000 0.1102660637
H   H528      1.0  0.69892  0.90606  0.41734  1.0000 0.1102660637
H   H529      1.0  0.68680  0.99918  0.41717  1.0000 0.1195035642
H   H530      1.0  0.67949  0.99771  0.32771  1.0000 0.1195035642
H   H531      1.0  0.69161  0.90459  0.32787  1.0000 0.1102660637
H   H532      1.0  0.45018  0.14830  0.40178  1.0000 0.1102660637
H   H533      1.0  0.41220  0.11164  0.38239  1.0000 0.1195035642
H   H534      1.0  0.38860  0.16255  0.39870  1.0000 0.1102660637
H   H535      1.0  0.43288  0.16284  0.81587  1.0000 0.1102660637
H   H536      1.0  0.46810  0.17434  0.90307  1.0000 0.1102660637
H   H537      1.0  0.45292  0.26696  0.90123  1.0000 0.1195035642
H   H538      1.0  0.41770  0.25546  0.81403  1.0000 0.1195035642
H   H539      1.0  0.62740  0.09527  0.35074  1.0000 0.1195035642
H   H540      1.0  0.66925  0.06379  0.33101  1.0000 0.099853118
H   H541      1.0  0.68534  0.11930  0.34545  1.0000 0.1102660637
H   H542      1.0  0.33772  0.35073  0.84975  1.0000 0.0912352684
H   H543      1.0  0.36198  0.30274  0.83121  1.0000 0.1102660637
H   H544      1.0  0.39412  0.35719  0.83416  1.0000 0.1424740559
C   C1        1.0  0.49200  0.59240  0.20090  1.0000 -0.1797923235
C   C2        1.0  0.26070  0.73980  0.32740  1.0000 0.0696942381
C   C3        1.0  0.18020  0.64440  0.44900  1.0000 -0.0009147047
C   C4        1.0  0.10370  0.56350  0.56270  1.0000 0.0410934745
C   C5        1.0  0.47280  0.57390  0.17360  1.0000 0.0912352684
C   C6        1.0  0.20390  0.76580  0.40010  1.0000 0.1996233317
C   C7        1.0  0.19540  0.67550  0.42570  1.0000 -0.1797923235
C   C8        1.0  0.22690  0.82560  0.35090  1.0000 -0.2618624897
C   C9        1.0  0.45750  0.60970  0.22130  1.0000 0.0410934745
C   C10       1.0  0.23650  0.76930  0.35190  1.0000 0.1904770226
C   C11       1.0  0.18880  0.73000  0.42610  1.0000 0.0912352684
C   C12       1.0  0.19380  0.82130  0.40100  1.0000 -0.2502347673
C   C13       1.0  0.38380  0.58990  0.19220  1.0000 0.0206785918
C   C14       1.0  0.07290  0.54900  0.58870  1.0000 -0.2102385798
C   C15       1.0  0.15630  0.71900  0.47500  1.0000 0.0610893138
C   C16       1.0  0.25760  0.68340  0.32580  1.0000 -0.19958356
C   C17       1.0  0.01660  0.55060  0.58680  1.0000 0.0912352684
C   C18       1.0  0.31300  0.73630  0.28220  1.0000 0.0410934745
C   C19       1.0  0.99020  0.44420  0.70680  1.0000 -0.19958356
C   C20       1.0  0.28080  0.65570  0.30160  1.0000 0.0696942381
C   C21       1.0  0.28860  0.76610  0.30450  1.0000 -0.19958356
C   C22       1.0  0.98300  0.53540  0.61320  1.0000 0.1996233317
C   C23       1.0  0.26170  0.33720  0.05200  1.0000 -0.2102385798
C   C24       1.0  0.20450  0.85150  0.37570  1.0000 0.1102660637
C   C25       1.0  0.99440  0.56950  0.56080  1.0000 -0.2102385798
C   C26       1.0  0.17150  0.75280  0.45230  1.0000 -0.2192972311
C   C27       1.0  0.41610  0.56980  0.17060  1.0000 -0.1797923235
C   C28       1.0  0.76840  0.56770  0.13200  1.0000 0.1996233317
C   C29       1.0  0.02700  0.58690  0.53690  1.0000 0.0696942381
C   C30       1.0  0.74010  0.55270  0.15710  1.0000 -0.2192972311
C   C31       1.0  0.56420  0.56280  0.14890  1.0000 -0.2791914468
C   C32       1.0  0.59680  0.54820  0.12610  1.0000 0.1195035642
C   C33       1.0  0.36970  0.33810  0.05700  1.0000 0.0206785918
C   C34       1.0  0.89870  0.53430  0.63950  1.0000 0.1102660637
C   C35       1.0  0.92770  0.54880  0.61450  1.0000 -0.2502347673
C   C36       1.0  0.33333  0.21710  0.16840  1.0000 -0.227581758
C   C37       1.0  0.29460  0.36010  0.02930  1.0000 0.0610893138
C   C38       1.0  0.50900  0.55560  0.14840  1.0000 0.22868476
C   C39       1.0  0.51740  0.51960  0.10170  1.0000 0.1712780889
C   C40       1.0  0.01290  0.47140  0.68300  1.0000 0.0832176284
C   C41       1.0  0.43200  0.49420  0.07330  1.0000 -0.2192972311
C   C42       1.0  0.35830  0.18840  0.19080  1.0000 0.0696942381
C   C43       1.0  0.92740  0.50930  0.66320  1.0000 -0.2618624897
C   C44       1.0  0.65890  0.55580  0.12880  1.0000 0.0490065931
C   C45       1.0  0.19000  0.26290  0.14920  1.0000 -0.2502347673
C   C46       1.0  0.07090  0.46970  0.68170  1.0000 -0.2102385798
C   C47       1.0  0.10080  0.44190  0.70320  1.0000 0.0832176284
C   C48       1.0  0.24500  0.25750  0.14690  1.0000 0.1996233317
C   C49       1.0  0.28000  0.16720  0.21270  1.0000 0.0206785918
C   C50       1.0  0.40720  0.46660  0.05330  1.0000 0.0490065931
C   C51       1.0  0.57290  0.52460  0.10250  1.0000 -0.227581758
C   C52       1.0  0.25000  0.19670  0.19210  1.0000 -0.1797923235
C   C53       1.0  0.51210  0.45940  0.05720  1.0000 -0.1942224478
C   C54       1.0  0.98230  0.49950  0.65940  1.0000 0.1996233317
C   C55       1.0  0.28400  0.32090  0.07780  1.0000 0.099853118
C   C56       1.0  0.48810  0.48980  0.07790  1.0000 0.0912352684
C   C57       1.0  0.68660  0.56970  0.10360  1.0000 -0.1482395566
C   C58       1.0  0.27550  0.22420  0.17170  1.0000 0.0912352684
C   C59       1.0  0.02200  0.41590  0.72750  1.0000 0.0206785918
C   C60       1.0  0.48710  0.43540  0.03360  1.0000 0.0206785918
C   C61       1.0  0.68550  0.55040  0.15490  1.0000 -0.1403877101
C   C62       1.0  0.16590  0.29190  0.12740  1.0000 0.1102660637
C   C63       1.0  0.34040  0.31440  0.07870  1.0000 -0.1797923235
C   C64       1.0  0.74240  0.57680  0.10660  1.0000 -0.2192972311
C   C65       1.0  0.21080  0.93930  0.40177  1.0000 -0.1403877101
C   C66       1.0  0.19860  0.91090  0.37587  1.0000 0.0410934745
C   C67       1.0  0.18290  0.93870  0.35037  1.0000 -0.1482395566
C   C68       1.0  0.17940  0.99490  0.35077  1.0000 -0.227581758
C   C69       1.0  0.19160  0.02320  0.37670  1.0000 0.2068359858
C   C70       1.0  0.20730  0.99540  0.40217  1.0000 -0.2192972311
C   C71       1.0  0.19700  0.31530  0.10710  1.0000 -0.2192972311
C   C72       1.0  0.16820  0.10420  0.35740  1.0000 -0.2192972311
C   C73       1.0  0.24790  0.30170  0.10340  1.0000 0.1712780889
C   C74       1.0  0.10390  0.30350  0.12740  1.0000 0.0610893138
C   C75       1.0  0.07560  0.30500  0.10060  1.0000 -0.1590248955
C   C76       1.0  0.01980  0.31220  0.10070  1.0000 -0.2192972311
C   C77       1.0  0.99230  0.31810  0.12760  1.0000 0.1996233317
C   C78       1.0  0.02070  0.31660  0.15430  1.0000 -0.2102385798
C   C79       1.0  0.07650  0.30940  0.15420  1.0000 -0.1590248955
C   C80       1.0  0.85190  0.58040  0.11140  1.0000 -0.2403671989
C   C81       1.0  0.81630  0.56310  0.66700  1.0000 -0.1403877101
C   C82       1.0  0.84060  0.54800  0.64030  1.0000 0.0410934745
C   C83       1.0  0.80940  0.54200  0.61480  1.0000 -0.1482395566
C   C84       1.0  0.75390  0.55110  0.61590  1.0000 -0.2102385798
C   C85       1.0  0.72960  0.56620  0.64260  1.0000 0.2204331732
C   C86       1.0  0.76080  0.57220  0.66810  1.0000 -0.2102385798
C   C87       1.0  0.91340  0.33500  0.15180  1.0000 -0.19958356
C   C88       1.0  0.66760  0.62950  0.65580  1.0000 -0.2192972311
C   C89       1.0  0.50800  0.40760  0.70090  1.0000 -0.1797923235
C   C90       1.0  0.73930  0.26020  0.82740  1.0000 0.0696942381
C   C91       1.0  0.81980  0.35560  0.94900  1.0000 -0.0009147047
C   C92       1.0  0.89630  0.43650  0.06270  1.0000 0.0410934745
C   C93       1.0  0.52720  0.42610  0.67360  1.0000 0.0912352684
C   C94       1.0  0.79610  0.23420  0.90010  1.0000 0.1996233317
C   C95       1.0  0.80460  0.32450  0.92570  1.0000 -0.1797923235
C   C96       1.0  0.77310  0.17440  0.85090  1.0000 -0.2618624897
C   C97       1.0  0.54250  0.39030  0.72130  1.0000 0.0410934745
C   C98       1.0  0.76350  0.23070  0.85190  1.0000 0.1904770226
C   C99       1.0  0.81120  0.27000  0.92610  1.0000 0.0912352684
C   C100      1.0  0.80620  0.17870  0.90100  1.0000 -0.2502347673
C   C101      1.0  0.61620  0.41010  0.69220  1.0000 0.0206785918
C   C102      1.0  0.92710  0.45100  0.08870  1.0000 -0.2102385798
C   C103      1.0  0.84370  0.28100  0.97500  1.0000 0.0610893138
C   C104      1.0  0.74240  0.31660  0.82580  1.0000 -0.19958356
C   C105      1.0  0.98340  0.44940  0.08680  1.0000 0.0912352684
C   C106      1.0  0.68700  0.26370  0.78220  1.0000 0.0410934745
C   C107      1.0  0.00980  0.55580  0.20680  1.0000 -0.19958356
C   C108      1.0  0.71920  0.34430  0.80160  1.0000 0.0696942381
C   C109      1.0  0.71140  0.23390  0.80450  1.0000 -0.19958356
C   C110      1.0  0.01700  0.46460  0.11320  1.0000 0.1996233317
C   C111      1.0  0.73830  0.66280  0.55200  1.0000 -0.2102385798
C   C112      1.0  0.79550  0.14850  0.87570  1.0000 0.1102660637
C   C113      1.0  0.00560  0.43050  0.06080  1.0000 -0.2102385798
C   C114      1.0  0.82850  0.24720  0.95230  1.0000 -0.2192972311
C   C115      1.0  0.58390  0.43020  0.67060  1.0000 -0.1797923235
C   C116      1.0  0.23160  0.43230  0.63200  1.0000 0.1996233317
C   C117      1.0  0.97300  0.41310  0.03690  1.0000 0.0696942381
C   C118      1.0  0.25990  0.44730  0.65710  1.0000 -0.2192972311
C   C119      1.0  0.43580  0.43720  0.64890  1.0000 -0.2791914468
C   C120      1.0  0.40320  0.45180  0.62610  1.0000 0.1195035642
C   C121      1.0  0.63030  0.66190  0.55700  1.0000 0.0206785918
C   C122      1.0  0.10130  0.46570  0.13950  1.0000 0.1102660637
C   C123      1.0  0.07230  0.45120  0.11450  1.0000 -0.2502347673
C   C124      1.0  0.66667  0.78290  0.66840  1.0000 -0.227581758
C   C125      1.0  0.70540  0.63990  0.52930  1.0000 0.0610893138
C   C126      1.0  0.49100  0.44440  0.64840  1.0000 0.22868476
C   C127      1.0  0.48260  0.48040  0.60170  1.0000 0.1712780889
C   C128      1.0  0.98710  0.52860  0.18300  1.0000 0.0832176284
C   C129      1.0  0.56800  0.50580  0.57330  1.0000 -0.2192972311
C   C130      1.0  0.64170  0.81160  0.69080  1.0000 0.0696942381
C   C131      1.0  0.07260  0.49070  0.16320  1.0000 -0.2618624897
C   C132      1.0  0.34110  0.44420  0.62880  1.0000 0.0490065931
C   C133      1.0  0.81000  0.73710  0.64920  1.0000 -0.2502347673
C   C134      1.0  0.92910  0.53030  0.18170  1.0000 -0.2192972311
C   C135      1.0  0.89920  0.55810  0.20320  1.0000 0.0832176284
C   C136      1.0  0.75500  0.74250  0.64690  1.0000 0.1996233317
C   C137      1.0  0.72000  0.83280  0.71270  1.0000 0.0206785918
C   C138      1.0  0.59280  0.53340  0.55330  1.0000 0.0490065931
C   C139      1.0  0.42710  0.47540  0.60250  1.0000 -0.227581758
C   C140      1.0  0.75000  0.80330  0.69210  1.0000 -0.1797923235
C   C141      1.0  0.48790  0.54060  0.55720  1.0000 -0.1942224478
C   C142      1.0  0.01770  0.50050  0.15940  1.0000 0.1996233317
C   C143      1.0  0.71600  0.67910  0.57780  1.0000 0.099853118
C   C144      1.0  0.51190  0.51020  0.57790  1.0000 0.0912352684
C   C145      1.0  0.31340  0.43030  0.60360  1.0000 -0.1482395566
C   C146      1.0  0.72450  0.77580  0.67170  1.0000 0.0912352684
C   C147      1.0  0.97800  0.58410  0.22750  1.0000 0.0206785918
C   C148      1.0  0.51290  0.56460  0.53360  1.0000 0.0206785918
C   C149      1.0  0.31450  0.44960  0.65490  1.0000 -0.1403877101
C   C150      1.0  0.83410  0.70810  0.62740  1.0000 0.1102660637
C   C151      1.0  0.65960  0.68560  0.57870  1.0000 -0.1797923235
C   C152      1.0  0.25760  0.42320  0.60660  1.0000 -0.2192972311
C   C153      1.0  0.78920  0.06070  0.90177  1.0000 -0.1403877101
C   C154      1.0  0.80140  0.08910  0.87587  1.0000 0.0410934745
C   C155      1.0  0.81710  0.06130  0.85037  1.0000 -0.1482395566
C   C156      1.0  0.82060  0.00510  0.85077  1.0000 -0.227581758
C   C157      1.0  0.80840  0.97680  0.87670  1.0000 0.2068359858
C   C158      1.0  0.79270  0.00460  0.90217  1.0000 -0.2192972311
C   C159      1.0  0.80300  0.68470  0.60710  1.0000 -0.2192972311
C   C160      1.0  0.83180  0.89580  0.85740  1.0000 -0.2102385798
C   C161      1.0  0.75210  0.69830  0.60340  1.0000 0.1712780889
C   C162      1.0  0.89610  0.69650  0.62740  1.0000 0.0610893138
C   C163      1.0  0.92440  0.69500  0.60060  1.0000 -0.1590248955
C   C164      1.0  0.98020  0.68780  0.60070  1.0000 -0.2192972311
C   C165      1.0  0.00770  0.68190  0.62760  1.0000 0.1996233317
C   C166      1.0  0.97930  0.68340  0.65430  1.0000 -0.2102385798
C   C167      1.0  0.92350  0.69060  0.65420  1.0000 -0.1590248955
C   C168      1.0  0.14810  0.41960  0.61140  1.0000 -0.2403671989
C   C169      1.0  0.18370  0.43690  0.16700  1.0000 -0.1403877101
C   C170      1.0  0.15940  0.45200  0.14030  1.0000 0.0410934745
C   C171      1.0  0.19060  0.45800  0.11480  1.0000 -0.1482395566
C   C172      1.0  0.24610  0.44890  0.11590  1.0000 -0.2102385798
C   C173      1.0  0.27040  0.43380  0.14260  1.0000 0.2204331732
C   C174      1.0  0.23920  0.42780  0.16810  1.0000 -0.2102385798
C   C175      1.0  0.08660  0.66500  0.65180  1.0000 -0.19958356
C   C176      1.0  0.33240  0.37050  0.15580  1.0000 -0.227581758
C   C177      1.0  0.90760  0.99200  0.95090  1.0000 -0.1797923235
C   C178      1.0  0.76020  0.76070  0.07740  1.0000 0.0696942381
C   C179      1.0  0.85560  0.68020  0.19900  1.0000 -0.0009147047
C   C180      1.0  0.93650  0.60370  0.31270  1.0000 0.0410934745
C   C181      1.0  0.92610  0.97280  0.92360  1.0000 0.0912352684
C   C182      1.0  0.73420  0.70390  0.15010  1.0000 0.1996233317
C   C183      1.0  0.82450  0.69540  0.17570  1.0000 -0.1797923235
C   C184      1.0  0.67440  0.72690  0.10090  1.0000 -0.2618624897
C   C185      1.0  0.89030  0.95750  0.97130  1.0000 0.0410934745
C   C186      1.0  0.73070  0.73650  0.10190  1.0000 0.1904770226
C   C187      1.0  0.77000  0.68880  0.17610  1.0000 0.0912352684
C   C188      1.0  0.67870  0.69380  0.15100  1.0000 -0.2502347673
C   C189      1.0  0.91010  0.88380  0.94220  1.0000 0.0206785918
C   C190      1.0  0.95100  0.57290  0.33870  1.0000 -0.2102385798
C   C191      1.0  0.78100  0.65630  0.22500  1.0000 0.0610893138
C   C192      1.0  0.81660  0.75760  0.07580  1.0000 -0.19958356
C   C193      1.0  0.94940  0.51660  0.33680  1.0000 0.0912352684
C   C194      1.0  0.76370  0.81300  0.03220  1.0000 0.0410934745
C   C195      1.0  0.05580  0.49020  0.45680  1.0000 -0.19958356
C   C196      1.0  0.84430  0.78080  0.05160  1.0000 0.0696942381
C   C197      1.0  0.73390  0.78860  0.05450  1.0000 -0.19958356
C   C198      1.0  0.96460  0.48300  0.36320  1.0000 0.1996233317
C   C199      1.0  0.16280  0.76170  0.80200  1.0000 -0.2102385798
C   C200      1.0  0.64850  0.70450  0.12570  1.0000 0.1102660637
C   C201      1.0  0.93050  0.49440  0.31080  1.0000 -0.2102385798
C   C202      1.0  0.74720  0.67150  0.20230  1.0000 -0.2192972311
C   C203      1.0  0.93020  0.91610  0.92060  1.0000 -0.1797923235
C   C204      1.0  0.93230  0.26840  0.88200  1.0000 0.1996233317
C   C205      1.0  0.91310  0.52700  0.28690  1.0000 0.0610893138
C   C206      1.0  0.94730  0.24010  0.90710  1.0000 -0.2192972311
C   C207      1.0  0.93720  0.06420  0.89890  1.0000 -0.2791914468
C   C208      1.0  0.95180  0.09680  0.87610  1.0000 0.1195035642
C   C209      1.0  0.16190  0.86970  0.80700  1.0000 0.0206785918
C   C210      1.0  0.96570  0.39870  0.38950  1.0000 0.1102660637
C   C211      1.0  0.95120  0.42770  0.36450  1.0000 -0.2502347673
C   C212      1.0  0.28290  0.83333  0.91840  1.0000 -0.227581758
C   C213      1.0  0.13990  0.79460  0.77930  1.0000 0.0610893138
C   C214      1.0  0.94440  0.00900  0.89840  1.0000 0.22868476
C   C215      1.0  0.98040  0.01740  0.85170  1.0000 0.1712780889
C   C216      1.0  0.02860  0.51290  0.43300  1.0000 0.0832176284
C   C217      1.0  0.00580  0.93200  0.82330  1.0000 -0.2192972311
C   C218      1.0  0.31160  0.85830  0.94080  1.0000 0.0696942381
C   C219      1.0  0.99070  0.42740  0.41320  1.0000 -0.2618624897
C   C220      1.0  0.94420  0.15890  0.87880  1.0000 0.0490065931
C   C221      1.0  0.23710  0.69000  0.89920  1.0000 -0.2502347673
C   C222      1.0  0.03030  0.57090  0.43170  1.0000 -0.2192972311
C   C223      1.0  0.05810  0.60080  0.45320  1.0000 0.0832176284
C   C224      1.0  0.24250  0.74500  0.89690  1.0000 0.1996233317
C   C225      1.0  0.33280  0.78000  0.96270  1.0000 0.0206785918
C   C226      1.0  0.03340  0.90720  0.80330  1.0000 0.0490065931
C   C227      1.0  0.97540  0.07290  0.85250  1.0000 -0.227581758
C   C228      1.0  0.30330  0.75000  0.94210  1.0000 -0.1797923235
C   C229      1.0  0.04060  0.01210  0.80720  1.0000 -0.1942224478
C   C230      1.0  0.00050  0.48230  0.40940  1.0000 0.1996233317
C   C231      1.0  0.17910  0.78400  0.82780  1.0000 0.099853118
C   C232      1.0  0.01020  0.98810  0.82790  1.0000 0.0912352684
C   C233      1.0  0.93030  0.18660  0.85360  1.0000 -0.1482395566
C   C234      1.0  0.27580  0.77550  0.92170  1.0000 0.0912352684
C   C235      1.0  0.08410  0.52200  0.47750  1.0000 0.0256735484
C   C236      1.0  0.06460  0.98710  0.78360  1.0000 0.0206785918
C   C237      1.0  0.94960  0.18550  0.90490  1.0000 -0.1403877101
C   C238      1.0  0.20810  0.66590  0.87740  1.0000 0.1102660637
C   C239      1.0  0.18560  0.84040  0.82870  1.0000 -0.1797923235
C   C240      1.0  0.92320  0.24240  0.85660  1.0000 -0.2192972311
C   C241      1.0  0.56070  0.71080  0.15177  1.0000 -0.1482395566
C   C242      1.0  0.58910  0.69860  0.12587  1.0000 0.0410934745
C   C243      1.0  0.56130  0.68290  0.10037  1.0000 -0.1482395566
C   C244      1.0  0.50510  0.67940  0.10077  1.0000 -0.227581758
C   C245      1.0  0.47680  0.69160  0.12670  1.0000 0.2068359858
C   C246      1.0  0.50460  0.70730  0.15217  1.0000 -0.2192972311
C   C247      1.0  0.18470  0.69700  0.85710  1.0000 -0.2192972311
C   C248      1.0  0.39580  0.66820  0.10740  1.0000 -0.2192972311
C   C249      1.0  0.19830  0.74790  0.85340  1.0000 0.1712780889
C   C250      1.0  0.19650  0.60390  0.87740  1.0000 0.0610893138
C   C251      1.0  0.19500  0.57560  0.85060  1.0000 -0.1590248955
C   C252      1.0  0.18780  0.51980  0.85070  1.0000 -0.2192972311
C   C253      1.0  0.18190  0.49230  0.87760  1.0000 0.1996233317
C   C254      1.0  0.18340  0.52070  0.90430  1.0000 -0.2102385798
C   C255      1.0  0.19060  0.57650  0.90420  1.0000 -0.1590248955
C   C256      1.0  0.91960  0.35190  0.86140  1.0000 -0.2403671989
C   C257      1.0  0.93690  0.31630  0.41700  1.0000 -0.1403877101
C   C258      1.0  0.95200  0.34060  0.39030  1.0000 0.0410934745
C   C259      1.0  0.95800  0.30940  0.36480  1.0000 -0.1482395566
C   C260      1.0  0.94890  0.25390  0.36590  1.0000 -0.2102385798
C   C261      1.0  0.93380  0.22960  0.39260  1.0000 0.2204331732
C   C262      1.0  0.92780  0.26080  0.41810  1.0000 -0.2102385798
C   C263      1.0  0.16500  0.41340  0.90180  1.0000 -0.19958356
C   C264      1.0  0.87050  0.16760  0.40580  1.0000 -0.2192972311
C   C265      1.0  0.09240  0.00800  0.45090  1.0000 -0.1797923235
C   C266      1.0  0.23980  0.23930  0.57740  1.0000 0.0696942381
C   C267      1.0  0.14440  0.31980  0.69900  1.0000 -0.0009147047
C   C268      1.0  0.06350  0.39630  0.81270  1.0000 0.0410934745
C   C269      1.0  0.07390  0.02720  0.42360  1.0000 0.0912352684
C   C270      1.0  0.26580  0.29610  0.65010  1.0000 0.1996233317
C   C271      1.0  0.17550  0.30460  0.67570  1.0000 -0.1797923235
C   C272      1.0  0.32560  0.27310  0.60090  1.0000 -0.2618624897
C   C273      1.0  0.10970  0.04250  0.47130  1.0000 0.0410934745
C   C274      1.0  0.26930  0.26350  0.60190  1.0000 0.1904770226
C   C275      1.0  0.23000  0.31120  0.67610  1.0000 0.0912352684
C   C276      1.0  0.32130  0.30620  0.65100  1.0000 -0.2502347673
C   C277      1.0  0.08990  0.11620  0.44220  1.0000 0.0206785918
C   C278      1.0  0.04900  0.42710  0.83870  1.0000 -0.2102385798
C   C279      1.0  0.21900  0.34370  0.72500  1.0000 0.0610893138
C   C280      1.0  0.18340  0.24240  0.57580  1.0000 -0.19958356
C   C281      1.0  0.05060  0.48340  0.83680  1.0000 0.0912352684
C   C282      1.0  0.23630  0.18700  0.53220  1.0000 0.0410934745
C   C283      1.0  0.94420  0.50980  0.95680  1.0000 -0.19958356
C   C284      1.0  0.15570  0.21920  0.55160  1.0000 0.0696942381
C   C285      1.0  0.26610  0.21140  0.55450  1.0000 -0.19958356
C   C286      1.0  0.03540  0.51700  0.86320  1.0000 0.1996233317
C   C287      1.0  0.83720  0.23830  0.30200  1.0000 -0.2102385798
C   C288      1.0  0.35150  0.29550  0.62570  1.0000 0.1102660637
C   C289      1.0  0.06950  0.50560  0.81080  1.0000 -0.2102385798
C   C290      1.0  0.25280  0.32850  0.70230  1.0000 -0.2192972311
C   C291      1.0  0.06980  0.08390  0.42060  1.0000 -0.1797923235
C   C292      1.0  0.06770  0.73160  0.38200  1.0000 0.1996233317
C   C293      1.0  0.08690  0.47300  0.78690  1.0000 0.0696942381
C   C294      1.0  0.05270  0.75990  0.40710  1.0000 -0.2192972311
C   C295      1.0  0.06280  0.93580  0.39890  1.0000 -0.2791914468
C   C296      1.0  0.04820  0.90320  0.37610  1.0000 0.1195035642
C   C297      1.0  0.83810  0.13030  0.30700  1.0000 0.0206785918
C   C298      1.0  0.03430  0.60130  0.88950  1.0000 0.1195035642
C   C299      1.0  0.04880  0.57230  0.86450  1.0000 -0.2502347673
C   C300      1.0  0.71710  0.16667  0.41840  1.0000 -0.227581758
C   C301      1.0  0.86010  0.20540  0.27930  1.0000 0.0610893138
C   C302      1.0  0.05560  0.99100  0.39840  1.0000 0.22868476
C   C303      1.0  0.01960  0.98260  0.35170  1.0000 0.1712780889
C   C304      1.0  0.97140  0.48710  0.93300  1.0000 0.0832176284
C   C305      1.0  0.99420  0.06800  0.32330  1.0000 -0.2192972311
C   C306      1.0  0.68840  0.14170  0.44080  1.0000 0.0696942381
C   C307      1.0  0.00930  0.57260  0.91320  1.0000 -0.2618624897
C   C308      1.0  0.05580  0.84110  0.37880  1.0000 0.0490065931
C   C309      1.0  0.76290  0.31000  0.39920  1.0000 -0.2502347673
C   C310      1.0  0.96970  0.42910  0.93170  1.0000 -0.2192972311
C   C311      1.0  0.94190  0.39920  0.95320  1.0000 0.0832176284
C   C312      1.0  0.75750  0.25500  0.39690  1.0000 0.1996233317
C   C313      1.0  0.66720  0.22000  0.46270  1.0000 0.0206785918
C   C314      1.0  0.96660  0.09280  0.30330  1.0000 0.0490065931
C   C315      1.0  0.02460  0.92710  0.35250  1.0000 -0.227581758
C   C316      1.0  0.69670  0.25000  0.44210  1.0000 -0.1797923235
C   C317      1.0  0.95940  0.98790  0.30720  1.0000 -0.1942224478
C   C318      1.0  0.99950  0.51770  0.90940  1.0000 0.1996233317
C   C319      1.0  0.82090  0.21600  0.32780  1.0000 0.099853118
C   C320      1.0  0.98980  0.01190  0.32790  1.0000 0.0912352684
C   C321      1.0  0.06970  0.81340  0.35360  1.0000 -0.1482395566
C   C322      1.0  0.72420  0.22450  0.42170  1.0000 0.0912352684
C   C323      1.0  0.91590  0.47800  0.97750  1.0000 0.0256735484
C   C324      1.0  0.93540  0.01290  0.28360  1.0000 0.0206785918
C   C325      1.0  0.05040  0.81450  0.40490  1.0000 -0.1403877101
C   C326      1.0  0.79190  0.33410  0.37740  1.0000 0.1102660637
C   C327      1.0  0.81440  0.15960  0.32870  1.0000 -0.1797923235
C   C328      1.0  0.07680  0.75760  0.35660  1.0000 -0.2192972311
C   C329      1.0  0.43930  0.28920  0.65177  1.0000 -0.1403877101
C   C330      1.0  0.41090  0.30140  0.62587  1.0000 0.0410934745
C   C331      1.0  0.43870  0.31710  0.60037  1.0000 -0.1482395566
C   C332      1.0  0.49490  0.32060  0.60077  1.0000 -0.227581758
C   C333      1.0  0.52320  0.30840  0.62670  1.0000 0.2068359858
C   C334      1.0  0.49540  0.29270  0.65217  1.0000 -0.2192972311
C   C335      1.0  0.81530  0.30300  0.35710  1.0000 -0.2192972311
C   C336      1.0  0.60420  0.33180  0.60740  1.0000 -0.2102385798
C   C337      1.0  0.80170  0.25210  0.35340  1.0000 0.1712780889
C   C338      1.0  0.80350  0.39610  0.37740  1.0000 0.0610893138
C   C339      1.0  0.80500  0.42440  0.35060  1.0000 -0.1590248955
C   C340      1.0  0.81220  0.48020  0.35070  1.0000 -0.2192972311
C   C341      1.0  0.81810  0.50770  0.37760  1.0000 0.1996233317
C   C342      1.0  0.81660  0.47930  0.40430  1.0000 -0.2102385798
C   C343      1.0  0.80940  0.42350  0.40420  1.0000 -0.1590248955
C   C344      1.0  0.08040  0.64810  0.36140  1.0000 -0.2403671989
C   C345      1.0  0.06310  0.68370  0.91700  1.0000 -0.1403877101
C   C346      1.0  0.04800  0.65940  0.89030  1.0000 0.0410934745
C   C347      1.0  0.04200  0.69060  0.86480  1.0000 -0.1482395566
C   C348      1.0  0.05110  0.74610  0.86590  1.0000 -0.2102385798
C   C349      1.0  0.06620  0.77040  0.89260  1.0000 0.2204331732
C   C350      1.0  0.07220  0.73920  0.91810  1.0000 -0.2102385798
C   C351      1.0  0.83500  0.58660  0.40180  1.0000 -0.19958356
C   C352      1.0  0.12950  0.83240  0.90580  1.0000 -0.227581758
C   C353      1.0  0.00800  0.09240  0.54910  1.0000 -0.1797923235
C   C354      1.0  0.23930  0.23980  0.42260  1.0000 0.0696942381
C   C355      1.0  0.31980  0.14440  0.30100  1.0000 -0.0009147047
C   C356      1.0  0.39630  0.06350  0.18730  1.0000 0.0410934745
C   C357      1.0  0.02720  0.07390  0.57640  1.0000 0.0912352684
C   C358      1.0  0.29610  0.26580  0.34990  1.0000 0.1996233317
C   C359      1.0  0.30460  0.17550  0.32430  1.0000 -0.1797923235
C   C360      1.0  0.27310  0.32560  0.39910  1.0000 -0.2618624897
C   C361      1.0  0.04250  0.10970  0.52870  1.0000 0.0410934745
C   C362      1.0  0.26350  0.26930  0.39810  1.0000 0.1904770226
C   C363      1.0  0.31120  0.23000  0.32390  1.0000 0.0912352684
C   C364      1.0  0.30620  0.32130  0.34900  1.0000 -0.2502347673
C   C365      1.0  0.11620  0.08990  0.55780  1.0000 0.0206785918
C   C366      1.0  0.42710  0.04900  0.16130  1.0000 -0.2102385798
C   C367      1.0  0.34370  0.21900  0.27500  1.0000 0.0610893138
C   C368      1.0  0.24240  0.18340  0.42420  1.0000 -0.19958356
C   C369      1.0  0.48340  0.05060  0.16320  1.0000 0.0912352684
C   C370      1.0  0.18700  0.23630  0.46780  1.0000 0.0410934745
C   C371      1.0  0.50980  0.94420  0.04320  1.0000 -0.19958356
C   C372      1.0  0.21920  0.15570  0.44840  1.0000 0.0696942381
C   C373      1.0  0.21140  0.26610  0.44550  1.0000 -0.19958356
C   C374      1.0  0.51700  0.03540  0.13680  1.0000 0.1996233317
C   C375      1.0  0.23830  0.83720  0.69800  1.0000 -0.2102385798
C   C376      1.0  0.29550  0.35150  0.37430  1.0000 0.1102660637
C   C377      1.0  0.50560  0.06950  0.18920  1.0000 -0.2102385798
C   C378      1.0  0.32850  0.25280  0.29770  1.0000 -0.2192972311
C   C379      1.0  0.08390  0.06980  0.57940  1.0000 -0.1797923235
C   C380      1.0  0.73160  0.06770  0.61800  1.0000 0.1996233317
C   C381      1.0  0.47300  0.08690  0.21310  1.0000 0.0696942381
C   C382      1.0  0.75990  0.05270  0.59290  1.0000 -0.2192972311
C   C383      1.0  0.93580  0.06280  0.60110  1.0000 -0.2791914468
C   C384      1.0  0.90320  0.04820  0.62390  1.0000 0.1195035642
C   C385      1.0  0.13030  0.83810  0.69300  1.0000 0.0206785918
C   C386      1.0  0.60130  0.03430  0.11050  1.0000 0.1195035642
C   C387      1.0  0.57230  0.04880  0.13550  1.0000 -0.2502347673
C   C388      1.0  0.16667  0.71710  0.58160  1.0000 -0.227581758
C   C389      1.0  0.20540  0.86010  0.72070  1.0000 0.0610893138
C   C390      1.0  0.99100  0.05560  0.60160  1.0000 0.22868476
C   C391      1.0  0.98260  0.01960  0.64830  1.0000 0.1712780889
C   C392      1.0  0.48710  0.97140  0.06700  1.0000 0.0832176284
C   C393      1.0  0.06800  0.99420  0.67670  1.0000 -0.2192972311
C   C394      1.0  0.14170  0.68840  0.55920  1.0000 0.0696942381
C   C395      1.0  0.57260  0.00930  0.08680  1.0000 -0.2618624897
C   C396      1.0  0.84110  0.05580  0.62120  1.0000 0.0490065931
C   C397      1.0  0.31000  0.76290  0.60080  1.0000 -0.2502347673
C   C398      1.0  0.42910  0.96970  0.06830  1.0000 -0.2192972311
C   C399      1.0  0.39920  0.94190  0.04680  1.0000 0.0832176284
C   C400      1.0  0.25500  0.75750  0.60310  1.0000 0.1996233317
C   C401      1.0  0.22000  0.66720  0.53730  1.0000 0.0206785918
C   C402      1.0  0.09280  0.96660  0.69670  1.0000 0.0490065931
C   C403      1.0  0.92710  0.02460  0.64750  1.0000 -0.227581758
C   C404      1.0  0.25000  0.69670  0.55790  1.0000 -0.1797923235
C   C405      1.0  0.98790  0.95940  0.69280  1.0000 -0.1942224478
C   C406      1.0  0.51770  0.99950  0.09060  1.0000 0.1996233317
C   C407      1.0  0.21600  0.82090  0.67220  1.0000 0.099853118
C   C408      1.0  0.01190  0.98980  0.67210  1.0000 0.0912352684
C   C409      1.0  0.81340  0.06970  0.64640  1.0000 -0.1482395566
C   C410      1.0  0.22450  0.72420  0.57830  1.0000 0.0912352684
C   C411      1.0  0.47800  0.91590  0.02250  1.0000 0.0206785918
C   C412      1.0  0.01290  0.93540  0.71640  1.0000 0.0206785918
C   C413      1.0  0.81450  0.05040  0.59510  1.0000 -0.1403877101
C   C414      1.0  0.33410  0.79190  0.62260  1.0000 0.1102660637
C   C415      1.0  0.15960  0.81440  0.67130  1.0000 -0.1797923235
C   C416      1.0  0.75760  0.07680  0.64340  1.0000 -0.2192972311
C   C417      1.0  0.28920  0.43930  0.34823  1.0000 -0.1403877101
C   C418      1.0  0.30140  0.41090  0.37413  1.0000 0.0410934745
C   C419      1.0  0.31710  0.43870  0.39963  1.0000 -0.1482395566
C   C420      1.0  0.32060  0.49490  0.39923  1.0000 -0.227581758
C   C421      1.0  0.30840  0.52320  0.37330  1.0000 0.2068359858
C   C422      1.0  0.29270  0.49540  0.34783  1.0000 -0.2192972311
C   C423      1.0  0.30300  0.81530  0.64290  1.0000 -0.2192972311
C   C424      1.0  0.33180  0.60420  0.39260  1.0000 -0.2192972311
C   C425      1.0  0.25210  0.80170  0.64660  1.0000 0.1712780889
C   C426      1.0  0.39610  0.80350  0.62260  1.0000 0.0610893138
C   C427      1.0  0.42440  0.80500  0.64940  1.0000 -0.1590248955
C   C428      1.0  0.48020  0.81220  0.64930  1.0000 -0.2192972311
C   C429      1.0  0.50770  0.81810  0.62240  1.0000 0.1996233317
C   C430      1.0  0.47930  0.81660  0.59570  1.0000 -0.2102385798
C   C431      1.0  0.42350  0.80940  0.59580  1.0000 -0.1590248955
C   C432      1.0  0.64810  0.08040  0.63860  1.0000 -0.2403671989
C   C433      1.0  0.68370  0.06310  0.08300  1.0000 -0.1403877101
C   C434      1.0  0.65940  0.04800  0.10970  1.0000 0.0410934745
C   C435      1.0  0.69060  0.04200  0.13520  1.0000 -0.1482395566
C   C436      1.0  0.74610  0.05110  0.13410  1.0000 -0.2102385798
C   C437      1.0  0.77040  0.06620  0.10740  1.0000 0.2204331732
C   C438      1.0  0.73920  0.07220  0.08190  1.0000 -0.2102385798
C   C439      1.0  0.58660  0.83500  0.59820  1.0000 -0.19958356
C   C440      1.0  0.83240  0.12950  0.09420  1.0000 -0.2192972311
C   C441      1.0  0.99200  0.90760  0.04910  1.0000 -0.1797923235
C   C442      1.0  0.76070  0.76020  0.92260  1.0000 0.0696942381
C   C443      1.0  0.68020  0.85560  0.80100  1.0000 -0.0009147047
C   C444      1.0  0.60370  0.93650  0.68730  1.0000 0.0410934745
C   C445      1.0  0.97280  0.92610  0.07640  1.0000 0.0832176284
C   C446      1.0  0.70390  0.73420  0.84990  1.0000 0.1996233317
C   C447      1.0  0.69540  0.82450  0.82430  1.0000 -0.1797923235
C   C448      1.0  0.72690  0.67440  0.89910  1.0000 -0.2618624897
C   C449      1.0  0.95750  0.89030  0.02870  1.0000 0.0410934745
C   C450      1.0  0.73650  0.73070  0.89810  1.0000 0.1904770226
C   C451      1.0  0.68880  0.77000  0.82390  1.0000 0.0912352684
C   C452      1.0  0.69380  0.67870  0.84900  1.0000 -0.2502347673
C   C453      1.0  0.88380  0.91010  0.05780  1.0000 0.0206785918
C   C454      1.0  0.57290  0.95100  0.66130  1.0000 -0.2102385798
C   C455      1.0  0.65630  0.78100  0.77500  1.0000 0.0610893138
C   C456      1.0  0.75760  0.81660  0.92420  1.0000 -0.19958356
C   C457      1.0  0.51660  0.94940  0.66320  1.0000 0.0912352684
C   C458      1.0  0.81300  0.76370  0.96780  1.0000 0.0410934745
C   C459      1.0  0.49020  0.05580  0.54320  1.0000 -0.19958356
C   C460      1.0  0.78080  0.84430  0.94840  1.0000 0.0696942381
C   C461      1.0  0.78860  0.73390  0.94550  1.0000 -0.19958356
C   C462      1.0  0.48300  0.96460  0.63680  1.0000 0.1996233317
C   C463      1.0  0.76170  0.16280  0.19800  1.0000 -0.2102385798
C   C464      1.0  0.70450  0.64850  0.87430  1.0000 0.1102660637
C   C465      1.0  0.49440  0.93050  0.68920  1.0000 -0.2102385798
C   C466      1.0  0.67150  0.74720  0.79770  1.0000 -0.2192972311
C   C467      1.0  0.91610  0.93020  0.07940  1.0000 -0.1797923235
C   C468      1.0  0.26840  0.93230  0.11800  1.0000 0.1996233317
C   C469      1.0  0.52700  0.91310  0.71310  1.0000 0.0696942381
C   C470      1.0  0.24010  0.94730  0.09290  1.0000 -0.2192972311
C   C471      1.0  0.06420  0.93720  0.10110  1.0000 -0.2791914468
C   C472      1.0  0.09680  0.95180  0.12390  1.0000 0.1195035642
C   C473      1.0  0.86970  0.16190  0.19300  1.0000 0.0206785918
C   C474      1.0  0.39870  0.96570  0.61050  1.0000 0.1102660637
C   C475      1.0  0.42770  0.95120  0.63550  1.0000 -0.2502347673
C   C476      1.0  0.83333  0.28290  0.08160  1.0000 -0.227581758
C   C477      1.0  0.79460  0.13990  0.22070  1.0000 0.0610893138
C   C478      1.0  0.00900  0.94440  0.10160  1.0000 0.22868476
C   C479      1.0  0.01740  0.98040  0.14830  1.0000 0.1712780889
C   C480      1.0  0.51290  0.02860  0.56700  1.0000 0.0832176284
C   C481      1.0  0.93200  0.00580  0.17670  1.0000 -0.2192972311
C   C482      1.0  0.85830  0.31160  0.05920  1.0000 0.0696942381
C   C483      1.0  0.42740  0.99070  0.58680  1.0000 -0.2618624897
C   C484      1.0  0.15890  0.94420  0.12120  1.0000 0.0490065931
C   C485      1.0  0.69000  0.23710  0.10080  1.0000 -0.2502347673
C   C486      1.0  0.57090  0.03030  0.56830  1.0000 -0.2102385798
C   C487      1.0  0.60080  0.05810  0.54680  1.0000 0.0832176284
C   C488      1.0  0.74500  0.24250  0.10310  1.0000 0.1996233317
C   C489      1.0  0.78000  0.33280  0.03730  1.0000 0.0206785918
C   C490      1.0  0.90720  0.03340  0.19670  1.0000 0.0490065931
C   C491      1.0  0.07290  0.97540  0.14750  1.0000 -0.227581758
C   C492      1.0  0.75000  0.30330  0.05790  1.0000 -0.1797923235
C   C493      1.0  0.01210  0.04060  0.19280  1.0000 -0.1942224478
C   C494      1.0  0.48230  0.00050  0.59060  1.0000 0.1996233317
C   C495      1.0  0.78400  0.17910  0.17220  1.0000 0.099853118
C   C496      1.0  0.98810  0.01020  0.17210  1.0000 0.0912352684
C   C497      1.0  0.18660  0.93030  0.14640  1.0000 -0.1482395566
C   C498      1.0  0.77550  0.27580  0.07830  1.0000 0.0912352684
C   C499      1.0  0.52200  0.08410  0.52250  1.0000 0.0206785918
C   C500      1.0  0.98710  0.06460  0.21640  1.0000 0.0206785918
C   C501      1.0  0.18550  0.94960  0.09510  1.0000 -0.1403877101
C   C502      1.0  0.66590  0.20810  0.12260  1.0000 0.1102660637
C   C503      1.0  0.84040  0.18560  0.17130  1.0000 -0.1797923235
C   C504      1.0  0.24240  0.92320  0.14340  1.0000 -0.2192972311
C   C505      1.0  0.71080  0.56070  0.84823  1.0000 -0.1403877101
C   C506      1.0  0.69860  0.58910  0.87413  1.0000 0.0410934745
C   C507      1.0  0.68290  0.56130  0.89963  1.0000 -0.1482395566
C   C508      1.0  0.67940  0.50510  0.89923  1.0000 -0.227581758
C   C509      1.0  0.69160  0.47680  0.87330  1.0000 0.2068359858
C   C510      1.0  0.70730  0.50460  0.84783  1.0000 -0.2192972311
C   C511      1.0  0.69700  0.18470  0.14290  1.0000 -0.2192972311
C   C512      1.0  0.66820  0.39580  0.89260  1.0000 -0.2192972311
C   C513      1.0  0.74790  0.19830  0.14660  1.0000 0.1712780889
C   C514      1.0  0.60390  0.19650  0.12260  1.0000 0.0610893138
C   C515      1.0  0.57560  0.19500  0.14940  1.0000 -0.1590248955
C   C516      1.0  0.51980  0.18780  0.14930  1.0000 -0.2192972311
C   C517      1.0  0.49230  0.18190  0.12240  1.0000 0.1996233317
C   C518      1.0  0.52070  0.18340  0.09570  1.0000 -0.2102385798
C   C519      1.0  0.57650  0.19060  0.09580  1.0000 -0.1590248955
C   C520      1.0  0.35190  0.91960  0.13860  1.0000 -0.2403671989
C   C521      1.0  0.31630  0.93690  0.58300  1.0000 -0.1403877101
C   C522      1.0  0.34060  0.95200  0.60970  1.0000 0.0410934745
C   C523      1.0  0.30940  0.95800  0.63520  1.0000 -0.1482395566
C   C524      1.0  0.25390  0.94890  0.63410  1.0000 -0.2102385798
C   C525      1.0  0.22960  0.93380  0.60740  1.0000 0.2204331732
C   C526      1.0  0.26080  0.92780  0.58190  1.0000 -0.2102385798
C   C527      1.0  0.41340  0.16500  0.09820  1.0000 -0.19958356
C   C528      1.0  0.16760  0.87050  0.59420  1.0000 -0.227581758
C   C529      1.0  0.59240  0.49200  0.79910  1.0000 -0.1797923235
C   C530      1.0  0.73980  0.26070  0.67260  1.0000 0.0696942381
C   C531      1.0  0.64440  0.18020  0.55100  1.0000 -0.0009147047
C   C532      1.0  0.56350  0.10370  0.43730  1.0000 0.0410934745
C   C533      1.0  0.57390  0.47280  0.82640  1.0000 0.0912352684
C   C534      1.0  0.76580  0.20390  0.59990  1.0000 0.1996233317
C   C535      1.0  0.67550  0.19540  0.57430  1.0000 -0.1797923235
C   C536      1.0  0.82560  0.22690  0.64910  1.0000 -0.2618624897
C   C537      1.0  0.60970  0.45750  0.77870  1.0000 0.0410934745
C   C538      1.0  0.76930  0.23650  0.64810  1.0000 0.1904770226
C   C539      1.0  0.73000  0.18880  0.57390  1.0000 0.0912352684
C   C540      1.0  0.82130  0.19380  0.59900  1.0000 -0.2502347673
C   C541      1.0  0.58990  0.38380  0.80780  1.0000 0.0206785918
C   C542      1.0  0.54900  0.07290  0.41130  1.0000 -0.2102385798
C   C543      1.0  0.71900  0.15630  0.52500  1.0000 0.0610893138
C   C544      1.0  0.68340  0.25760  0.67420  1.0000 -0.19958356
C   C545      1.0  0.55060  0.01660  0.41320  1.0000 0.0912352684
C   C546      1.0  0.73630  0.31300  0.71780  1.0000 0.0410934745
C   C547      1.0  0.44420  0.99020  0.29320  1.0000 -0.19958356
C   C548      1.0  0.65570  0.28080  0.69840  1.0000 0.0696942381
C   C549      1.0  0.76610  0.28860  0.69550  1.0000 -0.19958356
C   C550      1.0  0.53540  0.98300  0.38680  1.0000 0.1996233317
C   C551      1.0  0.33720  0.26170  0.94800  1.0000 -0.2102385798
C   C552      1.0  0.85150  0.20450  0.62430  1.0000 0.1102660637
C   C553      1.0  0.56950  0.99440  0.43920  1.0000 -0.2102385798
C   C554      1.0  0.75280  0.17150  0.54770  1.0000 -0.2192972311
C   C555      1.0  0.56980  0.41610  0.82940  1.0000 -0.1797923235
C   C556      1.0  0.56770  0.76840  0.86800  1.0000 0.1996233317
C   C557      1.0  0.58690  0.02700  0.46310  1.0000 0.0696942381
C   C558      1.0  0.55270  0.74010  0.84290  1.0000 -0.2192972311
C   C559      1.0  0.56280  0.56420  0.85110  1.0000 -0.2791914468
C   C560      1.0  0.54820  0.59680  0.87390  1.0000 0.1195035642
C   C561      1.0  0.33810  0.36970  0.94300  1.0000 0.0206785918
C   C562      1.0  0.53430  0.89870  0.36050  1.0000 0.1102660637
C   C563      1.0  0.54880  0.92770  0.38550  1.0000 -0.2502347673
C   C564      1.0  0.21710  0.33333  0.83160  1.0000 -0.227581758
C   C565      1.0  0.36010  0.29460  0.97070  1.0000 0.0610893138
C   C566      1.0  0.55560  0.50900  0.85160  1.0000 0.22868476
C   C567      1.0  0.51960  0.51740  0.89830  1.0000 0.1712780889
C   C568      1.0  0.47140  0.01290  0.31700  1.0000 0.0832176284
C   C569      1.0  0.49420  0.43200  0.92670  1.0000 -0.227581758
C   C570      1.0  0.18840  0.35830  0.80920  1.0000 0.0696942381
C   C571      1.0  0.50930  0.92740  0.33680  1.0000 -0.2618624897
C   C572      1.0  0.55580  0.65890  0.87120  1.0000 0.0490065931
C   C573      1.0  0.26290  0.19000  0.85080  1.0000 -0.2502347673
C   C574      1.0  0.46970  0.07090  0.31830  1.0000 -0.2192972311
C   C575      1.0  0.44190  0.10080  0.29680  1.0000 0.0832176284
C   C576      1.0  0.25750  0.24500  0.85310  1.0000 0.1996233317
C   C577      1.0  0.16720  0.28000  0.78730  1.0000 0.0206785918
C   C578      1.0  0.46660  0.40720  0.94670  1.0000 0.0490065931
C   C579      1.0  0.52460  0.57290  0.89750  1.0000 -0.227581758
C   C580      1.0  0.19670  0.25000  0.80790  1.0000 -0.1797923235
C   C581      1.0  0.45940  0.51210  0.94280  1.0000 -0.1942224478
C   C582      1.0  0.49950  0.98230  0.34060  1.0000 0.1996233317
C   C583      1.0  0.32090  0.28400  0.92220  1.0000 0.099853118
C   C584      1.0  0.48980  0.48810  0.92210  1.0000 0.0912352684
C   C585      1.0  0.56970  0.68660  0.89640  1.0000 -0.1482395566
C   C586      1.0  0.22420  0.27550  0.82830  1.0000 0.0912352684
C   C587      1.0  0.41590  0.02200  0.27250  1.0000 0.0256735484
C   C588      1.0  0.43540  0.48710  0.96640  1.0000 0.0206785918
C   C589      1.0  0.55040  0.68550  0.84510  1.0000 -0.1403877101
C   C590      1.0  0.29190  0.16590  0.87260  1.0000 0.1102660637
C   C591      1.0  0.31440  0.34040  0.92130  1.0000 -0.1797923235
C   C592      1.0  0.57680  0.74240  0.89340  1.0000 -0.2192972311
C   C593      1.0  0.93930  0.21080  0.59823  1.0000 -0.1403877101
C   C594      1.0  0.91090  0.19860  0.62413  1.0000 0.0410934745
C   C595      1.0  0.93870  0.18290  0.64963  1.0000 -0.1482395566
C   C596      1.0  0.99490  0.17940  0.64923  1.0000 -0.227581758
C   C597      1.0  0.02320  0.19160  0.62330  1.0000 0.2068359858
C   C598      1.0  0.99540  0.20730  0.59783  1.0000 -0.2192972311
C   C599      1.0  0.31530  0.19700  0.89290  1.0000 -0.2192972311
C   C600      1.0  0.10420  0.16820  0.64260  1.0000 -0.2102385798
C   C601      1.0  0.30170  0.24790  0.89660  1.0000 0.1712780889
C   C602      1.0  0.30350  0.10390  0.87260  1.0000 0.0610893138
C   C603      1.0  0.30500  0.07560  0.89940  1.0000 -0.1590248955
C   C604      1.0  0.31220  0.01980  0.89930  1.0000 -0.2192972311
C   C605      1.0  0.31810  0.99230  0.87240  1.0000 0.1996233317
C   C606      1.0  0.31660  0.02070  0.84570  1.0000 -0.2102385798
C   C607      1.0  0.30940  0.07650  0.84580  1.0000 -0.1590248955
C   C608      1.0  0.58040  0.85190  0.88860  1.0000 -0.2403671989
C   C609      1.0  0.56310  0.81630  0.33300  1.0000 -0.1403877101
C   C610      1.0  0.54800  0.84060  0.35970  1.0000 0.0410934745
C   C611      1.0  0.54200  0.80940  0.38520  1.0000 -0.1482395566
C   C612      1.0  0.55110  0.75390  0.38410  1.0000 -0.2102385798
C   C613      1.0  0.56620  0.72960  0.35740  1.0000 0.2204331732
C   C614      1.0  0.57220  0.76080  0.33190  1.0000 -0.2102385798
C   C615      1.0  0.33500  0.91340  0.84820  1.0000 -0.19958356
C   C616      1.0  0.62950  0.66760  0.34420  1.0000 -0.227581758
C   C617      1.0  0.40760  0.50800  0.29910  1.0000 -0.1797923235
C   C618      1.0  0.26020  0.73930  0.17260  1.0000 0.0696942381
C   C619      1.0  0.35560  0.81980  0.05100  1.0000 -0.0009147047
C   C620      1.0  0.43650  0.89630  0.93730  1.0000 0.0410934745
C   C621      1.0  0.42610  0.52720  0.32640  1.0000 0.0912352684
C   C622      1.0  0.23420  0.79610  0.09990  1.0000 0.1996233317
C   C623      1.0  0.32450  0.80460  0.07430  1.0000 -0.1797923235
C   C624      1.0  0.17440  0.77310  0.14910  1.0000 -0.2618624897
C   C625      1.0  0.39030  0.54250  0.27870  1.0000 0.0410934745
C   C626      1.0  0.23070  0.76350  0.14810  1.0000 0.1904770226
C   C627      1.0  0.27000  0.81120  0.07390  1.0000 0.0912352684
C   C628      1.0  0.17870  0.80620  0.09900  1.0000 -0.2502347673
C   C629      1.0  0.41010  0.61620  0.30780  1.0000 0.0206785918
C   C630      1.0  0.45100  0.92710  0.91130  1.0000 -0.2102385798
C   C631      1.0  0.28100  0.84370  0.02500  1.0000 0.0610893138
C   C632      1.0  0.31660  0.74240  0.17420  1.0000 -0.19958356
C   C633      1.0  0.44940  0.98340  0.91320  1.0000 0.0912352684
C   C634      1.0  0.26370  0.68700  0.21780  1.0000 0.0410934745
C   C635      1.0  0.55580  0.00980  0.79320  1.0000 -0.19958356
C   C636      1.0  0.34430  0.71920  0.19840  1.0000 0.0696942381
C   C637      1.0  0.23390  0.71140  0.19550  1.0000 -0.19958356
C   C638      1.0  0.46460  0.01700  0.88680  1.0000 0.1996233317
C   C639      1.0  0.66280  0.73830  0.44800  1.0000 -0.2102385798
C   C640      1.0  0.14850  0.79550  0.12430  1.0000 0.1102660637
C   C641      1.0  0.43050  0.00560  0.93920  1.0000 -0.2102385798
C   C642      1.0  0.24720  0.82850  0.04770  1.0000 -0.2192972311
C   C643      1.0  0.43020  0.58390  0.32940  1.0000 -0.1797923235
C   C644      1.0  0.43230  0.23160  0.36800  1.0000 0.1996233317
C   C645      1.0  0.41310  0.97300  0.96310  1.0000 0.0610893138
C   C646      1.0  0.44730  0.25990  0.34290  1.0000 -0.2192972311
C   C647      1.0  0.43720  0.43580  0.35110  1.0000 -0.2791914468
C   C648      1.0  0.45180  0.40320  0.37390  1.0000 0.1195035642
C   C649      1.0  0.66190  0.63030  0.44300  1.0000 0.0206785918
C   C650      1.0  0.46570  0.10130  0.86050  1.0000 0.1195035642
C   C651      1.0  0.45120  0.07230  0.88550  1.0000 -0.2502347673
C   C652      1.0  0.78290  0.66667  0.33160  1.0000 -0.227581758
C   C653      1.0  0.63990  0.70540  0.47070  1.0000 0.0610893138
C   C654      1.0  0.44440  0.49100  0.35160  1.0000 0.22868476
C   C655      1.0  0.48040  0.48260  0.39830  1.0000 0.1712780889
C   C656      1.0  0.52860  0.98710  0.81700  1.0000 0.0832176284
C   C657      1.0  0.50580  0.56800  0.42670  1.0000 -0.2192972311
C   C658      1.0  0.81160  0.64170  0.30920  1.0000 0.0696942381
C   C659      1.0  0.49070  0.07260  0.83680  1.0000 -0.2618624897
C   C660      1.0  0.44420  0.34110  0.37120  1.0000 0.0490065931
C   C661      1.0  0.73710  0.81000  0.35080  1.0000 -0.2502347673
C   C662      1.0  0.53030  0.92910  0.81830  1.0000 -0.2102385798
C   C663      1.0  0.55810  0.89920  0.79680  1.0000 0.0832176284
C   C664      1.0  0.74250  0.75500  0.35310  1.0000 0.1996233317
C   C665      1.0  0.83280  0.72000  0.28730  1.0000 0.0206785918
C   C666      1.0  0.53340  0.59280  0.44670  1.0000 0.0490065931
C   C667      1.0  0.47540  0.42710  0.39750  1.0000 -0.227581758
C   C668      1.0  0.80330  0.75000  0.30790  1.0000 -0.1797923235
C   C669      1.0  0.54060  0.48790  0.44280  1.0000 -0.1942224478
C   C670      1.0  0.50050  0.01770  0.84060  1.0000 0.1996233317
C   C671      1.0  0.67910  0.71600  0.42220  1.0000 0.099853118
C   C672      1.0  0.51020  0.51190  0.42210  1.0000 0.0912352684
C   C673      1.0  0.43030  0.31340  0.39640  1.0000 -0.1482395566
C   C674      1.0  0.77580  0.72450  0.32830  1.0000 0.0912352684
C   C675      1.0  0.58410  0.97800  0.77250  1.0000 0.0206785918
C   C676      1.0  0.56460  0.51290  0.46640  1.0000 0.0206785918
C   C677      1.0  0.44960  0.31450  0.34510  1.0000 -0.1403877101
C   C678      1.0  0.70810  0.83410  0.37260  1.0000 0.1102660637
C   C679      1.0  0.68560  0.65960  0.42130  1.0000 -0.1797923235
C   C680      1.0  0.42320  0.25760  0.39340  1.0000 -0.2192972311
C   C681      1.0  0.06070  0.78920  0.09823  1.0000 -0.1403877101
C   C682      1.0  0.08910  0.80140  0.12413  1.0000 0.0410934745
C   C683      1.0  0.06130  0.81710  0.14963  1.0000 -0.1482395566
C   C684      1.0  0.00510  0.82060  0.14923  1.0000 -0.227581758
C   C685      1.0  0.97680  0.80840  0.12330  1.0000 0.2068359858
C   C686      1.0  0.00460  0.79270  0.09783  1.0000 -0.2192972311
C   C687      1.0  0.68470  0.80300  0.39290  1.0000 -0.2192972311
C   C688      1.0  0.89580  0.83180  0.14260  1.0000 -0.2102385798
C   C689      1.0  0.69830  0.75210  0.39660  1.0000 0.1712780889
C   C690      1.0  0.69650  0.89610  0.37260  1.0000 0.0610893138
C   C691      1.0  0.69500  0.92440  0.39940  1.0000 -0.1590248955
C   C692      1.0  0.68780  0.98020  0.39930  1.0000 -0.2192972311
C   C693      1.0  0.68190  0.00770  0.37240  1.0000 0.1996233317
C   C694      1.0  0.68340  0.97930  0.34570  1.0000 -0.2102385798
C   C695      1.0  0.69060  0.92350  0.34580  1.0000 -0.1590248955
C   C696      1.0  0.41960  0.14810  0.38860  1.0000 -0.2403671989
C   C697      1.0  0.43690  0.18370  0.83300  1.0000 -0.1403877101
C   C698      1.0  0.45200  0.15940  0.85970  1.0000 0.0410934745
C   C699      1.0  0.45800  0.19060  0.88520  1.0000 -0.1482395566
C   C700      1.0  0.44890  0.24610  0.88410  1.0000 -0.2102385798
C   C701      1.0  0.43380  0.27040  0.85740  1.0000 0.2204331732
C   C702      1.0  0.42780  0.23920  0.83190  1.0000 -0.2102385798
C   C703      1.0  0.66500  0.08660  0.34820  1.0000 -0.19958356
C   C704      1.0  0.37050  0.33240  0.84420  1.0000 -0.227581758
N   N1        1.0  0.40320  0.61080  0.21864  1.0000 -0.2403671989
N   N2        1.0  0.31060  0.68180  0.28154  1.0000 -0.2102385798
N   N3        1.0  0.22440  0.74060  0.37634  1.0000 -0.3408056635
N   N4        1.0  0.08010  0.58490  0.53850  1.0000 -0.2102385798
N   N5        1.0  0.48690  0.53470  0.12620  1.0000 -0.3074473975
N   N6        1.0  0.15860  0.66650  0.47440  1.0000 -0.2102385798
N   N7        1.0  0.33340  0.16350  0.21150  1.0000 -0.19958356
N   N8        1.0  0.00930  0.51150  0.63500  1.0000 -0.3310210295
N   N9        1.0  0.34850  0.35980  0.03170  1.0000 -0.2192972311
N   N10       1.0  0.07700  0.41670  0.72527  1.0000 -0.2102385798
N   N11       1.0  0.27410  0.27480  0.12480  1.0000 -0.3310210295
N   N12       1.0  0.43190  0.43930  0.03210  1.0000 -0.227581758
N   N13       1.0  0.59680  0.38920  0.71864  1.0000 -0.2403671989
N   N14       1.0  0.68940  0.31820  0.78154  1.0000 -0.2102385798
N   N15       1.0  0.77560  0.25940  0.87634  1.0000 -0.3408056635
N   N16       1.0  0.91990  0.41510  0.03850  1.0000 -0.2102385798
N   N17       1.0  0.51310  0.46530  0.62620  1.0000 -0.3074473975
N   N18       1.0  0.84140  0.33350  0.97440  1.0000 -0.2102385798
N   N19       1.0  0.66667  0.83650  0.71150  1.0000 -0.19958356
N   N20       1.0  0.99070  0.48850  0.13500  1.0000 -0.3310210295
N   N21       1.0  0.65150  0.64020  0.53170  1.0000 -0.2192972311
N   N22       1.0  0.92300  0.58330  0.22527  1.0000 -0.2102385798
N   N23       1.0  0.72590  0.72520  0.62480  1.0000 -0.3310210295
N   N24       1.0  0.56810  0.56070  0.53210  1.0000 -0.227581758
N   N25       1.0  0.88920  0.90320  0.96864  1.0000 -0.2403671989
N   N26       1.0  0.81820  0.81060  0.03154  1.0000 -0.2102385798
N   N27       1.0  0.75940  0.72440  0.12634  1.0000 -0.3408056635
N   N28       1.0  0.91510  0.58010  0.28850  1.0000 -0.2102385798
N   N29       1.0  0.96530  0.98690  0.87620  1.0000 -0.3074473975
N   N30       1.0  0.83350  0.65860  0.22440  1.0000 -0.2102385798
N   N31       1.0  0.33650  0.83340  0.96150  1.0000 -0.19958356
N   N32       1.0  0.98850  0.50930  0.38500  1.0000 -0.3408056635
N   N33       1.0  0.14020  0.84850  0.78170  1.0000 -0.2192972311
N   N34       1.0  0.08330  0.57700  0.47527  1.0000 -0.2102385798
N   N35       1.0  0.22520  0.77410  0.87480  1.0000 -0.3310210295
N   N36       1.0  0.06070  0.93190  0.78210  1.0000 -0.227581758
N   N37       1.0  0.11080  0.09680  0.46864  1.0000 -0.2403671989
N   N38       1.0  0.18180  0.18940  0.53154  1.0000 -0.2102385798
N   N39       1.0  0.24060  0.27560  0.62634  1.0000 -0.3408056635
N   N40       1.0  0.08490  0.41990  0.78850  1.0000 -0.2102385798
N   N41       1.0  0.03470  0.01310  0.37620  1.0000 -0.3074473975
N   N42       1.0  0.16650  0.34140  0.72440  1.0000 -0.2102385798
N   N43       1.0  0.66350  0.16660  0.46150  1.0000 -0.19958356
N   N44       1.0  0.01150  0.49070  0.88500  1.0000 -0.3408056635
N   N45       1.0  0.85980  0.15150  0.28170  1.0000 -0.2192972311
N   N46       1.0  0.91670  0.42300  0.97527  1.0000 -0.2102385798
N   N47       1.0  0.77480  0.22590  0.37480  1.0000 -0.3310210295
N   N48       1.0  0.93930  0.06810  0.28210  1.0000 -0.227581758
N   N49       1.0  0.09680  0.11080  0.53136  1.0000 -0.2403671989
N   N50       1.0  0.18940  0.18180  0.46846  1.0000 -0.2102385798
N   N51       1.0  0.27560  0.24060  0.37366  1.0000 -0.3408056635
N   N52       1.0  0.41990  0.08490  0.21150  1.0000 -0.2102385798
N   N53       1.0  0.01310  0.03470  0.62380  1.0000 -0.3074473975
N   N54       1.0  0.34140  0.16650  0.27560  1.0000 -0.2102385798
N   N55       1.0  0.16660  0.66350  0.53850  1.0000 -0.19958356
N   N56       1.0  0.49070  0.01150  0.11500  1.0000 -0.3310210295
N   N57       1.0  0.15150  0.85980  0.71830  1.0000 -0.2192972311
N   N58       1.0  0.42300  0.91670  0.02473  1.0000 -0.2102385798
N   N59       1.0  0.22590  0.77480  0.62520  1.0000 -0.3310210295
N   N60       1.0  0.06810  0.93930  0.71790  1.0000 -0.227581758
N   N61       1.0  0.90320  0.88920  0.03136  1.0000 -0.2502347673
N   N62       1.0  0.81060  0.81820  0.96846  1.0000 -0.2102385798
N   N63       1.0  0.72440  0.75940  0.87366  1.0000 -0.3408056635
N   N64       1.0  0.58010  0.91510  0.71150  1.0000 -0.2102385798
N   N65       1.0  0.98690  0.96530  0.12380  1.0000 -0.3074473975
N   N66       1.0  0.65860  0.83350  0.77560  1.0000 -0.2102385798
N   N67       1.0  0.83340  0.33650  0.03850  1.0000 -0.19958356
N   N68       1.0  0.50930  0.98850  0.61500  1.0000 -0.3310210295
N   N69       1.0  0.84850  0.14020  0.21830  1.0000 -0.2192972311
N   N70       1.0  0.57700  0.08330  0.52473  1.0000 -0.2102385798
N   N71       1.0  0.77410  0.22520  0.12520  1.0000 -0.3310210295
N   N72       1.0  0.93190  0.06070  0.21790  1.0000 -0.227581758
N   N73       1.0  0.61080  0.40320  0.78136  1.0000 -0.2403671989
N   N74       1.0  0.68180  0.31060  0.71846  1.0000 -0.2102385798
N   N75       1.0  0.74060  0.22440  0.62366  1.0000 -0.3408056635
N   N76       1.0  0.58490  0.08010  0.46150  1.0000 -0.2102385798
N   N77       1.0  0.53470  0.48690  0.87380  1.0000 -0.3074473975
N   N78       1.0  0.66650  0.15860  0.52560  1.0000 -0.2102385798
N   N79       1.0  0.16350  0.33340  0.78850  1.0000 -0.19958356
N   N80       1.0  0.51150  0.00930  0.36500  1.0000 -0.3408056635
N   N81       1.0  0.35980  0.34850  0.96830  1.0000 -0.2192972311
N   N82       1.0  0.41670  0.07700  0.27473  1.0000 -0.2102385798
N   N83       1.0  0.27480  0.27410  0.87520  1.0000 -0.3310210295
N   N84       1.0  0.43930  0.43190  0.96790  1.0000 -0.227581758
N   N85       1.0  0.38920  0.59680  0.28136  1.0000 -0.2502347673
N   N86       1.0  0.31820  0.68940  0.21846  1.0000 -0.2102385798
N   N87       1.0  0.25940  0.77560  0.12366  1.0000 -0.3408056635
N   N88       1.0  0.41510  0.91990  0.96150  1.0000 -0.2102385798
N   N89       1.0  0.46530  0.51310  0.37380  1.0000 -0.3074473975
N   N90       1.0  0.33350  0.84140  0.02560  1.0000 -0.2102385798
N   N91       1.0  0.83650  0.66667  0.28850  1.0000 -0.19958356
N   N92       1.0  0.48850  0.99070  0.86500  1.0000 -0.3408056635
N   N93       1.0  0.64020  0.65150  0.46830  1.0000 -0.2192972311
N   N94       1.0  0.58330  0.92300  0.77473  1.0000 -0.2102385798
N   N95       1.0  0.72520  0.72590  0.37520  1.0000 -0.3310210295
N   N96       1.0  0.56070  0.56810  0.46790  1.0000 -0.227581758
O   O1        1.0  0.82340  0.57070  0.13770  1.0000 -0.1668401522
O   O2        1.0  0.18940  0.07810  0.38050  1.0000 -0.1403877101
O   O3        1.0  0.93690  0.32020  0.12670  1.0000 -0.1403877101
O   O4        1.0  0.67670  0.58190  0.64190  1.0000 -0.1403877101
O   O5        1.0  0.17660  0.42930  0.63770  1.0000 -0.1668401522
O   O6        1.0  0.81060  0.92190  0.88050  1.0000 -0.1403877101
O   O7        1.0  0.06310  0.67980  0.62670  1.0000 -0.1403877101
O   O8        1.0  0.32330  0.41810  0.14190  1.0000 -0.1403877101
O   O9        1.0  0.92930  0.32340  0.88770  1.0000 -0.1590248955
O   O10       1.0  0.42190  0.68940  0.13050  1.0000 -0.1403877101
O   O11       1.0  0.17980  0.43690  0.87670  1.0000 -0.1403877101
O   O12       1.0  0.91810  0.17670  0.39190  1.0000 -0.1403877101
O   O13       1.0  0.07070  0.67660  0.38770  1.0000 -0.1668401522
O   O14       1.0  0.57810  0.31060  0.63050  1.0000 -0.1403877101
O   O15       1.0  0.82020  0.56310  0.37670  1.0000 -0.1403877101
O   O16       1.0  0.08190  0.82330  0.89190  1.0000 -0.1403877101
O   O17       1.0  0.67660  0.07070  0.61230  1.0000 -0.1668401522
O   O18       1.0  0.31060  0.57810  0.36950  1.0000 -0.1403877101
O   O19       1.0  0.56310  0.82020  0.62330  1.0000 -0.1403877101
O   O20       1.0  0.82330  0.08190  0.10810  1.0000 -0.1403877101
O   O21       1.0  0.32340  0.92930  0.11230  1.0000 -0.1668401522
O   O22       1.0  0.68940  0.42190  0.86950  1.0000 -0.1403877101
O   O23       1.0  0.43690  0.17980  0.12330  1.0000 -0.1403877101
O   O24       1.0  0.17670  0.91810  0.60810  1.0000 -0.1403877101
O   O25       1.0  0.57070  0.82340  0.86230  1.0000 -0.1668401522
O   O26       1.0  0.07810  0.18940  0.61950  1.0000 -0.1403877101
O   O27       1.0  0.32020  0.93690  0.87330  1.0000 -0.1403877101
O   O28       1.0  0.58190  0.67670  0.35810  1.0000 -0.1403877101
O   O29       1.0  0.42930  0.17660  0.36230  1.0000 -0.1590248955
O   O30       1.0  0.92190  0.81060  0.11950  1.0000 -0.1403877101
O   O31       1.0  0.67980  0.06310  0.37330  1.0000 -0.1403877101
O   O32       1.0  0.41810  0.32330  0.85810  1.0000 -0.1403877101
