# DDEC6 charges by PACMAN v1.1 (https://github.com/mtap-research/PACMAN-charge/)
data_2020[Eu][htp]3[ASR]1
_chemical_formula_sum              "Eu4 H40 C56 N4 O28"
_cell_length_a       9.3873
_cell_length_b       12.7231
_cell_length_c       14.5216
_cell_angle_alpha    90
_cell_angle_beta     90
_cell_angle_gamma    90

_symmetry_space_group_name_H-M    "P 1"
_symmetry_Int_Tables_number       1

loop_
  _symmetry_equiv_pos_as_xyz
  'x, y, z'

loop_
  _atom_site_type_symbol
  _atom_site_label
  _atom_site_symmetry_multiplicity
  _atom_site_fract_x
  _atom_site_fract_y
  _atom_site_fract_z
  _atom_site_occupancy
  _atom_site_charge
Eu  Eu1       1.0  0.49085  0.27742  0.54713  1.0000 2.1570468676
Eu  Eu2       1.0  0.00915  0.72258  0.04713  1.0000 2.1570468676
Eu  Eu3       1.0  0.50915  0.77742  0.95287  1.0000 2.1570468676
Eu  Eu4       1.0  0.99085  0.22258  0.45287  1.0000 2.1570468676
H   H1        1.0  0.80221  0.47368  0.22814  1.0000 0.1393218227
H   H2        1.0  0.42253  0.55263  0.11941  1.0000 0.1393218227
H   H3        1.0  0.44653  0.32172  0.30545  1.0000 0.1285914848
H   H4        1.0  0.21143  0.43765  0.15121  1.0000 0.1285914848
H   H5        1.0  0.21984  0.35824  0.23395  1.0000 0.1285914848
H   H6        1.0  0.33341  0.55246  0.37040  1.0000 0.1102136132
H   H7        1.0  0.04631  0.56032  0.43162  1.0000 0.1102136132
H   H8        1.0  0.16973  0.64012  0.45613  1.0000 0.1102136132
H   H9        1.0  0.99147  0.68223  0.32501  1.0000 0.1393218227
H   H10       1.0  0.14895  0.72551  0.32121  1.0000 0.1393218227
H   H11       1.0  0.69779  0.52632  0.72814  1.0000 0.1393218227
H   H12       1.0  0.07747  0.44737  0.61941  1.0000 0.1393218227
H   H13       1.0  0.05347  0.67828  0.80545  1.0000 0.1285914848
H   H14       1.0  0.28857  0.56235  0.65121  1.0000 0.1285914848
H   H15       1.0  0.28016  0.64176  0.73395  1.0000 0.1285914848
H   H16       1.0  0.16659  0.44754  0.87040  1.0000 0.1102136132
H   H17       1.0  0.45369  0.43968  0.93162  1.0000 0.1102136132
H   H18       1.0  0.33027  0.35988  0.95613  1.0000 0.1047707033
H   H19       1.0  0.50853  0.31777  0.82501  1.0000 0.1393218227
H   H20       1.0  0.35105  0.27449  0.82121  1.0000 0.1393218227
H   H21       1.0  0.19779  0.97368  0.27186  1.0000 0.1393218227
H   H22       1.0  0.57747  0.05263  0.38059  1.0000 0.1393218227
H   H23       1.0  0.55347  0.82172  0.19455  1.0000 0.1285914848
H   H24       1.0  0.78857  0.93765  0.34879  1.0000 0.1285914848
H   H25       1.0  0.78016  0.85824  0.26605  1.0000 0.1285914848
H   H26       1.0  0.66659  0.05246  0.12960  1.0000 0.1102136132
H   H27       1.0  0.95369  0.06032  0.06838  1.0000 0.1102136132
H   H28       1.0  0.83027  0.14012  0.04387  1.0000 0.1102136132
H   H29       1.0  0.00853  0.18223  0.17499  1.0000 0.1393218227
H   H30       1.0  0.85105  0.22551  0.17879  1.0000 0.1393218227
H   H31       1.0  0.30221  0.02632  0.77186  1.0000 0.1393218227
H   H32       1.0  0.92253  0.94737  0.88059  1.0000 0.1393218227
H   H33       1.0  0.94653  0.17828  0.69455  1.0000 0.1285914848
H   H34       1.0  0.71143  0.06235  0.84879  1.0000 0.1285914848
H   H35       1.0  0.71984  0.14176  0.76605  1.0000 0.1285914848
H   H36       1.0  0.83341  0.94754  0.62960  1.0000 0.1102136132
H   H37       1.0  0.54631  0.93968  0.56838  1.0000 0.1102136132
H   H38       1.0  0.66973  0.85988  0.54387  1.0000 0.1102136132
H   H39       1.0  0.49147  0.81777  0.67499  1.0000 0.1393218227
H   H40       1.0  0.64895  0.77449  0.67879  1.0000 0.1393218227
C   C1        1.0  0.71580  0.33190  0.35480  1.0000 0.6243097317
C   C2        1.0  0.63780  0.39000  0.28040  1.0000 -0.0190687198
C   C3        1.0  0.70410  0.46410  0.22460  1.0000 -0.1183834467
C   C4        1.0  0.62350  0.52410  0.16340  1.0000 -0.0190687198
C   C5        1.0  0.69140  0.60850  0.10480  1.0000 0.6501568686
C   C6        1.0  0.47650  0.51040  0.15840  1.0000 -0.1512593049
C   C7        1.0  0.41070  0.43440  0.21110  1.0000 0.0894040224
C   C8        1.0  0.49090  0.37390  0.27090  1.0000 -0.1622952539
C   C9        1.0  0.24880  0.42730  0.21280  1.0000 -0.1436777021
C   C10       1.0  0.23880  0.52000  0.36930  1.0000 -0.0695136878
C   C11       1.0  0.24280  0.41640  0.42100  1.0000 0.6501568686
C   C12       1.0  0.12910  0.59690  0.40770  1.0000 -0.1733557712
C   C13       1.0  0.09120  0.66240  0.32390  1.0000 -0.3269833195
C   C14       1.0  0.12160  0.59310  0.24520  1.0000 0.5022880416
C   C15       1.0  0.78420  0.66810  0.85480  1.0000 0.6243097317
C   C16       1.0  0.86220  0.61000  0.78040  1.0000 -0.0190687198
C   C17       1.0  0.79590  0.53590  0.72460  1.0000 -0.1183834467
C   C18       1.0  0.87650  0.47590  0.66340  1.0000 -0.0190687198
C   C19       1.0  0.80860  0.39150  0.60480  1.0000 0.6501568686
C   C20       1.0  0.02350  0.48960  0.65840  1.0000 -0.1512593049
C   C21       1.0  0.08930  0.56560  0.71110  1.0000 0.0894040224
C   C22       1.0  0.00910  0.62610  0.77090  1.0000 -0.1622952539
C   C23       1.0  0.25120  0.57270  0.71280  1.0000 -0.1436777021
C   C24       1.0  0.26120  0.48000  0.86930  1.0000 -0.0695136878
C   C25       1.0  0.25720  0.58360  0.92100  1.0000 0.6501568686
C   C26       1.0  0.37090  0.40310  0.90770  1.0000 -0.1733557712
C   C27       1.0  0.40880  0.33760  0.82390  1.0000 -0.3269833195
C   C28       1.0  0.37840  0.40690  0.74520  1.0000 0.5022880416
C   C29       1.0  0.28420  0.83190  0.14520  1.0000 0.6243097317
C   C30       1.0  0.36220  0.89000  0.21960  1.0000 -0.0190687198
C   C31       1.0  0.29590  0.96410  0.27540  1.0000 -0.1183834467
C   C32       1.0  0.37650  0.02410  0.33660  1.0000 -0.0190687198
C   C33       1.0  0.30860  0.10850  0.39520  1.0000 0.6501568686
C   C34       1.0  0.52350  0.01040  0.34160  1.0000 -0.1512593049
C   C35       1.0  0.58930  0.93440  0.28890  1.0000 0.0894040224
C   C36       1.0  0.50910  0.87390  0.22910  1.0000 -0.1622952539
C   C37       1.0  0.75120  0.92730  0.28720  1.0000 -0.1436777021
C   C38       1.0  0.76120  0.02000  0.13070  1.0000 -0.0695136878
C   C39       1.0  0.75720  0.91640  0.07900  1.0000 0.6501568686
C   C40       1.0  0.87090  0.09690  0.09230  1.0000 -0.1733557712
C   C41       1.0  0.90880  0.16240  0.17610  1.0000 -0.3269833195
C   C42       1.0  0.87840  0.09310  0.25480  1.0000 0.5022880416
C   C43       1.0  0.21580  0.16810  0.64520  1.0000 0.6243097317
C   C44       1.0  0.13780  0.11000  0.71960  1.0000 -0.0190687198
C   C45       1.0  0.20410  0.03590  0.77540  1.0000 -0.1183834467
C   C46       1.0  0.12350  0.97590  0.83660  1.0000 -0.0190687198
C   C47       1.0  0.19140  0.89150  0.89520  1.0000 0.6501568686
C   C48       1.0  0.97650  0.98960  0.84160  1.0000 -0.1512593049
C   C49       1.0  0.91070  0.06560  0.78890  1.0000 0.0894040224
C   C50       1.0  0.99090  0.12610  0.72910  1.0000 -0.1622952539
C   C51       1.0  0.74880  0.07270  0.78720  1.0000 -0.1436777021
C   C52       1.0  0.73880  0.98000  0.63070  1.0000 -0.0695136878
C   C53       1.0  0.74280  0.08360  0.57900  1.0000 0.6501568686
C   C54       1.0  0.62910  0.90310  0.59230  1.0000 -0.1733557712
C   C55       1.0  0.59120  0.83760  0.67610  1.0000 -0.3269833195
C   C56       1.0  0.62160  0.90690  0.75480  1.0000 0.5022880416
N   N1        1.0  0.19200  0.50740  0.27430  1.0000 -0.105883263
N   N2        1.0  0.30800  0.49260  0.77430  1.0000 -0.105883263
N   N3        1.0  0.80800  0.00740  0.22570  1.0000 -0.105883263
N   N4        1.0  0.69200  0.99260  0.72570  1.0000 -0.105883263
O   O1        1.0  0.64320  0.29150  0.41770  1.0000 -0.6955618131
O   O2        1.0  0.84900  0.32730  0.34970  1.0000 -0.6606920231
O   O3        1.0  0.82420  0.61730  0.10660  1.0000 -0.6681037414
O   O4        1.0  0.61040  0.66260  0.05650  1.0000 -0.6888721529
O   O5        1.0  0.34930  0.40310  0.47300  1.0000 -0.6888721529
O   O6        1.0  0.14440  0.35480  0.41040  1.0000 -0.6464996803
O   O7        1.0  0.09150  0.60820  0.16370  1.0000 -0.6076135058
O   O8        1.0  0.85680  0.70850  0.91770  1.0000 -0.6955618131
O   O9        1.0  0.65100  0.67270  0.84970  1.0000 -0.6606920231
O   O10       1.0  0.67580  0.38270  0.60660  1.0000 -0.6681037414
O   O11       1.0  0.88960  0.33740  0.55650  1.0000 -0.6888721529
O   O12       1.0  0.15070  0.59690  0.97300  1.0000 -0.6888721529
O   O13       1.0  0.35560  0.64520  0.91040  1.0000 -0.6464996803
O   O14       1.0  0.40850  0.39180  0.66370  1.0000 -0.6076135058
O   O15       1.0  0.35680  0.79150  0.08230  1.0000 -0.6955618131
O   O16       1.0  0.15100  0.82730  0.15030  1.0000 -0.6606920231
O   O17       1.0  0.17580  0.11730  0.39340  1.0000 -0.6681037414
O   O18       1.0  0.38960  0.16260  0.44350  1.0000 -0.6888721529
O   O19       1.0  0.65070  0.90310  0.02700  1.0000 -0.6888721529
O   O20       1.0  0.85560  0.85480  0.08960  1.0000 -0.6464996803
O   O21       1.0  0.90850  0.10820  0.33630  1.0000 -0.6076135058
O   O22       1.0  0.14320  0.20850  0.58230  1.0000 -0.6955618131
O   O23       1.0  0.34900  0.17270  0.65030  1.0000 -0.6606920231
O   O24       1.0  0.32420  0.88270  0.89340  1.0000 -0.6681037414
O   O25       1.0  0.11040  0.83740  0.94350  1.0000 -0.6888721529
O   O26       1.0  0.84930  0.09690  0.52700  1.0000 -0.6888721529
O   O27       1.0  0.64440  0.14520  0.58960  1.0000 -0.6464996803
O   O28       1.0  0.59150  0.89180  0.83630  1.0000 -0.6076135058
