# DDEC6 charges by PACMAN v1.1 (https://github.com/mtap-research/PACMAN-charge/)
data_2020[Zn][dia]3[ASR]11
_chemical_formula_sum              "Zn4 H64 C64 S4 N16 O16"
_cell_length_a       9.161
_cell_length_b       16.002
_cell_length_c       16.251
_cell_angle_alpha    90
_cell_angle_beta     90
_cell_angle_gamma    90

_symmetry_space_group_name_H-M    "P 1"
_symmetry_Int_Tables_number       1

loop_
  _symmetry_equiv_pos_as_xyz
  'x, y, z'

loop_
  _atom_site_type_symbol
  _atom_site_label
  _atom_site_symmetry_multiplicity
  _atom_site_fract_x
  _atom_site_fract_y
  _atom_site_fract_z
  _atom_site_occupancy
  _atom_site_charge
Zn  Zn1       1.0  0.48568  0.25000  0.58685  1.0000 0.7833286662
Zn  Zn2       1.0  0.98568  0.75000  0.91315  1.0000 0.7833286662
Zn  Zn3       1.0  0.51432  0.75000  0.41315  1.0000 0.7833286662
Zn  Zn4       1.0  0.01432  0.25000  0.08685  1.0000 0.7833286662
H   H1        1.0  0.70780  0.39730  0.63400  1.0000 0.1233870202
H   H2        1.0  0.50800  0.35940  0.42390  1.0000 0.1305490301
H   H3        1.0  0.65970  0.48430  0.40930  1.0000 0.1305490301
H   H4        1.0  0.79710  0.58100  0.51550  1.0000 0.1114102698
H   H5        1.0  0.79870  0.55070  0.60720  1.0000 0.1114102698
H   H6        1.0  0.99270  0.46130  0.57670  1.0000 0.1114102698
H   H7        1.0  0.03380  0.55510  0.56360  1.0000 0.1114102698
H   H8        1.0  0.20780  0.60270  0.86600  1.0000 0.1233870202
H   H9        1.0  0.00800  0.64060  0.07610  1.0000 0.1305490301
H   H10       1.0  0.15970  0.51570  0.09070  1.0000 0.1305490301
H   H11       1.0  0.29710  0.41900  0.98450  1.0000 0.1114102698
H   H12       1.0  0.29870  0.44930  0.89280  1.0000 0.1114102698
H   H13       1.0  0.49270  0.53870  0.92330  1.0000 0.1114102698
H   H14       1.0  0.53380  0.44490  0.93640  1.0000 0.1114102698
H   H15       1.0  0.29220  0.89730  0.36600  1.0000 0.1233870202
H   H16       1.0  0.49200  0.85940  0.57610  1.0000 0.1305490301
H   H17       1.0  0.34030  0.98430  0.59070  1.0000 0.1305490301
H   H18       1.0  0.20290  0.08100  0.48450  1.0000 0.1114102698
H   H19       1.0  0.20130  0.05070  0.39280  1.0000 0.1114102698
H   H20       1.0  0.00730  0.96130  0.42330  1.0000 0.1114102698
H   H21       1.0  0.96620  0.05510  0.43640  1.0000 0.1114102698
H   H22       1.0  0.79220  0.10270  0.13400  1.0000 0.1233870202
H   H23       1.0  0.99200  0.14060  0.92390  1.0000 0.1305490301
H   H24       1.0  0.84030  0.01570  0.90930  1.0000 0.1305490301
H   H25       1.0  0.70290  0.91900  0.01550  1.0000 0.1114102698
H   H26       1.0  0.70130  0.94930  0.10720  1.0000 0.1114102698
H   H27       1.0  0.50730  0.03870  0.07670  1.0000 0.1114102698
H   H28       1.0  0.46620  0.94490  0.06360  1.0000 0.1114102698
H   H29       1.0  0.29220  0.60270  0.36600  1.0000 0.1233870202
H   H30       1.0  0.49200  0.64060  0.57610  1.0000 0.1305490301
H   H31       1.0  0.34030  0.51570  0.59070  1.0000 0.1305490301
H   H32       1.0  0.20290  0.41900  0.48450  1.0000 0.1114102698
H   H33       1.0  0.20130  0.44930  0.39280  1.0000 0.1114102698
H   H34       1.0  0.00730  0.53870  0.42330  1.0000 0.1114102698
H   H35       1.0  0.96620  0.44490  0.43640  1.0000 0.1114102698
H   H36       1.0  0.79220  0.39730  0.13400  1.0000 0.1233870202
H   H37       1.0  0.99200  0.35940  0.92390  1.0000 0.1305490301
H   H38       1.0  0.84030  0.48430  0.90930  1.0000 0.1305490301
H   H39       1.0  0.70290  0.58100  0.01550  1.0000 0.1114102698
H   H40       1.0  0.70130  0.55070  0.10720  1.0000 0.1114102698
H   H41       1.0  0.50730  0.46130  0.07670  1.0000 0.1114102698
H   H42       1.0  0.46620  0.55510  0.06360  1.0000 0.1114102698
H   H43       1.0  0.70780  0.10270  0.63400  1.0000 0.1233870202
H   H44       1.0  0.50800  0.14060  0.42390  1.0000 0.1305490301
H   H45       1.0  0.65970  0.01570  0.40930  1.0000 0.1305490301
H   H46       1.0  0.79710  0.91900  0.51550  1.0000 0.1114102698
H   H47       1.0  0.79870  0.94930  0.60720  1.0000 0.1114102698
H   H48       1.0  0.99270  0.03870  0.57670  1.0000 0.1114102698
H   H49       1.0  0.03380  0.94490  0.56360  1.0000 0.1114102698
H   H50       1.0  0.20780  0.89730  0.86600  1.0000 0.1233870202
H   H51       1.0  0.00800  0.85940  0.07610  1.0000 0.1305490301
H   H52       1.0  0.15970  0.98430  0.09070  1.0000 0.1305490301
H   H53       1.0  0.29710  0.08100  0.98450  1.0000 0.1114102698
H   H54       1.0  0.29870  0.05070  0.89280  1.0000 0.1114102698
H   H55       1.0  0.49270  0.96130  0.92330  1.0000 0.1114102698
H   H56       1.0  0.53380  0.05510  0.93640  1.0000 0.1114102698
H   H57       1.0  0.86900  0.25000  0.52780  1.0000 0.1305490301
H   H58       1.0  0.75710  0.25000  0.38850  1.0000 0.1233870202
H   H59       1.0  0.36900  0.75000  0.97220  1.0000 0.1305490301
H   H60       1.0  0.25710  0.75000  0.11150  1.0000 0.1233870202
H   H61       1.0  0.13100  0.75000  0.47220  1.0000 0.1305490301
H   H62       1.0  0.24290  0.75000  0.61150  1.0000 0.1233870202
H   H63       1.0  0.63100  0.25000  0.02780  1.0000 0.1305490301
H   H64       1.0  0.74290  0.25000  0.88850  1.0000 0.1233870202
C   C1        1.0  0.67530  0.40330  0.58010  1.0000 0.0917328361
C   C2        1.0  0.56640  0.38250  0.46490  1.0000 -0.0483272311
C   C3        1.0  0.64990  0.45180  0.45640  1.0000 -0.0944704127
C   C4        1.0  0.81700  0.53360  0.55090  1.0000 -0.1374192907
C   C5        1.0  0.97480  0.50970  0.54230  1.0000 -0.1876779061
C   C6        1.0  0.17530  0.59670  0.91990  1.0000 0.0917328361
C   C7        1.0  0.06640  0.61750  0.03510  1.0000 -0.0483272311
C   C8        1.0  0.14990  0.54820  0.04360  1.0000 -0.0944704127
C   C9        1.0  0.31700  0.46640  0.94910  1.0000 -0.1374192907
C   C10       1.0  0.47480  0.49030  0.95770  1.0000 -0.1876779061
C   C11       1.0  0.32470  0.90330  0.41990  1.0000 0.0917328361
C   C12       1.0  0.43360  0.88250  0.53510  1.0000 -0.0483272311
C   C13       1.0  0.35010  0.95180  0.54360  1.0000 -0.0944704127
C   C14       1.0  0.18300  0.03360  0.44910  1.0000 -0.1374192907
C   C15       1.0  0.02520  0.00970  0.45770  1.0000 -0.1876779061
C   C16       1.0  0.82470  0.09670  0.08010  1.0000 0.0917328361
C   C17       1.0  0.93360  0.11750  0.96490  1.0000 -0.0483272311
C   C18       1.0  0.85010  0.04820  0.95640  1.0000 -0.0944704127
C   C19       1.0  0.68300  0.96640  0.05090  1.0000 -0.1374192907
C   C20       1.0  0.52520  0.99030  0.04230  1.0000 -0.1876779061
C   C21       1.0  0.32470  0.59670  0.41990  1.0000 0.0917328361
C   C22       1.0  0.43360  0.61750  0.53510  1.0000 -0.0483272311
C   C23       1.0  0.35010  0.54820  0.54360  1.0000 -0.0944704127
C   C24       1.0  0.18300  0.46640  0.44910  1.0000 -0.1374192907
C   C25       1.0  0.02520  0.49030  0.45770  1.0000 -0.1876779061
C   C26       1.0  0.82470  0.40330  0.08010  1.0000 0.0917328361
C   C27       1.0  0.93360  0.38250  0.96490  1.0000 -0.0483272311
C   C28       1.0  0.85010  0.45180  0.95640  1.0000 -0.0944704127
C   C29       1.0  0.68300  0.53360  0.05090  1.0000 -0.1374192907
C   C30       1.0  0.52520  0.50970  0.04230  1.0000 -0.1876779061
C   C31       1.0  0.67530  0.09670  0.58010  1.0000 0.0917328361
C   C32       1.0  0.56640  0.11750  0.46490  1.0000 -0.0483272311
C   C33       1.0  0.64990  0.04820  0.45640  1.0000 -0.0944704127
C   C34       1.0  0.81700  0.96640  0.55090  1.0000 -0.1374192907
C   C35       1.0  0.97480  0.99030  0.54230  1.0000 -0.1876779061
C   C36       1.0  0.17530  0.90330  0.91990  1.0000 0.0917328361
C   C37       1.0  0.06640  0.88250  0.03510  1.0000 -0.0483272311
C   C38       1.0  0.14990  0.95180  0.04360  1.0000 -0.0944704127
C   C39       1.0  0.31700  0.03360  0.94910  1.0000 -0.1374192907
C   C40       1.0  0.47480  0.00970  0.95770  1.0000 -0.1876779061
C   C41       1.0  0.17720  0.25000  0.54380  1.0000 0.5470305819
C   C42       1.0  0.07000  0.25000  0.47570  1.0000 -0.132884321
C   C43       1.0  0.92230  0.25000  0.47910  1.0000 -0.1374192907
C   C44       1.0  0.85720  0.25000  0.39810  1.0000 -0.132884321
C   C45       1.0  0.95940  0.25000  0.33790  1.0000 -0.1242363631
C   C46       1.0  0.93510  0.25000  0.24940  1.0000 0.5606826979
C   C47       1.0  0.67720  0.75000  0.95620  1.0000 0.5470305819
C   C48       1.0  0.57000  0.75000  0.02430  1.0000 -0.132884321
C   C49       1.0  0.42230  0.75000  0.02090  1.0000 -0.1374192907
C   C50       1.0  0.35720  0.75000  0.10190  1.0000 -0.132884321
C   C51       1.0  0.45940  0.75000  0.16210  1.0000 -0.1242363631
C   C52       1.0  0.43510  0.75000  0.25060  1.0000 0.5606826979
C   C53       1.0  0.82280  0.75000  0.45620  1.0000 0.5470305819
C   C54       1.0  0.93000  0.75000  0.52430  1.0000 -0.132884321
C   C55       1.0  0.07770  0.75000  0.52090  1.0000 -0.1374192907
C   C56       1.0  0.14280  0.75000  0.60190  1.0000 -0.132884321
C   C57       1.0  0.04060  0.75000  0.66210  1.0000 -0.1242363631
C   C58       1.0  0.06490  0.75000  0.75060  1.0000 0.5606826979
C   C59       1.0  0.32280  0.25000  0.04380  1.0000 0.5470305819
C   C60       1.0  0.43000  0.25000  0.97570  1.0000 -0.132884321
C   C61       1.0  0.57770  0.25000  0.97910  1.0000 -0.1374192907
C   C62       1.0  0.64280  0.25000  0.89810  1.0000 -0.132884321
C   C63       1.0  0.54060  0.25000  0.83790  1.0000 -0.1242363631
C   C64       1.0  0.56490  0.25000  0.74940  1.0000 0.5606826979
S   S1        1.0  0.13358  0.25000  0.37622  1.0000 0.1355676491
S   S2        1.0  0.63358  0.75000  0.12378  1.0000 0.1305490301
S   S3        1.0  0.86642  0.75000  0.62378  1.0000 0.1305490301
S   S4        1.0  0.36642  0.25000  0.87622  1.0000 0.1355676491
N   N1        1.0  0.58110  0.35180  0.54300  1.0000 -0.2957064818
N   N2        1.0  0.71620  0.46440  0.52920  1.0000 0.0430697923
N   N3        1.0  0.08110  0.64820  0.95700  1.0000 -0.2957064818
N   N4        1.0  0.21620  0.53560  0.97080  1.0000 0.0430697923
N   N5        1.0  0.41890  0.85180  0.45700  1.0000 -0.2957064818
N   N6        1.0  0.28380  0.96440  0.47080  1.0000 0.0430697923
N   N7        1.0  0.91890  0.14820  0.04300  1.0000 -0.2957064818
N   N8        1.0  0.78380  0.03560  0.02920  1.0000 0.0430697923
N   N9        1.0  0.41890  0.64820  0.45700  1.0000 -0.2957064818
N   N10       1.0  0.28380  0.53560  0.47080  1.0000 0.0430697923
N   N11       1.0  0.91890  0.35180  0.04300  1.0000 -0.2957064818
N   N12       1.0  0.78380  0.46440  0.02920  1.0000 0.0430697923
N   N13       1.0  0.58110  0.14820  0.54300  1.0000 -0.2957064818
N   N14       1.0  0.71620  0.03560  0.52920  1.0000 0.0430697923
N   N15       1.0  0.08110  0.85180  0.95700  1.0000 -0.2957064818
N   N16       1.0  0.21620  0.96440  0.97080  1.0000 0.0430697923
O   O1        1.0  0.30810  0.25000  0.52090  1.0000 -0.5683858257
O   O2        1.0  0.13700  0.25000  0.61430  1.0000 -0.4844802182
O   O3        1.0  0.81250  0.25000  0.21910  1.0000 -0.5425044309
O   O4        1.0  0.05110  0.25000  0.20450  1.0000 -0.5563048881
O   O5        1.0  0.80810  0.75000  0.97910  1.0000 -0.5683858257
O   O6        1.0  0.63700  0.75000  0.88570  1.0000 -0.4866023621
O   O7        1.0  0.31250  0.75000  0.28090  1.0000 -0.5425044309
O   O8        1.0  0.55110  0.75000  0.29550  1.0000 -0.5563048881
O   O9        1.0  0.69190  0.75000  0.47910  1.0000 -0.5683858257
O   O10       1.0  0.86300  0.75000  0.38570  1.0000 -0.4866023621
O   O11       1.0  0.18750  0.75000  0.78090  1.0000 -0.5425044309
O   O12       1.0  0.94890  0.75000  0.79550  1.0000 -0.5563048881
O   O13       1.0  0.19190  0.25000  0.02090  1.0000 -0.5683858257
O   O14       1.0  0.36300  0.25000  0.11430  1.0000 -0.4866023621
O   O15       1.0  0.68750  0.25000  0.71910  1.0000 -0.5425044309
O   O16       1.0  0.44890  0.25000  0.70450  1.0000 -0.5563048881
