# DDEC6 charges by PACMAN v1.1 (https://github.com/mtap-research/PACMAN-charge/)
data_2020[Cu][nan]2[ASR]13
_chemical_formula_sum              "Cu8 H24 C64 S4 O32"
_cell_length_a       19.0738
_cell_length_b       19.0738
_cell_length_c       19.0738
_cell_angle_alpha    150.219
_cell_angle_beta     108.913
_cell_angle_gamma    78.9271

_symmetry_space_group_name_H-M    "P 1"
_symmetry_Int_Tables_number       1

loop_
  _symmetry_equiv_pos_as_xyz
  'x, y, z'

loop_
  _atom_site_type_symbol
  _atom_site_label
  _atom_site_symmetry_multiplicity
  _atom_site_fract_x
  _atom_site_fract_y
  _atom_site_fract_z
  _atom_site_occupancy
  _atom_site_charge
Cu  Cu1       1.0  0.03898  0.60504  0.56606  1.0000 0.8574329617
Cu  Cu2       1.0  0.46102  0.02708  0.56606  1.0000 0.8574329617
Cu  Cu3       1.0  0.53898  0.97292  0.43394  1.0000 0.8574329617
Cu  Cu4       1.0  0.96102  0.39496  0.43394  1.0000 0.8574329617
Cu  Cu5       1.0  0.10144  0.46327  0.06471  1.0000 0.9276571873
Cu  Cu6       1.0  0.39856  0.46327  0.36183  1.0000 0.9276571873
Cu  Cu7       1.0  0.89856  0.53673  0.93529  1.0000 0.9276571873
Cu  Cu8       1.0  0.60144  0.53673  0.63817  1.0000 0.9276571873
H   H1        1.0  0.82593  0.15950  0.01449  1.0000 0.1299164261
H   H2        1.0  0.84476  0.12525  0.77991  1.0000 0.1299164261
H   H3        1.0  0.99976  0.40653  0.18181  1.0000 0.1396531912
H   H4        1.0  0.67407  0.68856  0.33357  1.0000 0.1299164261
H   H5        1.0  0.65524  0.43515  0.28049  1.0000 0.1299164261
H   H6        1.0  0.50024  0.68205  0.40677  1.0000 0.1396531912
H   H7        1.0  0.64501  0.31144  0.98551  1.0000 0.1299164261
H   H8        1.0  0.84534  0.56485  0.22009  1.0000 0.1299164261
H   H9        1.0  0.72472  0.31795  0.81819  1.0000 0.1396531912
H   H10       1.0  0.85499  0.84050  0.66643  1.0000 0.1299164261
H   H11       1.0  0.65466  0.87475  0.71951  1.0000 0.1299164261
H   H12       1.0  0.77528  0.59347  0.59323  1.0000 0.1396531912
H   H13       1.0  0.17407  0.84050  0.98551  1.0000 0.1299164261
H   H14       1.0  0.15524  0.87475  0.22009  1.0000 0.1299164261
H   H15       1.0  0.00024  0.59347  0.81819  1.0000 0.1396531912
H   H16       1.0  0.32593  0.31144  0.66643  1.0000 0.1299164261
H   H17       1.0  0.34476  0.56485  0.71951  1.0000 0.1299164261
H   H18       1.0  0.49976  0.31795  0.59323  1.0000 0.1396531912
H   H19       1.0  0.35499  0.68856  0.01449  1.0000 0.1299164261
H   H20       1.0  0.15466  0.43515  0.77991  1.0000 0.1299164261
H   H21       1.0  0.27528  0.68205  0.18181  1.0000 0.1396531912
H   H22       1.0  0.14501  0.15950  0.33357  1.0000 0.1299164261
H   H23       1.0  0.34534  0.12525  0.28049  1.0000 0.1299164261
H   H24       1.0  0.22472  0.40653  0.40677  1.0000 0.1396531912
C   C1        1.0  0.91686  0.29298  0.11808  1.0000 -0.0060403577
C   C2        1.0  0.82435  0.12660  0.87955  1.0000 0.0711700658
C   C3        1.0  0.94613  0.36566  0.25787  1.0000 0.5759530592
C   C4        1.0  0.92906  0.27055  0.97791  1.0000 0.0078286066
C   C5        1.0  0.85179  0.18869  0.00570  1.0000 -0.1699401324
C   C6        1.0  0.86328  0.16770  0.86598  1.0000 -0.1491109689
C   C7        1.0  0.97335  0.31035  0.96060  1.0000 0.5732558968
C   C8        1.0  0.95533  0.33425  0.10408  1.0000 -0.1065705639
C   C9        1.0  0.58314  0.70122  0.37612  1.0000 -0.0060403577
C   C10       1.0  0.67565  0.55520  0.30225  1.0000 0.0711700658
C   C11       1.0  0.55387  0.81174  0.41953  1.0000 0.5759530592
C   C12       1.0  0.57094  0.54885  0.34149  1.0000 0.0078286066
C   C13       1.0  0.64821  0.65391  0.33690  1.0000 -0.1699401324
C   C14       1.0  0.63672  0.50270  0.30442  1.0000 -0.1491109689
C   C15       1.0  0.52665  0.48725  0.33700  1.0000 0.5732558968
C   C16       1.0  0.54467  0.64875  0.37892  1.0000 -0.1065705639
C   C17       1.0  0.67490  0.29878  0.88192  1.0000 -0.0060403577
C   C18       1.0  0.74705  0.44480  0.12045  1.0000 0.0711700658
C   C19       1.0  0.60779  0.18826  0.74213  1.0000 0.5759530592
C   C20       1.0  0.79264  0.45115  0.02209  1.0000 0.0078286066
C   C21       1.0  0.68299  0.34609  0.99430  1.0000 -0.1699401324
C   C22       1.0  0.80172  0.49730  0.13402  1.0000 -0.1491109689
C   C23       1.0  0.84975  0.51275  0.03940  1.0000 0.5732558968
C   C24       1.0  0.73017  0.35125  0.89592  1.0000 -0.1065705639
C   C25       1.0  0.82510  0.70702  0.62388  1.0000 -0.0060403577
C   C26       1.0  0.75295  0.87340  0.69775  1.0000 0.0711700658
C   C27       1.0  0.89221  0.63434  0.58047  1.0000 0.5759530592
C   C28       1.0  0.70736  0.72945  0.65851  1.0000 0.0078286066
C   C29       1.0  0.81701  0.81131  0.66310  1.0000 -0.1699401324
C   C30       1.0  0.69828  0.83230  0.69558  1.0000 -0.1491109689
C   C31       1.0  0.65025  0.68965  0.66300  1.0000 0.5732558968
C   C32       1.0  0.76983  0.66575  0.62108  1.0000 -0.1065705639
C   C33       1.0  0.08314  0.70702  0.88192  1.0000 -0.0060403577
C   C34       1.0  0.17565  0.87340  0.12045  1.0000 0.0711700658
C   C35       1.0  0.05387  0.63434  0.74213  1.0000 0.5759530592
C   C36       1.0  0.07094  0.72945  0.02209  1.0000 0.0078286066
C   C37       1.0  0.14821  0.81131  0.99430  1.0000 -0.1699401324
C   C38       1.0  0.13672  0.83230  0.13402  1.0000 -0.1491109689
C   C39       1.0  0.02665  0.68965  0.03940  1.0000 0.5732558968
C   C40       1.0  0.04467  0.66575  0.89592  1.0000 -0.1065705639
C   C41       1.0  0.41686  0.29878  0.62388  1.0000 -0.0060403577
C   C42       1.0  0.32435  0.44480  0.69775  1.0000 0.0711700658
C   C43       1.0  0.44613  0.18826  0.58047  1.0000 0.5759530592
C   C44       1.0  0.42906  0.45115  0.65851  1.0000 0.0078286066
C   C45       1.0  0.35179  0.34609  0.66310  1.0000 -0.1699401324
C   C46       1.0  0.36328  0.49730  0.69558  1.0000 -0.1491109689
C   C47       1.0  0.47335  0.51275  0.66300  1.0000 0.5732558968
C   C48       1.0  0.45533  0.35125  0.62108  1.0000 -0.1065705639
C   C49       1.0  0.32510  0.70122  0.11808  1.0000 -0.0060403577
C   C50       1.0  0.25295  0.55520  0.87955  1.0000 0.0711700658
C   C51       1.0  0.39221  0.81174  0.25787  1.0000 0.5759530592
C   C52       1.0  0.20736  0.54885  0.97791  1.0000 0.0078286066
C   C53       1.0  0.31701  0.65391  0.00570  1.0000 -0.1699401324
C   C54       1.0  0.19828  0.50270  0.86598  1.0000 -0.1491109689
C   C55       1.0  0.15025  0.48725  0.96060  1.0000 0.5732558968
C   C56       1.0  0.26983  0.64875  0.10408  1.0000 -0.1065705639
C   C57       1.0  0.17490  0.29298  0.37612  1.0000 -0.0060403577
C   C58       1.0  0.24705  0.12660  0.30225  1.0000 0.0711700658
C   C59       1.0  0.10779  0.36566  0.41953  1.0000 0.5759530592
C   C60       1.0  0.29264  0.27055  0.34149  1.0000 0.0078286066
C   C61       1.0  0.18299  0.18869  0.33690  1.0000 -0.1699401324
C   C62       1.0  0.30172  0.16770  0.30442  1.0000 -0.1491109689
C   C63       1.0  0.34975  0.31035  0.33700  1.0000 0.5732558968
C   C64       1.0  0.23017  0.33425  0.37892  1.0000 -0.1065705639
S   S1        1.0  0.73768  0.00000  0.73768  1.0000 -0.0371831611
S   S2        1.0  0.76232  0.50000  0.26232  1.0000 -0.0371831611
S   S3        1.0  0.26232  0.00000  0.26232  1.0000 -0.0371831611
S   S4        1.0  0.23768  0.50000  0.73768  1.0000 -0.0371831611
O   O1        1.0  0.99133  0.48379  0.36874  1.0000 -0.5260784847
O   O2        1.0  0.92463  0.30439  0.25424  1.0000 -0.5088490394
O   O3        1.0  0.94532  0.26005  0.85107  1.0000 -0.481337696
O   O4        1.0  0.03594  0.39643  0.06271  1.0000 -0.5537199226
O   O5        1.0  0.50867  0.87741  0.49246  1.0000 -0.5260784847
O   O6        1.0  0.57537  0.82961  0.37976  1.0000 -0.5088490394
O   O7        1.0  0.55468  0.40575  0.31473  1.0000 -0.481337696
O   O8        1.0  0.46406  0.52677  0.36049  1.0000 -0.5537199226
O   O9        1.0  0.61505  0.12259  0.63126  1.0000 -0.5260784847
O   O10       1.0  0.55015  0.17039  0.74576  1.0000 -0.5088490394
O   O11       1.0  0.90898  0.59425  0.14893  1.0000 -0.481337696
O   O12       1.0  0.83372  0.47323  0.93729  1.0000 -0.5537199226
O   O13       1.0  0.88495  0.51621  0.50754  1.0000 -0.5260784847
O   O14       1.0  0.94985  0.69561  0.62024  1.0000 -0.5088490394
O   O15       1.0  0.59102  0.73995  0.68527  1.0000 -0.481337696
O   O16       1.0  0.66628  0.60357  0.63951  1.0000 -0.5537199226
O   O17       1.0  0.00867  0.51621  0.63126  1.0000 -0.5260784847
O   O18       1.0  0.07537  0.69561  0.74576  1.0000 -0.5088490394
O   O19       1.0  0.05468  0.73995  0.14893  1.0000 -0.481337696
O   O20       1.0  0.96406  0.60357  0.93729  1.0000 -0.5537199226
O   O21       1.0  0.49133  0.12259  0.50754  1.0000 -0.5260784847
O   O22       1.0  0.42463  0.17039  0.62024  1.0000 -0.5088490394
O   O23       1.0  0.44532  0.59425  0.68527  1.0000 -0.481337696
O   O24       1.0  0.53594  0.47323  0.63951  1.0000 -0.5537199226
O   O25       1.0  0.38495  0.87741  0.36874  1.0000 -0.5260784847
O   O26       1.0  0.44985  0.82961  0.25424  1.0000 -0.5088490394
O   O27       1.0  0.09102  0.40575  0.85107  1.0000 -0.481337696
O   O28       1.0  0.16628  0.52677  0.06271  1.0000 -0.5537199226
O   O29       1.0  0.11505  0.48379  0.49246  1.0000 -0.5260784847
O   O30       1.0  0.05015  0.30439  0.37976  1.0000 -0.5088490394
O   O31       1.0  0.40898  0.26005  0.31473  1.0000 -0.481337696
O   O32       1.0  0.33372  0.39643  0.36049  1.0000 -0.5537199226
