# DDEC6 charges by PACMAN v1.1 (https://github.com/mtap-research/PACMAN-charge/)
data_2020[Co][sql]2[ASR]1
_chemical_formula_sum              "Co4 H88 C120 S4 N16 O24"
_cell_length_a       12.755
_cell_length_b       14.284
_cell_length_c       23.3661
_cell_angle_alpha    90
_cell_angle_beta     122.436
_cell_angle_gamma    90

_symmetry_space_group_name_H-M    "P 1"
_symmetry_Int_Tables_number       1

loop_
  _symmetry_equiv_pos_as_xyz
  'x, y, z'

loop_
  _atom_site_type_symbol
  _atom_site_label
  _atom_site_symmetry_multiplicity
  _atom_site_fract_x
  _atom_site_fract_y
  _atom_site_fract_z
  _atom_site_occupancy
  _atom_site_charge
Co  Co1       1.0  0.13294  0.61949  0.64126  1.0000 0.7796710308
Co  Co2       1.0  0.86706  0.11949  0.85874  1.0000 0.7796710308
Co  Co3       1.0  0.86706  0.38051  0.35874  1.0000 0.7796710308
Co  Co4       1.0  0.13294  0.88051  0.14126  1.0000 0.7796710308
H   H1        1.0  0.35450  0.80410  0.02350  1.0000 0.268612786
H   H2        1.0  0.41290  0.86610  0.57230  1.0000 0.1200274304
H   H3        1.0  0.62470  0.87450  0.32810  1.0000 0.268612786
H   H4        1.0  0.58250  0.96720  0.65070  1.0000 0.1325504433
H   H5        1.0  0.11880  0.10860  0.87080  1.0000 0.1017970617
H   H6        1.0  0.92520  0.91390  0.88600  1.0000 0.1106475338
H   H7        1.0  0.07500  0.80610  0.91200  1.0000 0.1492113366
H   H8        1.0  0.27410  0.00580  0.89620  1.0000 0.1492113366
H   H9        1.0  0.25860  0.76050  0.91140  1.0000 0.1200274304
H   H10       1.0  0.33740  0.83770  0.90330  1.0000 0.1200274304
H   H11       1.0  0.07420  0.82910  0.62590  1.0000 0.1106475338
H   H12       1.0  0.90610  0.62800  0.49550  1.0000 0.1106475338
H   H13       1.0  0.94590  0.93770  0.54760  1.0000 0.1492113366
H   H14       1.0  0.77470  0.73090  0.41460  1.0000 0.1492113366
H   H15       1.0  0.69340  0.93310  0.42920  1.0000 0.1200274304
H   H16       1.0  0.80480  0.97660  0.42790  1.0000 0.1200274304
H   H17       1.0  0.55650  0.95860  0.22550  1.0000 0.1106475338
H   H18       1.0  0.44990  0.94540  0.10850  1.0000 0.1325504433
H   H19       1.0  0.88990  0.75770  0.30430  1.0000 0.1106475338
H   H20       1.0  0.95770  0.65890  0.25460  1.0000 0.1106475338
H   H21       1.0  0.85070  0.64530  0.13820  1.0000 0.1106475338
H   H22       1.0  0.67640  0.73180  0.07050  1.0000 0.1200274304
H   H23       1.0  0.64550  0.30410  0.47650  1.0000 0.268612786
H   H24       1.0  0.58710  0.36610  0.92770  1.0000 0.1200274304
H   H25       1.0  0.37530  0.37450  0.17190  1.0000 0.268612786
H   H26       1.0  0.41750  0.46720  0.84930  1.0000 0.1325504433
H   H27       1.0  0.88120  0.60860  0.62920  1.0000 0.1017970617
H   H28       1.0  0.07480  0.41390  0.61400  1.0000 0.1106475338
H   H29       1.0  0.92500  0.30610  0.58800  1.0000 0.1492113366
H   H30       1.0  0.72590  0.50580  0.60380  1.0000 0.1492113366
H   H31       1.0  0.74140  0.26050  0.58860  1.0000 0.1200274304
H   H32       1.0  0.66260  0.33770  0.59670  1.0000 0.1200274304
H   H33       1.0  0.92580  0.32910  0.87410  1.0000 0.1106475338
H   H34       1.0  0.09390  0.12800  0.00450  1.0000 0.1106475338
H   H35       1.0  0.05410  0.43770  0.95240  1.0000 0.1492113366
H   H36       1.0  0.22530  0.23090  0.08540  1.0000 0.1492113366
H   H37       1.0  0.30660  0.43310  0.07080  1.0000 0.1200274304
H   H38       1.0  0.19520  0.47660  0.07210  1.0000 0.1200274304
H   H39       1.0  0.44350  0.45860  0.27450  1.0000 0.1106475338
H   H40       1.0  0.55010  0.44540  0.39150  1.0000 0.1325504433
H   H41       1.0  0.11010  0.25770  0.19570  1.0000 0.1106475338
H   H42       1.0  0.04230  0.15890  0.24540  1.0000 0.1106475338
H   H43       1.0  0.14930  0.14530  0.36180  1.0000 0.1106475338
H   H44       1.0  0.32360  0.23180  0.42950  1.0000 0.1200274304
H   H45       1.0  0.64550  0.19590  0.97650  1.0000 0.268612786
H   H46       1.0  0.58710  0.13390  0.42770  1.0000 0.1200274304
H   H47       1.0  0.37530  0.12550  0.67190  1.0000 0.268612786
H   H48       1.0  0.41750  0.03280  0.34930  1.0000 0.1325504433
H   H49       1.0  0.88120  0.89140  0.12920  1.0000 0.1017970617
H   H50       1.0  0.07480  0.08610  0.11400  1.0000 0.1106475338
H   H51       1.0  0.92500  0.19390  0.08800  1.0000 0.1492113366
H   H52       1.0  0.72590  0.99420  0.10380  1.0000 0.1492113366
H   H53       1.0  0.74140  0.23950  0.08860  1.0000 0.1200274304
H   H54       1.0  0.66260  0.16230  0.09670  1.0000 0.1200274304
H   H55       1.0  0.92580  0.17090  0.37410  1.0000 0.1106475338
H   H56       1.0  0.09390  0.37200  0.50450  1.0000 0.1106475338
H   H57       1.0  0.05410  0.06230  0.45240  1.0000 0.1492113366
H   H58       1.0  0.22530  0.26910  0.58540  1.0000 0.1492113366
H   H59       1.0  0.30660  0.06690  0.57080  1.0000 0.1200274304
H   H60       1.0  0.19520  0.02340  0.57210  1.0000 0.1200274304
H   H61       1.0  0.44350  0.04140  0.77450  1.0000 0.1106475338
H   H62       1.0  0.55010  0.05460  0.89150  1.0000 0.1325504433
H   H63       1.0  0.11010  0.24230  0.69570  1.0000 0.1106475338
H   H64       1.0  0.04230  0.34110  0.74540  1.0000 0.1106475338
H   H65       1.0  0.14930  0.35470  0.86180  1.0000 0.1106475338
H   H66       1.0  0.32360  0.26820  0.92950  1.0000 0.1200274304
H   H67       1.0  0.35450  0.69590  0.52350  1.0000 0.268612786
H   H68       1.0  0.41290  0.63390  0.07230  1.0000 0.1200274304
H   H69       1.0  0.62470  0.62550  0.82810  1.0000 0.268612786
H   H70       1.0  0.58250  0.53280  0.15070  1.0000 0.1325504433
H   H71       1.0  0.11880  0.39140  0.37080  1.0000 0.1017970617
H   H72       1.0  0.92520  0.58610  0.38600  1.0000 0.1106475338
H   H73       1.0  0.07500  0.69390  0.41200  1.0000 0.1492113366
H   H74       1.0  0.27410  0.49420  0.39620  1.0000 0.1492113366
H   H75       1.0  0.25860  0.73950  0.41140  1.0000 0.1200274304
H   H76       1.0  0.33740  0.66230  0.40330  1.0000 0.1200274304
H   H77       1.0  0.07420  0.67090  0.12590  1.0000 0.1106475338
H   H78       1.0  0.90610  0.87200  0.99550  1.0000 0.1106475338
H   H79       1.0  0.94590  0.56230  0.04760  1.0000 0.1492113366
H   H80       1.0  0.77470  0.76910  0.91460  1.0000 0.1492113366
H   H81       1.0  0.69340  0.56690  0.92920  1.0000 0.1200274304
H   H82       1.0  0.80480  0.52340  0.92790  1.0000 0.1200274304
H   H83       1.0  0.55650  0.54140  0.72550  1.0000 0.1106475338
H   H84       1.0  0.44990  0.55460  0.60850  1.0000 0.1325504433
H   H85       1.0  0.88990  0.74230  0.80430  1.0000 0.1106475338
H   H86       1.0  0.95770  0.84110  0.75460  1.0000 0.1106475338
H   H87       1.0  0.85070  0.85470  0.63820  1.0000 0.1106475338
H   H88       1.0  0.67640  0.76820  0.57050  1.0000 0.1200274304
C   C1        1.0  0.30170  0.74420  0.62140  1.0000 0.560648265
C   C2        1.0  0.40250  0.81370  0.64970  1.0000 -0.134098246
C   C3        1.0  0.44530  0.86770  0.61870  1.0000 -0.1392463588
C   C4        1.0  0.54310  0.92560  0.66380  1.0000 -0.134098246
C   C5        1.0  0.57460  0.91520  0.72840  1.0000 -0.1201185931
C   C6        1.0  0.67090  0.96490  0.79140  1.0000 0.560648265
C   C7        1.0  0.10960  0.04660  0.87940  1.0000 0.0786107525
C   C8        1.0  0.99710  0.93290  0.88830  1.0000 0.069770009
C   C9        1.0  0.08630  0.86770  0.90360  1.0000 -0.181021604
C   C10       1.0  0.20330  0.98500  0.89440  1.0000 -0.181021604
C   C11       1.0  0.19240  0.89290  0.90660  1.0000 0.1416186505
C   C12       1.0  0.29430  0.82250  0.92590  1.0000 -0.1099729401
C   C13       1.0  0.49810  0.85080  0.02970  1.0000 0.4457234915
C   C14       1.0  0.01300  0.80890  0.58270  1.0000 0.0905952665
C   C15       1.0  0.91440  0.69140  0.50630  1.0000 0.0786107525
C   C16       1.0  0.93620  0.87470  0.53590  1.0000 -0.1995326553
C   C17       1.0  0.83520  0.75270  0.45740  1.0000 -0.171412078
C   C18       1.0  0.84490  0.84680  0.47150  1.0000 0.1416186505
C   C19       1.0  0.75840  0.91930  0.42070  1.0000 -0.1201185931
C   C20       1.0  0.76560  0.88930  0.32140  1.0000 0.4422830667
C   C21       1.0  0.69450  0.87210  0.24680  1.0000 -0.0674735245
C   C22       1.0  0.58750  0.91970  0.20610  1.0000 -0.1099729401
C   C23       1.0  0.52250  0.91140  0.13520  1.0000 -0.0909166758
C   C24       1.0  0.56470  0.85420  0.10530  1.0000 -0.0674735245
C   C25       1.0  0.67490  0.80050  0.14590  1.0000 0.0460346106
C   C26       1.0  0.74010  0.80980  0.21730  1.0000 0.0584279846
C   C27       1.0  0.84670  0.75380  0.25720  1.0000 -0.1392463588
C   C28       1.0  0.88660  0.69450  0.22770  1.0000 -0.0909166758
C   C29       1.0  0.82240  0.68660  0.15780  1.0000 -0.0963880543
C   C30       1.0  0.71850  0.73820  0.11740  1.0000 -0.1509895448
C   C31       1.0  0.69830  0.24420  0.87860  1.0000 0.560648265
C   C32       1.0  0.59750  0.31370  0.85030  1.0000 -0.134098246
C   C33       1.0  0.55470  0.36770  0.88130  1.0000 -0.1392463588
C   C34       1.0  0.45690  0.42560  0.83620  1.0000 -0.134098246
C   C35       1.0  0.42540  0.41520  0.77160  1.0000 -0.1201185931
C   C36       1.0  0.32910  0.46490  0.70860  1.0000 0.560648265
C   C37       1.0  0.89040  0.54660  0.62060  1.0000 0.0786107525
C   C38       1.0  0.00290  0.43290  0.61170  1.0000 0.069770009
C   C39       1.0  0.91370  0.36770  0.59640  1.0000 -0.181021604
C   C40       1.0  0.79670  0.48500  0.60560  1.0000 -0.181021604
C   C41       1.0  0.80760  0.39290  0.59340  1.0000 0.1416186505
C   C42       1.0  0.70570  0.32250  0.57410  1.0000 -0.1099729401
C   C43       1.0  0.50190  0.35080  0.47030  1.0000 0.4457234915
C   C44       1.0  0.98700  0.30890  0.91730  1.0000 0.0905952665
C   C45       1.0  0.08560  0.19140  0.99370  1.0000 0.0786107525
C   C46       1.0  0.06380  0.37470  0.96410  1.0000 -0.1995326553
C   C47       1.0  0.16480  0.25270  0.04260  1.0000 -0.171412078
C   C48       1.0  0.15510  0.34680  0.02850  1.0000 0.1416186505
C   C49       1.0  0.24160  0.41930  0.07930  1.0000 -0.1201185931
C   C50       1.0  0.23440  0.38930  0.17860  1.0000 0.4422830667
C   C51       1.0  0.30550  0.37210  0.25320  1.0000 -0.0674735245
C   C52       1.0  0.41250  0.41970  0.29390  1.0000 -0.1099729401
C   C53       1.0  0.47750  0.41140  0.36480  1.0000 -0.0909166758
C   C54       1.0  0.43530  0.35420  0.39470  1.0000 -0.0674735245
C   C55       1.0  0.32510  0.30050  0.35410  1.0000 0.0460346106
C   C56       1.0  0.25990  0.30980  0.28270  1.0000 0.0584279846
C   C57       1.0  0.15330  0.25380  0.24280  1.0000 -0.1392463588
C   C58       1.0  0.11340  0.19450  0.27230  1.0000 -0.0909166758
C   C59       1.0  0.17760  0.18660  0.34220  1.0000 -0.0963880543
C   C60       1.0  0.28150  0.23820  0.38260  1.0000 -0.1509895448
C   C61       1.0  0.69830  0.25580  0.37860  1.0000 0.560648265
C   C62       1.0  0.59750  0.18630  0.35030  1.0000 -0.134098246
C   C63       1.0  0.55470  0.13230  0.38130  1.0000 -0.1392463588
C   C64       1.0  0.45690  0.07440  0.33620  1.0000 -0.134098246
C   C65       1.0  0.42540  0.08480  0.27160  1.0000 -0.1201185931
C   C66       1.0  0.32910  0.03510  0.20860  1.0000 0.560648265
C   C67       1.0  0.89040  0.95340  0.12060  1.0000 0.0786107525
C   C68       1.0  0.00290  0.06710  0.11170  1.0000 0.069770009
C   C69       1.0  0.91370  0.13230  0.09640  1.0000 -0.181021604
C   C70       1.0  0.79670  0.01500  0.10560  1.0000 -0.181021604
C   C71       1.0  0.80760  0.10710  0.09340  1.0000 0.1416186505
C   C72       1.0  0.70570  0.17750  0.07410  1.0000 -0.1099729401
C   C73       1.0  0.50190  0.14920  0.97030  1.0000 0.4457234915
C   C74       1.0  0.98700  0.19110  0.41730  1.0000 0.0905952665
C   C75       1.0  0.08560  0.30860  0.49370  1.0000 0.0786107525
C   C76       1.0  0.06380  0.12530  0.46410  1.0000 -0.1995326553
C   C77       1.0  0.16480  0.24730  0.54260  1.0000 -0.171412078
C   C78       1.0  0.15510  0.15320  0.52850  1.0000 0.1416186505
C   C79       1.0  0.24160  0.08070  0.57930  1.0000 -0.1201185931
C   C80       1.0  0.23440  0.11070  0.67860  1.0000 0.4422830667
C   C81       1.0  0.30550  0.12790  0.75320  1.0000 -0.0674735245
C   C82       1.0  0.41250  0.08030  0.79390  1.0000 -0.1099729401
C   C83       1.0  0.47750  0.08860  0.86480  1.0000 -0.0909166758
C   C84       1.0  0.43530  0.14580  0.89470  1.0000 -0.0674735245
C   C85       1.0  0.32510  0.19950  0.85410  1.0000 0.0460346106
C   C86       1.0  0.25990  0.19020  0.78270  1.0000 0.0584279846
C   C87       1.0  0.15330  0.24620  0.74280  1.0000 -0.1392463588
C   C88       1.0  0.11340  0.30550  0.77230  1.0000 -0.0909166758
C   C89       1.0  0.17760  0.31340  0.84220  1.0000 -0.0963880543
C   C90       1.0  0.28150  0.26180  0.88260  1.0000 -0.1509895448
C   C91       1.0  0.30170  0.75580  0.12140  1.0000 0.560648265
C   C92       1.0  0.40250  0.68630  0.14970  1.0000 -0.134098246
C   C93       1.0  0.44530  0.63230  0.11870  1.0000 -0.1392463588
C   C94       1.0  0.54310  0.57440  0.16380  1.0000 -0.134098246
C   C95       1.0  0.57460  0.58480  0.22840  1.0000 -0.1201185931
C   C96       1.0  0.67090  0.53510  0.29140  1.0000 0.560648265
C   C97       1.0  0.10960  0.45340  0.37940  1.0000 0.0786107525
C   C98       1.0  0.99710  0.56710  0.38830  1.0000 0.069770009
C   C99       1.0  0.08630  0.63230  0.40360  1.0000 -0.181021604
C   C100      1.0  0.20330  0.51500  0.39440  1.0000 -0.181021604
C   C101      1.0  0.19240  0.60710  0.40660  1.0000 0.1416186505
C   C102      1.0  0.29430  0.67750  0.42590  1.0000 -0.1099729401
C   C103      1.0  0.49810  0.64920  0.52970  1.0000 0.4457234915
C   C104      1.0  0.01300  0.69110  0.08270  1.0000 0.0905952665
C   C105      1.0  0.91440  0.80860  0.00630  1.0000 0.0786107525
C   C106      1.0  0.93620  0.62530  0.03590  1.0000 -0.1995326553
C   C107      1.0  0.83520  0.74730  0.95740  1.0000 -0.171412078
C   C108      1.0  0.84490  0.65320  0.97150  1.0000 0.1416186505
C   C109      1.0  0.75840  0.58070  0.92070  1.0000 -0.1201185931
C   C110      1.0  0.76560  0.61070  0.82140  1.0000 0.4422830667
C   C111      1.0  0.69450  0.62790  0.74680  1.0000 -0.0674735245
C   C112      1.0  0.58750  0.58030  0.70610  1.0000 -0.1099729401
C   C113      1.0  0.52250  0.58860  0.63520  1.0000 -0.0909166758
C   C114      1.0  0.56470  0.64580  0.60530  1.0000 -0.0674735245
C   C115      1.0  0.67490  0.69950  0.64590  1.0000 0.0460346106
C   C116      1.0  0.74010  0.69020  0.71730  1.0000 0.0584279846
C   C117      1.0  0.84670  0.74620  0.75720  1.0000 -0.1392463588
C   C118      1.0  0.88660  0.80550  0.72770  1.0000 -0.0909166758
C   C119      1.0  0.82240  0.81340  0.65780  1.0000 -0.0963880543
C   C120      1.0  0.71850  0.76180  0.61740  1.0000 -0.1509895448
S   S1        1.0  0.48422  0.83391  0.73484  1.0000 0.1416186505
S   S2        1.0  0.51578  0.33391  0.76516  1.0000 0.1416186505
S   S3        1.0  0.51578  0.16609  0.26516  1.0000 0.1416186505
S   S4        1.0  0.48422  0.66609  0.23484  1.0000 0.1416186505
N   N1        1.0  0.00366  0.71770  0.56906  1.0000 -0.2557342325
N   N2        1.0  0.00742  0.02260  0.87642  1.0000 -0.2468802605
N   N3        1.0  0.38110  0.82320  0.99860  1.0000 -0.3125592892
N   N4        1.0  0.70161  0.89080  0.35091  1.0000 -0.3244086702
N   N5        1.0  0.99634  0.21770  0.93094  1.0000 -0.2557342325
N   N6        1.0  0.99258  0.52260  0.62358  1.0000 -0.2468802605
N   N7        1.0  0.61890  0.32320  0.50140  1.0000 -0.3125592892
N   N8        1.0  0.29839  0.39080  0.14909  1.0000 -0.3244086702
N   N9        1.0  0.99634  0.28230  0.43094  1.0000 -0.2557342325
N   N10       1.0  0.99258  0.97740  0.12358  1.0000 -0.2468802605
N   N11       1.0  0.61890  0.17680  0.00140  1.0000 -0.3125592892
N   N12       1.0  0.29839  0.10920  0.64909  1.0000 -0.3244086702
N   N13       1.0  0.00366  0.78230  0.06906  1.0000 -0.2557342325
N   N14       1.0  0.00742  0.47740  0.37642  1.0000 -0.2468802605
N   N15       1.0  0.38110  0.67680  0.49860  1.0000 -0.3125592892
N   N16       1.0  0.70161  0.60920  0.85091  1.0000 -0.3244086702
O   O1        1.0  0.24470  0.72690  0.55890  1.0000 -0.5654194926
O   O2        1.0  0.27915  0.70740  0.66235  1.0000 -0.55102962
O   O3        1.0  0.73459  0.02520  0.78489  1.0000 -0.5423017118
O   O4        1.0  0.67979  0.94290  0.84579  1.0000 -0.5754792963
O   O5        1.0  0.87805  0.90450  0.35435  1.0000 -0.4768574212
O   O6        1.0  0.54965  0.87400  0.00055  1.0000 -0.4768574212
O   O7        1.0  0.75530  0.22690  0.94110  1.0000 -0.5654194926
O   O8        1.0  0.72085  0.20740  0.83765  1.0000 -0.55102962
O   O9        1.0  0.26541  0.52520  0.71511  1.0000 -0.5423017118
O   O10       1.0  0.32021  0.44290  0.65421  1.0000 -0.5754792963
O   O11       1.0  0.12195  0.40450  0.14565  1.0000 -0.4768574212
O   O12       1.0  0.45035  0.37400  0.49945  1.0000 -0.4768574212
O   O13       1.0  0.75530  0.27310  0.44110  1.0000 -0.5654194926
O   O14       1.0  0.72085  0.29260  0.33765  1.0000 -0.55102962
O   O15       1.0  0.26541  0.97480  0.21511  1.0000 -0.5423017118
O   O16       1.0  0.32021  0.05710  0.15421  1.0000 -0.5754792963
O   O17       1.0  0.12195  0.09550  0.64565  1.0000 -0.4768574212
O   O18       1.0  0.45035  0.12600  0.99945  1.0000 -0.4768574212
O   O19       1.0  0.24470  0.77310  0.05890  1.0000 -0.5654194926
O   O20       1.0  0.27915  0.79260  0.16235  1.0000 -0.55102962
O   O21       1.0  0.73459  0.47480  0.28489  1.0000 -0.5423017118
O   O22       1.0  0.67979  0.55710  0.34579  1.0000 -0.5754792963
O   O23       1.0  0.87805  0.59550  0.85435  1.0000 -0.4768574212
O   O24       1.0  0.54965  0.62600  0.50055  1.0000 -0.4768574212
