# DDEC6 charges by PACMAN v1.1 (https://github.com/mtap-research/PACMAN-charge/)
data_2020[Zr][csq]3[ASR]3
_chemical_formula_sum              "Zr18 H132 C264 O72"
_cell_length_a       39.587
_cell_length_b       39.587
_cell_length_c       16.4985
_cell_angle_alpha    90
_cell_angle_beta     90
_cell_angle_gamma    120

_symmetry_space_group_name_H-M    "P 1"
_symmetry_Int_Tables_number       1

loop_
  _symmetry_equiv_pos_as_xyz
  'x, y, z'

loop_
  _atom_site_type_symbol
  _atom_site_label
  _atom_site_symmetry_multiplicity
  _atom_site_fract_x
  _atom_site_fract_y
  _atom_site_fract_z
  _atom_site_occupancy
  _atom_site_charge
Zr  Zr1       1.0  0.92886  0.46443  0.00000  1.0000 2.3496389788
Zr  Zr2       1.0  0.53557  0.07114  0.00000  1.0000 2.3496389788
Zr  Zr3       1.0  0.53557  0.46443  0.00000  1.0000 2.3496389788
Zr  Zr4       1.0  0.07114  0.53557  0.00000  1.0000 2.3496389788
Zr  Zr5       1.0  0.46443  0.92886  0.00000  1.0000 2.3496389788
Zr  Zr6       1.0  0.46443  0.53557  0.00000  1.0000 2.3496389788
Zr  Zr7       1.0  0.00000  0.45500  0.89217  1.0000 2.4855577153
Zr  Zr8       1.0  0.45500  0.00000  0.89217  1.0000 2.4818504256
Zr  Zr9       1.0  0.54500  0.54500  0.89217  1.0000 2.4818504256
Zr  Zr10      1.0  0.00000  0.54500  0.89217  1.0000 2.4818504256
Zr  Zr11      1.0  0.54500  0.00000  0.89217  1.0000 2.4818504256
Zr  Zr12      1.0  0.45500  0.45500  0.89217  1.0000 2.4855577153
Zr  Zr13      1.0  0.54500  0.54500  0.10783  1.0000 2.4818504256
Zr  Zr14      1.0  0.45500  0.00000  0.10783  1.0000 2.4818504256
Zr  Zr15      1.0  0.00000  0.45500  0.10783  1.0000 2.4855577153
Zr  Zr16      1.0  0.45500  0.45500  0.10783  1.0000 2.4855577153
Zr  Zr17      1.0  0.54500  0.00000  0.10783  1.0000 2.4818504256
Zr  Zr18      1.0  0.00000  0.54500  0.10783  1.0000 2.4818504256
H   H1        1.0  0.90900  0.35350  0.74960  1.0000 0.1105770283
H   H2        1.0  0.85780  0.30710  0.66640  1.0000 0.1166083867
H   H3        1.0  0.78080  0.32520  0.78900  1.0000 0.1105770283
H   H4        1.0  0.83000  0.36960  0.87110  1.0000 0.1285477711
H   H5        1.0  0.83230  0.33230  0.57000  1.0000 0.1105770283
H   H6        1.0  0.44450  0.09100  0.74960  1.0000 0.1105770283
H   H7        1.0  0.44930  0.14220  0.66640  1.0000 0.1166083867
H   H8        1.0  0.54440  0.21920  0.78900  1.0000 0.1166083867
H   H9        1.0  0.53960  0.17000  0.87110  1.0000 0.1285477711
H   H10       1.0  0.50000  0.16770  0.57000  1.0000 0.1105770283
H   H11       1.0  0.64650  0.55550  0.74960  1.0000 0.1105770283
H   H12       1.0  0.69290  0.55070  0.66640  1.0000 0.1166083867
H   H13       1.0  0.67480  0.45560  0.78900  1.0000 0.1166083867
H   H14       1.0  0.63040  0.46040  0.87110  1.0000 0.1285477711
H   H15       1.0  0.66770  0.50000  0.57000  1.0000 0.1105770283
H   H16       1.0  0.09100  0.64650  0.74960  1.0000 0.1105770283
H   H17       1.0  0.14220  0.69290  0.66640  1.0000 0.1166083867
H   H18       1.0  0.21920  0.67480  0.78900  1.0000 0.1166083867
H   H19       1.0  0.17000  0.63040  0.87110  1.0000 0.1285477711
H   H20       1.0  0.16770  0.66770  0.57000  1.0000 0.1105770283
H   H21       1.0  0.55550  0.90900  0.74960  1.0000 0.1105770283
H   H22       1.0  0.55070  0.85780  0.66640  1.0000 0.1166083867
H   H23       1.0  0.45560  0.78080  0.78900  1.0000 0.1105770283
H   H24       1.0  0.46040  0.83000  0.87110  1.0000 0.1285477711
H   H25       1.0  0.50000  0.83230  0.57000  1.0000 0.1105770283
H   H26       1.0  0.35350  0.44450  0.74960  1.0000 0.1105770283
H   H27       1.0  0.30710  0.44930  0.66640  1.0000 0.1166083867
H   H28       1.0  0.32520  0.54440  0.78900  1.0000 0.1166083867
H   H29       1.0  0.36960  0.53960  0.87110  1.0000 0.1285477711
H   H30       1.0  0.33230  0.50000  0.57000  1.0000 0.1105770283
H   H31       1.0  0.55550  0.64650  0.25040  1.0000 0.1105770283
H   H32       1.0  0.55070  0.69290  0.33360  1.0000 0.1166083867
H   H33       1.0  0.45560  0.67480  0.21100  1.0000 0.1166083867
H   H34       1.0  0.46040  0.63040  0.12890  1.0000 0.1285477711
H   H35       1.0  0.50000  0.66770  0.43000  1.0000 0.1105770283
H   H36       1.0  0.35350  0.90900  0.25040  1.0000 0.1105770283
H   H37       1.0  0.30710  0.85780  0.33360  1.0000 0.1105770283
H   H38       1.0  0.32520  0.78080  0.21100  1.0000 0.1105770283
H   H39       1.0  0.36960  0.83000  0.12890  1.0000 0.1285477711
H   H40       1.0  0.33230  0.83230  0.43000  1.0000 0.1105770283
H   H41       1.0  0.09100  0.44450  0.25040  1.0000 0.1105770283
H   H42       1.0  0.14220  0.44930  0.33360  1.0000 0.1166083867
H   H43       1.0  0.21920  0.54440  0.21100  1.0000 0.1166083867
H   H44       1.0  0.17000  0.53960  0.12890  1.0000 0.1285477711
H   H45       1.0  0.16770  0.50000  0.43000  1.0000 0.1105770283
H   H46       1.0  0.44450  0.35350  0.25040  1.0000 0.1105770283
H   H47       1.0  0.44930  0.30710  0.33360  1.0000 0.1166083867
H   H48       1.0  0.54440  0.32520  0.21100  1.0000 0.1105770283
H   H49       1.0  0.53960  0.36960  0.12890  1.0000 0.1285477711
H   H50       1.0  0.50000  0.33230  0.43000  1.0000 0.1105770283
H   H51       1.0  0.64650  0.09100  0.25040  1.0000 0.1105770283
H   H52       1.0  0.69290  0.14220  0.33360  1.0000 0.1166083867
H   H53       1.0  0.67480  0.21920  0.21100  1.0000 0.1166083867
H   H54       1.0  0.63040  0.17000  0.12890  1.0000 0.1285477711
H   H55       1.0  0.66770  0.16770  0.43000  1.0000 0.1105770283
H   H56       1.0  0.90900  0.55550  0.25040  1.0000 0.1105770283
H   H57       1.0  0.85780  0.55070  0.33360  1.0000 0.1166083867
H   H58       1.0  0.78080  0.45560  0.21100  1.0000 0.1166083867
H   H59       1.0  0.83000  0.46040  0.12890  1.0000 0.1285477711
H   H60       1.0  0.83230  0.50000  0.43000  1.0000 0.1105770283
H   H61       1.0  0.09100  0.64650  0.25040  1.0000 0.1105770283
H   H62       1.0  0.14220  0.69290  0.33360  1.0000 0.1166083867
H   H63       1.0  0.21920  0.67480  0.21100  1.0000 0.1166083867
H   H64       1.0  0.17000  0.63040  0.12890  1.0000 0.1285477711
H   H65       1.0  0.16770  0.66770  0.43000  1.0000 0.1105770283
H   H66       1.0  0.55550  0.90900  0.25040  1.0000 0.1105770283
H   H67       1.0  0.55070  0.85780  0.33360  1.0000 0.1166083867
H   H68       1.0  0.45560  0.78080  0.21100  1.0000 0.1105770283
H   H69       1.0  0.46040  0.83000  0.12890  1.0000 0.1285477711
H   H70       1.0  0.50000  0.83230  0.43000  1.0000 0.1105770283
H   H71       1.0  0.35350  0.44450  0.25040  1.0000 0.1105770283
H   H72       1.0  0.30710  0.44930  0.33360  1.0000 0.1166083867
H   H73       1.0  0.32520  0.54440  0.21100  1.0000 0.1166083867
H   H74       1.0  0.36960  0.53960  0.12890  1.0000 0.1285477711
H   H75       1.0  0.33230  0.50000  0.43000  1.0000 0.1105770283
H   H76       1.0  0.90900  0.35350  0.25040  1.0000 0.1105770283
H   H77       1.0  0.85780  0.30710  0.33360  1.0000 0.1166083867
H   H78       1.0  0.78080  0.32520  0.21100  1.0000 0.1105770283
H   H79       1.0  0.83000  0.36960  0.12890  1.0000 0.1285477711
H   H80       1.0  0.83230  0.33230  0.43000  1.0000 0.1105770283
H   H81       1.0  0.44450  0.09100  0.25040  1.0000 0.1105770283
H   H82       1.0  0.44930  0.14220  0.33360  1.0000 0.1166083867
H   H83       1.0  0.54440  0.21920  0.21100  1.0000 0.1166083867
H   H84       1.0  0.53960  0.17000  0.12890  1.0000 0.1285477711
H   H85       1.0  0.50000  0.16770  0.43000  1.0000 0.1105770283
H   H86       1.0  0.64650  0.55550  0.25040  1.0000 0.1105770283
H   H87       1.0  0.69290  0.55070  0.33360  1.0000 0.1166083867
H   H88       1.0  0.67480  0.45560  0.21100  1.0000 0.1166083867
H   H89       1.0  0.63040  0.46040  0.12890  1.0000 0.1285477711
H   H90       1.0  0.66770  0.50000  0.43000  1.0000 0.1105770283
H   H91       1.0  0.44450  0.35350  0.74960  1.0000 0.1105770283
H   H92       1.0  0.44930  0.30710  0.66640  1.0000 0.1166083867
H   H93       1.0  0.54440  0.32520  0.78900  1.0000 0.1105770283
H   H94       1.0  0.53960  0.36960  0.87110  1.0000 0.1285477711
H   H95       1.0  0.50000  0.33230  0.57000  1.0000 0.1105770283
H   H96       1.0  0.64650  0.09100  0.74960  1.0000 0.1105770283
H   H97       1.0  0.69290  0.14220  0.66640  1.0000 0.1166083867
H   H98       1.0  0.67480  0.21920  0.78900  1.0000 0.1166083867
H   H99       1.0  0.63040  0.17000  0.87110  1.0000 0.1285477711
H   H100      1.0  0.66770  0.16770  0.57000  1.0000 0.1105770283
H   H101      1.0  0.90900  0.55550  0.74960  1.0000 0.1105770283
H   H102      1.0  0.85780  0.55070  0.66640  1.0000 0.1166083867
H   H103      1.0  0.78080  0.45560  0.78900  1.0000 0.1166083867
H   H104      1.0  0.83000  0.46040  0.87110  1.0000 0.1285477711
H   H105      1.0  0.83230  0.50000  0.57000  1.0000 0.1105770283
H   H106      1.0  0.55550  0.64650  0.74960  1.0000 0.1105770283
H   H107      1.0  0.55070  0.69290  0.66640  1.0000 0.1166083867
H   H108      1.0  0.45560  0.67480  0.78900  1.0000 0.1166083867
H   H109      1.0  0.46040  0.63040  0.87110  1.0000 0.1285477711
H   H110      1.0  0.50000  0.66770  0.57000  1.0000 0.1105770283
H   H111      1.0  0.35350  0.90900  0.74960  1.0000 0.1105770283
H   H112      1.0  0.30710  0.85780  0.66640  1.0000 0.1105770283
H   H113      1.0  0.32520  0.78080  0.78900  1.0000 0.1105770283
H   H114      1.0  0.36960  0.83000  0.87110  1.0000 0.1285477711
H   H115      1.0  0.33230  0.83230  0.57000  1.0000 0.1105770283
H   H116      1.0  0.09100  0.44450  0.74960  1.0000 0.1105770283
H   H117      1.0  0.14220  0.44930  0.66640  1.0000 0.1166083867
H   H118      1.0  0.21920  0.54440  0.78900  1.0000 0.1166083867
H   H119      1.0  0.17000  0.53960  0.87110  1.0000 0.1285477711
H   H120      1.0  0.16770  0.50000  0.57000  1.0000 0.1105770283
H   H121      1.0  0.75295  0.24705  0.76910  1.0000 0.1166083867
H   H122      1.0  0.49410  0.24705  0.76910  1.0000 0.1166083867
H   H123      1.0  0.75295  0.50590  0.76910  1.0000 0.1166083867
H   H124      1.0  0.24705  0.75295  0.76910  1.0000 0.1166083867
H   H125      1.0  0.50590  0.75295  0.76910  1.0000 0.1166083867
H   H126      1.0  0.24705  0.49410  0.76910  1.0000 0.1166083867
H   H127      1.0  0.50590  0.75295  0.23090  1.0000 0.1166083867
H   H128      1.0  0.24705  0.75295  0.23090  1.0000 0.1166083867
H   H129      1.0  0.24705  0.49410  0.23090  1.0000 0.1166083867
H   H130      1.0  0.49410  0.24705  0.23090  1.0000 0.1166083867
H   H131      1.0  0.75295  0.24705  0.23090  1.0000 0.1166083867
H   H132      1.0  0.75295  0.50590  0.23090  1.0000 0.1166083867
C   C1        1.0  0.90570  0.39950  0.86640  1.0000 0.6372369281
C   C2        1.0  0.87420  0.36760  0.81660  1.0000 -0.048125217
C   C3        1.0  0.88290  0.34800  0.75720  1.0000 -0.0884662402
C   C4        1.0  0.85210  0.31990  0.70830  1.0000 -0.1712052957
C   C5        1.0  0.81400  0.31070  0.72030  1.0000 0.0744109914
C   C6        1.0  0.80680  0.33050  0.78050  1.0000 -0.1608805086
C   C7        1.0  0.83630  0.35760  0.82850  1.0000 -0.0957478873
C   C8        1.0  0.78220  0.27880  0.67090  1.0000 0.0227212161
C   C9        1.0  0.78230  0.28040  0.58530  1.0000 0.0227212161
C   C10       1.0  0.81180  0.31100  0.54170  1.0000 -0.1608805086
C   C11       1.0  0.49380  0.09430  0.86640  1.0000 0.6372369281
C   C12       1.0  0.49340  0.12580  0.81660  1.0000 -0.048125217
C   C13       1.0  0.46510  0.11710  0.75720  1.0000 -0.0884662402
C   C14       1.0  0.46780  0.14790  0.70830  1.0000 -0.1712052957
C   C15       1.0  0.49670  0.18600  0.72030  1.0000 0.0758642175
C   C16       1.0  0.52370  0.19320  0.78050  1.0000 -0.1608805086
C   C17       1.0  0.52130  0.16370  0.82850  1.0000 -0.0957478873
C   C18       1.0  0.49660  0.21780  0.67090  1.0000 0.0227212161
C   C19       1.0  0.49810  0.21770  0.58530  1.0000 0.0227212161
C   C20       1.0  0.49920  0.18820  0.54170  1.0000 -0.1608805086
C   C21       1.0  0.60050  0.50620  0.86640  1.0000 0.6372369281
C   C22       1.0  0.63240  0.50660  0.81660  1.0000 -0.048125217
C   C23       1.0  0.65200  0.53490  0.75720  1.0000 -0.0884662402
C   C24       1.0  0.68010  0.53220  0.70830  1.0000 -0.1712052957
C   C25       1.0  0.68930  0.50330  0.72030  1.0000 0.0758642175
C   C26       1.0  0.66950  0.47630  0.78050  1.0000 -0.1608805086
C   C27       1.0  0.64240  0.47870  0.82850  1.0000 -0.0957478873
C   C28       1.0  0.72120  0.50340  0.67090  1.0000 0.0227212161
C   C29       1.0  0.71960  0.50190  0.58530  1.0000 0.0227212161
C   C30       1.0  0.68900  0.50080  0.54170  1.0000 -0.1608805086
C   C31       1.0  0.09430  0.60050  0.86640  1.0000 0.6372369281
C   C32       1.0  0.12580  0.63240  0.81660  1.0000 -0.048125217
C   C33       1.0  0.11710  0.65200  0.75720  1.0000 -0.0884662402
C   C34       1.0  0.14790  0.68010  0.70830  1.0000 -0.1712052957
C   C35       1.0  0.18600  0.68930  0.72030  1.0000 0.0758642175
C   C36       1.0  0.19320  0.66950  0.78050  1.0000 -0.1608805086
C   C37       1.0  0.16370  0.64240  0.82850  1.0000 -0.0957478873
C   C38       1.0  0.21780  0.72120  0.67090  1.0000 0.0227212161
C   C39       1.0  0.21770  0.71960  0.58530  1.0000 0.0227212161
C   C40       1.0  0.18820  0.68900  0.54170  1.0000 -0.1608805086
C   C41       1.0  0.50620  0.90570  0.86640  1.0000 0.6372369281
C   C42       1.0  0.50660  0.87420  0.81660  1.0000 -0.048125217
C   C43       1.0  0.53490  0.88290  0.75720  1.0000 -0.0884662402
C   C44       1.0  0.53220  0.85210  0.70830  1.0000 -0.1712052957
C   C45       1.0  0.50330  0.81400  0.72030  1.0000 0.0758642175
C   C46       1.0  0.47630  0.80680  0.78050  1.0000 -0.1608805086
C   C47       1.0  0.47870  0.83630  0.82850  1.0000 -0.0957478873
C   C48       1.0  0.50340  0.78220  0.67090  1.0000 0.0227212161
C   C49       1.0  0.50190  0.78230  0.58530  1.0000 0.0227212161
C   C50       1.0  0.50080  0.81180  0.54170  1.0000 -0.1608805086
C   C51       1.0  0.39950  0.49380  0.86640  1.0000 0.6372369281
C   C52       1.0  0.36760  0.49340  0.81660  1.0000 -0.048125217
C   C53       1.0  0.34800  0.46510  0.75720  1.0000 -0.0884662402
C   C54       1.0  0.31990  0.46780  0.70830  1.0000 -0.1712052957
C   C55       1.0  0.31070  0.49670  0.72030  1.0000 0.0758642175
C   C56       1.0  0.33050  0.52370  0.78050  1.0000 -0.1608805086
C   C57       1.0  0.35760  0.52130  0.82850  1.0000 -0.0957478873
C   C58       1.0  0.27880  0.49660  0.67090  1.0000 0.0227212161
C   C59       1.0  0.28040  0.49810  0.58530  1.0000 0.0227212161
C   C60       1.0  0.31100  0.49920  0.54170  1.0000 -0.1608805086
C   C61       1.0  0.50620  0.60050  0.13360  1.0000 0.6372369281
C   C62       1.0  0.50660  0.63240  0.18340  1.0000 -0.048125217
C   C63       1.0  0.53490  0.65200  0.24280  1.0000 -0.0884662402
C   C64       1.0  0.53220  0.68010  0.29170  1.0000 -0.1712052957
C   C65       1.0  0.50330  0.68930  0.27970  1.0000 0.0744109914
C   C66       1.0  0.47630  0.66950  0.21950  1.0000 -0.1608805086
C   C67       1.0  0.47870  0.64240  0.17150  1.0000 -0.0957478873
C   C68       1.0  0.50340  0.72120  0.32910  1.0000 0.0227212161
C   C69       1.0  0.50190  0.71960  0.41470  1.0000 0.0227212161
C   C70       1.0  0.50080  0.68900  0.45830  1.0000 -0.1608805086
C   C71       1.0  0.39950  0.90570  0.13360  1.0000 0.6372369281
C   C72       1.0  0.36760  0.87420  0.18340  1.0000 -0.048125217
C   C73       1.0  0.34800  0.88290  0.24280  1.0000 -0.0884662402
C   C74       1.0  0.31990  0.85210  0.29170  1.0000 -0.1712052957
C   C75       1.0  0.31070  0.81400  0.27970  1.0000 0.0744109914
C   C76       1.0  0.33050  0.80680  0.21950  1.0000 -0.1608805086
C   C77       1.0  0.35760  0.83630  0.17150  1.0000 -0.0957478873
C   C78       1.0  0.27880  0.78220  0.32910  1.0000 0.0227212161
C   C79       1.0  0.28040  0.78230  0.41470  1.0000 0.0227212161
C   C80       1.0  0.31100  0.81180  0.45830  1.0000 -0.1608805086
C   C81       1.0  0.09430  0.49380  0.13360  1.0000 0.6372369281
C   C82       1.0  0.12580  0.49340  0.18340  1.0000 -0.048125217
C   C83       1.0  0.11710  0.46510  0.24280  1.0000 -0.0884662402
C   C84       1.0  0.14790  0.46780  0.29170  1.0000 -0.1712052957
C   C85       1.0  0.18600  0.49670  0.27970  1.0000 0.0744109914
C   C86       1.0  0.19320  0.52370  0.21950  1.0000 -0.1608805086
C   C87       1.0  0.16370  0.52130  0.17150  1.0000 -0.0957478873
C   C88       1.0  0.21780  0.49660  0.32910  1.0000 0.0227212161
C   C89       1.0  0.21770  0.49810  0.41470  1.0000 0.0227212161
C   C90       1.0  0.18820  0.49920  0.45830  1.0000 -0.1608805086
C   C91       1.0  0.49380  0.39950  0.13360  1.0000 0.6372369281
C   C92       1.0  0.49340  0.36760  0.18340  1.0000 -0.048125217
C   C93       1.0  0.46510  0.34800  0.24280  1.0000 -0.0884662402
C   C94       1.0  0.46780  0.31990  0.29170  1.0000 -0.1712052957
C   C95       1.0  0.49670  0.31070  0.27970  1.0000 0.0744109914
C   C96       1.0  0.52370  0.33050  0.21950  1.0000 -0.1608805086
C   C97       1.0  0.52130  0.35760  0.17150  1.0000 -0.0957478873
C   C98       1.0  0.49660  0.27880  0.32910  1.0000 0.0227212161
C   C99       1.0  0.49810  0.28040  0.41470  1.0000 0.0227212161
C   C100      1.0  0.49920  0.31100  0.45830  1.0000 -0.1608805086
C   C101      1.0  0.60050  0.09430  0.13360  1.0000 0.6372369281
C   C102      1.0  0.63240  0.12580  0.18340  1.0000 -0.048125217
C   C103      1.0  0.65200  0.11710  0.24280  1.0000 -0.0884662402
C   C104      1.0  0.68010  0.14790  0.29170  1.0000 -0.1712052957
C   C105      1.0  0.68930  0.18600  0.27970  1.0000 0.0744109914
C   C106      1.0  0.66950  0.19320  0.21950  1.0000 -0.1608805086
C   C107      1.0  0.64240  0.16370  0.17150  1.0000 -0.0957478873
C   C108      1.0  0.72120  0.21780  0.32910  1.0000 0.0227212161
C   C109      1.0  0.71960  0.21770  0.41470  1.0000 0.0227212161
C   C110      1.0  0.68900  0.18820  0.45830  1.0000 -0.1608805086
C   C111      1.0  0.90570  0.50620  0.13360  1.0000 0.6372369281
C   C112      1.0  0.87420  0.50660  0.18340  1.0000 -0.048125217
C   C113      1.0  0.88290  0.53490  0.24280  1.0000 -0.0884662402
C   C114      1.0  0.85210  0.53220  0.29170  1.0000 -0.1712052957
C   C115      1.0  0.81400  0.50330  0.27970  1.0000 0.0744109914
C   C116      1.0  0.80680  0.47630  0.21950  1.0000 -0.1608805086
C   C117      1.0  0.83630  0.47870  0.17150  1.0000 -0.0957478873
C   C118      1.0  0.78220  0.50340  0.32910  1.0000 0.0227212161
C   C119      1.0  0.78230  0.50190  0.41470  1.0000 0.0227212161
C   C120      1.0  0.81180  0.50080  0.45830  1.0000 -0.1608805086
C   C121      1.0  0.09430  0.60050  0.13360  1.0000 0.6372369281
C   C122      1.0  0.12580  0.63240  0.18340  1.0000 -0.048125217
C   C123      1.0  0.11710  0.65200  0.24280  1.0000 -0.0884662402
C   C124      1.0  0.14790  0.68010  0.29170  1.0000 -0.1712052957
C   C125      1.0  0.18600  0.68930  0.27970  1.0000 0.0744109914
C   C126      1.0  0.19320  0.66950  0.21950  1.0000 -0.1608805086
C   C127      1.0  0.16370  0.64240  0.17150  1.0000 -0.0957478873
C   C128      1.0  0.21780  0.72120  0.32910  1.0000 0.0227212161
C   C129      1.0  0.21770  0.71960  0.41470  1.0000 0.0227212161
C   C130      1.0  0.18820  0.68900  0.45830  1.0000 -0.1608805086
C   C131      1.0  0.50620  0.90570  0.13360  1.0000 0.6372369281
C   C132      1.0  0.50660  0.87420  0.18340  1.0000 -0.048125217
C   C133      1.0  0.53490  0.88290  0.24280  1.0000 -0.0884662402
C   C134      1.0  0.53220  0.85210  0.29170  1.0000 -0.1712052957
C   C135      1.0  0.50330  0.81400  0.27970  1.0000 0.0744109914
C   C136      1.0  0.47630  0.80680  0.21950  1.0000 -0.1608805086
C   C137      1.0  0.47870  0.83630  0.17150  1.0000 -0.0957478873
C   C138      1.0  0.50340  0.78220  0.32910  1.0000 0.0227212161
C   C139      1.0  0.50190  0.78230  0.41470  1.0000 0.0227212161
C   C140      1.0  0.50080  0.81180  0.45830  1.0000 -0.1608805086
C   C141      1.0  0.39950  0.49380  0.13360  1.0000 0.6372369281
C   C142      1.0  0.36760  0.49340  0.18340  1.0000 -0.048125217
C   C143      1.0  0.34800  0.46510  0.24280  1.0000 -0.0884662402
C   C144      1.0  0.31990  0.46780  0.29170  1.0000 -0.1712052957
C   C145      1.0  0.31070  0.49670  0.27970  1.0000 0.0758642175
C   C146      1.0  0.33050  0.52370  0.21950  1.0000 -0.1608805086
C   C147      1.0  0.35760  0.52130  0.17150  1.0000 -0.0957478873
C   C148      1.0  0.27880  0.49660  0.32910  1.0000 0.0227212161
C   C149      1.0  0.28040  0.49810  0.41470  1.0000 0.0227212161
C   C150      1.0  0.31100  0.49920  0.45830  1.0000 -0.1608805086
C   C151      1.0  0.90570  0.39950  0.13360  1.0000 0.6372369281
C   C152      1.0  0.87420  0.36760  0.18340  1.0000 -0.048125217
C   C153      1.0  0.88290  0.34800  0.24280  1.0000 -0.0884662402
C   C154      1.0  0.85210  0.31990  0.29170  1.0000 -0.1712052957
C   C155      1.0  0.81400  0.31070  0.27970  1.0000 0.0744109914
C   C156      1.0  0.80680  0.33050  0.21950  1.0000 -0.1608805086
C   C157      1.0  0.83630  0.35760  0.17150  1.0000 -0.0957478873
C   C158      1.0  0.78220  0.27880  0.32910  1.0000 0.0227212161
C   C159      1.0  0.78230  0.28040  0.41470  1.0000 0.0227212161
C   C160      1.0  0.81180  0.31100  0.45830  1.0000 -0.1608805086
C   C161      1.0  0.49380  0.09430  0.13360  1.0000 0.6372369281
C   C162      1.0  0.49340  0.12580  0.18340  1.0000 -0.048125217
C   C163      1.0  0.46510  0.11710  0.24280  1.0000 -0.0884662402
C   C164      1.0  0.46780  0.14790  0.29170  1.0000 -0.1712052957
C   C165      1.0  0.49670  0.18600  0.27970  1.0000 0.0744109914
C   C166      1.0  0.52370  0.19320  0.21950  1.0000 -0.1608805086
C   C167      1.0  0.52130  0.16370  0.17150  1.0000 -0.0957478873
C   C168      1.0  0.49660  0.21780  0.32910  1.0000 0.0227212161
C   C169      1.0  0.49810  0.21770  0.41470  1.0000 0.0227212161
C   C170      1.0  0.49920  0.18820  0.45830  1.0000 -0.1608805086
C   C171      1.0  0.60050  0.50620  0.13360  1.0000 0.6372369281
C   C172      1.0  0.63240  0.50660  0.18340  1.0000 -0.048125217
C   C173      1.0  0.65200  0.53490  0.24280  1.0000 -0.0884662402
C   C174      1.0  0.68010  0.53220  0.29170  1.0000 -0.1712052957
C   C175      1.0  0.68930  0.50330  0.27970  1.0000 0.0744109914
C   C176      1.0  0.66950  0.47630  0.21950  1.0000 -0.1608805086
C   C177      1.0  0.64240  0.47870  0.17150  1.0000 -0.0957478873
C   C178      1.0  0.72120  0.50340  0.32910  1.0000 0.0227212161
C   C179      1.0  0.71960  0.50190  0.41470  1.0000 0.0227212161
C   C180      1.0  0.68900  0.50080  0.45830  1.0000 -0.1608805086
C   C181      1.0  0.49380  0.39950  0.86640  1.0000 0.6372369281
C   C182      1.0  0.49340  0.36760  0.81660  1.0000 -0.048125217
C   C183      1.0  0.46510  0.34800  0.75720  1.0000 -0.0884662402
C   C184      1.0  0.46780  0.31990  0.70830  1.0000 -0.1712052957
C   C185      1.0  0.49670  0.31070  0.72030  1.0000 0.0758642175
C   C186      1.0  0.52370  0.33050  0.78050  1.0000 -0.1608805086
C   C187      1.0  0.52130  0.35760  0.82850  1.0000 -0.0957478873
C   C188      1.0  0.49660  0.27880  0.67090  1.0000 0.0227212161
C   C189      1.0  0.49810  0.28040  0.58530  1.0000 0.0227212161
C   C190      1.0  0.49920  0.31100  0.54170  1.0000 -0.1608805086
C   C191      1.0  0.60050  0.09430  0.86640  1.0000 0.6372369281
C   C192      1.0  0.63240  0.12580  0.81660  1.0000 -0.048125217
C   C193      1.0  0.65200  0.11710  0.75720  1.0000 -0.0884662402
C   C194      1.0  0.68010  0.14790  0.70830  1.0000 -0.1712052957
C   C195      1.0  0.68930  0.18600  0.72030  1.0000 0.0758642175
C   C196      1.0  0.66950  0.19320  0.78050  1.0000 -0.1608805086
C   C197      1.0  0.64240  0.16370  0.82850  1.0000 -0.0957478873
C   C198      1.0  0.72120  0.21780  0.67090  1.0000 0.0227212161
C   C199      1.0  0.71960  0.21770  0.58530  1.0000 0.0227212161
C   C200      1.0  0.68900  0.18820  0.54170  1.0000 -0.1608805086
C   C201      1.0  0.90570  0.50620  0.86640  1.0000 0.6372369281
C   C202      1.0  0.87420  0.50660  0.81660  1.0000 -0.048125217
C   C203      1.0  0.88290  0.53490  0.75720  1.0000 -0.0884662402
C   C204      1.0  0.85210  0.53220  0.70830  1.0000 -0.1712052957
C   C205      1.0  0.81400  0.50330  0.72030  1.0000 0.0758642175
C   C206      1.0  0.80680  0.47630  0.78050  1.0000 -0.1608805086
C   C207      1.0  0.83630  0.47870  0.82850  1.0000 -0.0957478873
C   C208      1.0  0.78220  0.50340  0.67090  1.0000 0.0227212161
C   C209      1.0  0.78230  0.50190  0.58530  1.0000 0.0227212161
C   C210      1.0  0.81180  0.50080  0.54170  1.0000 -0.1608805086
C   C211      1.0  0.50620  0.60050  0.86640  1.0000 0.6372369281
C   C212      1.0  0.50660  0.63240  0.81660  1.0000 -0.048125217
C   C213      1.0  0.53490  0.65200  0.75720  1.0000 -0.0884662402
C   C214      1.0  0.53220  0.68010  0.70830  1.0000 -0.1712052957
C   C215      1.0  0.50330  0.68930  0.72030  1.0000 0.0758642175
C   C216      1.0  0.47630  0.66950  0.78050  1.0000 -0.1608805086
C   C217      1.0  0.47870  0.64240  0.82850  1.0000 -0.0957478873
C   C218      1.0  0.50340  0.72120  0.67090  1.0000 0.0227212161
C   C219      1.0  0.50190  0.71960  0.58530  1.0000 0.0227212161
C   C220      1.0  0.50080  0.68900  0.54170  1.0000 -0.1608805086
C   C221      1.0  0.39950  0.90570  0.86640  1.0000 0.6372369281
C   C222      1.0  0.36760  0.87420  0.81660  1.0000 -0.048125217
C   C223      1.0  0.34800  0.88290  0.75720  1.0000 -0.0884662402
C   C224      1.0  0.31990  0.85210  0.70830  1.0000 -0.1712052957
C   C225      1.0  0.31070  0.81400  0.72030  1.0000 0.0744109914
C   C226      1.0  0.33050  0.80680  0.78050  1.0000 -0.1608805086
C   C227      1.0  0.35760  0.83630  0.82850  1.0000 -0.0957478873
C   C228      1.0  0.27880  0.78220  0.67090  1.0000 0.0227212161
C   C229      1.0  0.28040  0.78230  0.58530  1.0000 0.0227212161
C   C230      1.0  0.31100  0.81180  0.54170  1.0000 -0.1608805086
C   C231      1.0  0.09430  0.49380  0.86640  1.0000 0.6372369281
C   C232      1.0  0.12580  0.49340  0.81660  1.0000 -0.048125217
C   C233      1.0  0.11710  0.46510  0.75720  1.0000 -0.0884662402
C   C234      1.0  0.14790  0.46780  0.70830  1.0000 -0.1712052957
C   C235      1.0  0.18600  0.49670  0.72030  1.0000 0.0758642175
C   C236      1.0  0.19320  0.52370  0.78050  1.0000 -0.1608805086
C   C237      1.0  0.16370  0.52130  0.82850  1.0000 -0.0957478873
C   C238      1.0  0.21780  0.49660  0.67090  1.0000 0.0227212161
C   C239      1.0  0.21770  0.49810  0.58530  1.0000 0.0227212161
C   C240      1.0  0.18820  0.49920  0.54170  1.0000 -0.1608805086
C   C241      1.0  0.75220  0.24780  0.71160  1.0000 -0.1987271307
C   C242      1.0  0.75175  0.24825  0.54260  1.0000 0.0077123369
C   C243      1.0  0.49560  0.24780  0.71160  1.0000 -0.1987271307
C   C244      1.0  0.49650  0.24825  0.54260  1.0000 0.0077123369
C   C245      1.0  0.75220  0.50440  0.71160  1.0000 -0.1987271307
C   C246      1.0  0.75175  0.50350  0.54260  1.0000 0.0077123369
C   C247      1.0  0.24780  0.75220  0.71160  1.0000 -0.1987271307
C   C248      1.0  0.24825  0.75175  0.54260  1.0000 0.0077123369
C   C249      1.0  0.50440  0.75220  0.71160  1.0000 -0.1987271307
C   C250      1.0  0.50350  0.75175  0.54260  1.0000 0.0077123369
C   C251      1.0  0.24780  0.49560  0.71160  1.0000 -0.1987271307
C   C252      1.0  0.24825  0.49650  0.54260  1.0000 0.0077123369
C   C253      1.0  0.50440  0.75220  0.28840  1.0000 -0.1987271307
C   C254      1.0  0.50350  0.75175  0.45740  1.0000 0.0077123369
C   C255      1.0  0.24780  0.75220  0.28840  1.0000 -0.1987271307
C   C256      1.0  0.24825  0.75175  0.45740  1.0000 0.0077123369
C   C257      1.0  0.24780  0.49560  0.28840  1.0000 -0.1987271307
C   C258      1.0  0.24825  0.49650  0.45740  1.0000 0.0077123369
C   C259      1.0  0.49560  0.24780  0.28840  1.0000 -0.1987271307
C   C260      1.0  0.49650  0.24825  0.45740  1.0000 0.0077123369
C   C261      1.0  0.75220  0.24780  0.28840  1.0000 -0.1987271307
C   C262      1.0  0.75175  0.24825  0.45740  1.0000 0.0077123369
C   C263      1.0  0.75220  0.50440  0.28840  1.0000 -0.1987271307
C   C264      1.0  0.75175  0.50350  0.45740  1.0000 0.0077123369
O   O1        1.0  0.89556  0.41436  0.91940  1.0000 -0.5584421131
O   O2        1.0  0.94085  0.40866  0.84790  1.0000 -0.6330639483
O   O3        1.0  0.51880  0.10444  0.91940  1.0000 -0.5584421131
O   O4        1.0  0.46781  0.05915  0.84790  1.0000 -0.6330639483
O   O5        1.0  0.58564  0.48120  0.91940  1.0000 -0.5584421131
O   O6        1.0  0.59134  0.53219  0.84790  1.0000 -0.6330639483
O   O7        1.0  0.10444  0.58564  0.91940  1.0000 -0.5584421131
O   O8        1.0  0.05915  0.59134  0.84790  1.0000 -0.6358576018
O   O9        1.0  0.48120  0.89556  0.91940  1.0000 -0.5584421131
O   O10       1.0  0.53219  0.94085  0.84790  1.0000 -0.6330639483
O   O11       1.0  0.41436  0.51880  0.91940  1.0000 -0.5584421131
O   O12       1.0  0.40866  0.46781  0.84790  1.0000 -0.6330639483
O   O13       1.0  0.48120  0.58564  0.08060  1.0000 -0.5584421131
O   O14       1.0  0.53219  0.59134  0.15210  1.0000 -0.6330639483
O   O15       1.0  0.41436  0.89556  0.08060  1.0000 -0.5584421131
O   O16       1.0  0.40866  0.94085  0.15210  1.0000 -0.6330639483
O   O17       1.0  0.10444  0.51880  0.08060  1.0000 -0.5584421131
O   O18       1.0  0.05915  0.46781  0.15210  1.0000 -0.6330639483
O   O19       1.0  0.51880  0.41436  0.08060  1.0000 -0.5584421131
O   O20       1.0  0.46781  0.40866  0.15210  1.0000 -0.6330639483
O   O21       1.0  0.58564  0.10444  0.08060  1.0000 -0.5584421131
O   O22       1.0  0.59134  0.05915  0.15210  1.0000 -0.6330639483
O   O23       1.0  0.89556  0.48120  0.08060  1.0000 -0.5584421131
O   O24       1.0  0.94085  0.53219  0.15210  1.0000 -0.6330639483
O   O25       1.0  0.10444  0.58564  0.08060  1.0000 -0.5584421131
O   O26       1.0  0.05915  0.59134  0.15210  1.0000 -0.6358576018
O   O27       1.0  0.48120  0.89556  0.08060  1.0000 -0.5584421131
O   O28       1.0  0.53219  0.94085  0.15210  1.0000 -0.6330639483
O   O29       1.0  0.41436  0.51880  0.08060  1.0000 -0.5584421131
O   O30       1.0  0.40866  0.46781  0.15210  1.0000 -0.6330639483
O   O31       1.0  0.89556  0.41436  0.08060  1.0000 -0.5584421131
O   O32       1.0  0.94085  0.40866  0.15210  1.0000 -0.6330639483
O   O33       1.0  0.51880  0.10444  0.08060  1.0000 -0.5584421131
O   O34       1.0  0.46781  0.05915  0.15210  1.0000 -0.6330639483
O   O35       1.0  0.58564  0.48120  0.08060  1.0000 -0.5584421131
O   O36       1.0  0.59134  0.53219  0.15210  1.0000 -0.6330639483
O   O37       1.0  0.51880  0.41436  0.91940  1.0000 -0.5584421131
O   O38       1.0  0.46781  0.40866  0.84790  1.0000 -0.6330639483
O   O39       1.0  0.58564  0.10444  0.91940  1.0000 -0.5584421131
O   O40       1.0  0.59134  0.05915  0.84790  1.0000 -0.6330639483
O   O41       1.0  0.89556  0.48120  0.91940  1.0000 -0.5584421131
O   O42       1.0  0.94085  0.53219  0.84790  1.0000 -0.6330639483
O   O43       1.0  0.48120  0.58564  0.91940  1.0000 -0.5584421131
O   O44       1.0  0.53219  0.59134  0.84790  1.0000 -0.6330639483
O   O45       1.0  0.41436  0.89556  0.91940  1.0000 -0.5584421131
O   O46       1.0  0.40866  0.94085  0.84790  1.0000 -0.6330639483
O   O47       1.0  0.10444  0.51880  0.91940  1.0000 -0.5584421131
O   O48       1.0  0.05915  0.46781  0.84790  1.0000 -0.6330639483
O   O49       1.0  0.96402  0.43357  0.00000  1.0000 -1.2026524939
O   O50       1.0  0.46955  0.03598  0.00000  1.0000 -1.2105256895
O   O51       1.0  0.56643  0.53045  0.00000  1.0000 -1.2105256895
O   O52       1.0  0.03598  0.56643  0.00000  1.0000 -1.2026524939
O   O53       1.0  0.53045  0.96402  0.00000  1.0000 -1.2105256895
O   O54       1.0  0.43357  0.46955  0.00000  1.0000 -1.21850694
O   O55       1.0  0.53045  0.56643  0.00000  1.0000 -1.2105256895
O   O56       1.0  0.43357  0.96402  0.00000  1.0000 -1.2105256895
O   O57       1.0  0.03598  0.46955  0.00000  1.0000 -1.21850694
O   O58       1.0  0.46955  0.43357  0.00000  1.0000 -1.2026524939
O   O59       1.0  0.56643  0.03598  0.00000  1.0000 -1.2105256895
O   O60       1.0  0.96402  0.53045  0.00000  1.0000 -1.2105256895
O   O61       1.0  0.96470  0.48235  0.89190  1.0000 -1.21850694
O   O62       1.0  0.51765  0.03530  0.89190  1.0000 -1.21850694
O   O63       1.0  0.51765  0.48235  0.89190  1.0000 -1.21850694
O   O64       1.0  0.03530  0.51765  0.89190  1.0000 -1.2105256895
O   O65       1.0  0.48235  0.96470  0.89190  1.0000 -1.21850694
O   O66       1.0  0.48235  0.51765  0.89190  1.0000 -1.2105256895
O   O67       1.0  0.48235  0.51765  0.10810  1.0000 -1.2105256895
O   O68       1.0  0.48235  0.96470  0.10810  1.0000 -1.21850694
O   O69       1.0  0.03530  0.51765  0.10810  1.0000 -1.2105256895
O   O70       1.0  0.51765  0.48235  0.10810  1.0000 -1.21850694
O   O71       1.0  0.51765  0.03530  0.10810  1.0000 -1.21850694
O   O72       1.0  0.96470  0.48235  0.10810  1.0000 -1.21850694
