# DDEC6 charges by PACMAN v1.1 (https://github.com/mtap-research/PACMAN-charge/)
data_2020[Zn][hcb]2[ASR]5
_chemical_formula_sum              "Zn2 H36 C52 N8 O10"
_cell_length_a       8.9547
_cell_length_b       12.2876
_cell_length_c       13.8441
_cell_angle_alpha    103.702
_cell_angle_beta     92.121
_cell_angle_gamma    94.827

_symmetry_space_group_name_H-M    "P 1"
_symmetry_Int_Tables_number       1

loop_
  _symmetry_equiv_pos_as_xyz
  'x, y, z'

loop_
  _atom_site_type_symbol
  _atom_site_label
  _atom_site_symmetry_multiplicity
  _atom_site_fract_x
  _atom_site_fract_y
  _atom_site_fract_z
  _atom_site_occupancy
  _atom_site_charge
Zn  Zn1       1.0  0.67219  0.57619  0.83920  1.0000 0.7774555354
Zn  Zn2       1.0  0.32781  0.42381  0.16080  1.0000 0.7774555354
H   H1        1.0  0.35680  0.87210  0.06520  1.0000 0.1121341902
H   H2        1.0  0.32070  0.06100  0.11140  1.0000 0.1210495247
H   H3        1.0  0.90950  0.66090  0.59300  1.0000 0.1210495247
H   H4        1.0  0.97550  0.33550  0.55270  1.0000 0.1121341902
H   H5        1.0  0.75650  0.34580  0.90010  1.0000 0.1210495247
H   H6        1.0  0.81560  0.66050  0.05710  1.0000 0.1121341902
H   H7        1.0  0.90200  0.54410  0.15770  1.0000 0.1299995358
H   H8        1.0  0.99240  0.24220  0.96290  1.0000 0.1210495247
H   H9        1.0  0.06200  0.09450  0.02840  1.0000 0.1299995358
H   H10       1.0  0.85060  0.21510  0.27480  1.0000 0.1393633044
H   H11       1.0  0.77530  0.36000  0.20810  1.0000 0.1299995358
H   H12       1.0  0.52720  0.63940  0.12370  1.0000 0.1210495247
H   H13       1.0  0.57190  0.48890  0.34280  1.0000 0.1393633044
H   H14       1.0  0.74500  0.65140  0.37700  1.0000 0.1393633044
H   H15       1.0  0.95540  0.74190  0.28230  1.0000 0.1299995358
H   H16       1.0  0.09670  0.90020  0.26080  1.0000 0.14642587
H   H17       1.0  0.72580  0.01150  0.16240  1.0000 0.1299995358
H   H18       1.0  0.58360  0.85490  0.18840  1.0000 0.1299995358
H   H19       1.0  0.64320  0.12790  0.93480  1.0000 0.1121341902
H   H20       1.0  0.67930  0.93900  0.88860  1.0000 0.1210495247
H   H21       1.0  0.09050  0.33910  0.40700  1.0000 0.1210495247
H   H22       1.0  0.02450  0.66450  0.44730  1.0000 0.1121341902
H   H23       1.0  0.24350  0.65420  0.09990  1.0000 0.1210495247
H   H24       1.0  0.18440  0.33950  0.94290  1.0000 0.1121341902
H   H25       1.0  0.09800  0.45590  0.84230  1.0000 0.1299995358
H   H26       1.0  0.00760  0.75780  0.03710  1.0000 0.1210495247
H   H27       1.0  0.93800  0.90550  0.97160  1.0000 0.1299995358
H   H28       1.0  0.14940  0.78490  0.72520  1.0000 0.1393633044
H   H29       1.0  0.22470  0.64000  0.79190  1.0000 0.1299995358
H   H30       1.0  0.47280  0.36060  0.87630  1.0000 0.1210495247
H   H31       1.0  0.42810  0.51110  0.65720  1.0000 0.1393633044
H   H32       1.0  0.25500  0.34860  0.62300  1.0000 0.1393633044
H   H33       1.0  0.04460  0.25810  0.71770  1.0000 0.1299995358
H   H34       1.0  0.90330  0.09980  0.73920  1.0000 0.14642587
H   H35       1.0  0.27420  0.98850  0.83760  1.0000 0.1299995358
H   H36       1.0  0.41640  0.14510  0.81160  1.0000 0.1299995358
C   C1        1.0  0.54660  0.76230  0.94490  1.0000 0.5382569103
C   C2        1.0  0.52150  0.88570  0.97190  1.0000 -0.0196899035
C   C3        1.0  0.41450  0.92340  0.03880  1.0000 -0.1224764728
C   C4        1.0  0.39290  0.03680  0.06660  1.0000 -0.1128111885
C   C5        1.0  0.86040  0.49380  0.68490  1.0000 0.5464052527
C   C6        1.0  0.93230  0.49800  0.58870  1.0000 -0.0196899035
C   C7        1.0  0.94610  0.59610  0.55600  1.0000 -0.1128111885
C   C8        1.0  0.98570  0.40200  0.53170  1.0000 -0.1224764728
C   C9        1.0  0.78190  0.40920  0.95180  1.0000 0.1299995358
C   C10       1.0  0.81480  0.58260  0.03850  1.0000 -0.0678981276
C   C11       1.0  0.86130  0.51850  0.09260  1.0000 -0.0792199553
C   C12       1.0  0.87920  0.31450  0.08010  1.0000 0.1393633044
C   C13       1.0  0.96370  0.23640  0.02550  1.0000 -0.1699702845
C   C14       1.0  0.00570  0.14860  0.06470  1.0000 -0.1778833935
C   C15       1.0  0.96330  0.14290  0.15720  1.0000 0.2330991446
C   C16       1.0  0.87830  0.22070  0.21190  1.0000 -0.1778833935
C   C17       1.0  0.83430  0.30740  0.17260  1.0000 -0.1483360709
C   C18       1.0  0.55980  0.62290  0.18270  1.0000 0.1026730208
C   C19       1.0  0.58490  0.54040  0.30350  1.0000 -0.0551402004
C   C20       1.0  0.67870  0.62870  0.32110  1.0000 -0.0860355379
C   C21       1.0  0.75590  0.78460  0.23770  1.0000 0.1299995358
C   C22       1.0  0.90940  0.79670  0.25920  1.0000 -0.1605683968
C   C23       1.0  0.99360  0.89080  0.24590  1.0000 -0.1891204448
C   C24       1.0  0.92390  0.97120  0.21040  1.0000 0.2394756197
C   C25       1.0  0.77160  0.95790  0.18760  1.0000 -0.2049939366
C   C26       1.0  0.68690  0.86400  0.20240  1.0000 -0.1483360709
C   C27       1.0  0.45340  0.23770  0.05510  1.0000 0.5382569103
C   C28       1.0  0.47850  0.11430  0.02810  1.0000 -0.0196899035
C   C29       1.0  0.58550  0.07660  0.96120  1.0000 -0.1224764728
C   C30       1.0  0.60710  0.96320  0.93340  1.0000 -0.1128111885
C   C31       1.0  0.13960  0.50620  0.31510  1.0000 0.5464052527
C   C32       1.0  0.06770  0.50200  0.41130  1.0000 -0.0196899035
C   C33       1.0  0.05390  0.40390  0.44400  1.0000 -0.1128111885
C   C34       1.0  0.01430  0.59800  0.46830  1.0000 -0.1224764728
C   C35       1.0  0.21810  0.59080  0.04820  1.0000 0.1299995358
C   C36       1.0  0.18520  0.41740  0.96150  1.0000 -0.0678981276
C   C37       1.0  0.13870  0.48150  0.90740  1.0000 -0.0792199553
C   C38       1.0  0.12080  0.68550  0.91990  1.0000 0.1393633044
C   C39       1.0  0.03630  0.76360  0.97450  1.0000 -0.1699702845
C   C40       1.0  0.99430  0.85140  0.93530  1.0000 -0.1778833935
C   C41       1.0  0.03670  0.85710  0.84280  1.0000 0.2330991446
C   C42       1.0  0.12170  0.77930  0.78810  1.0000 -0.1778833935
C   C43       1.0  0.16570  0.69260  0.82740  1.0000 -0.1483360709
C   C44       1.0  0.44020  0.37710  0.81730  1.0000 0.1026730208
C   C45       1.0  0.41510  0.45960  0.69650  1.0000 -0.0551402004
C   C46       1.0  0.32130  0.37130  0.67890  1.0000 -0.0860355379
C   C47       1.0  0.24410  0.21540  0.76230  1.0000 0.1299995358
C   C48       1.0  0.09060  0.20330  0.74080  1.0000 -0.1605683968
C   C49       1.0  0.00640  0.10920  0.75410  1.0000 -0.1891204448
C   C50       1.0  0.07610  0.02880  0.78960  1.0000 0.2394756197
C   C51       1.0  0.22840  0.04210  0.81240  1.0000 -0.2049939366
C   C52       1.0  0.31310  0.13600  0.79760  1.0000 -0.1483360709
N   N1        1.0  0.84280  0.40870  0.04210  1.0000 0.0078285361
N   N2        1.0  0.76390  0.51300  0.94800  1.0000 -0.2808559568
N   N3        1.0  0.66870  0.68490  0.24790  1.0000 0.0041929173
N   N4        1.0  0.50740  0.53680  0.21480  1.0000 -0.2740684183
N   N5        1.0  0.15720  0.59130  0.95790  1.0000 0.0078285361
N   N6        1.0  0.23610  0.48700  0.05200  1.0000 -0.2808559568
N   N7        1.0  0.33130  0.31510  0.75210  1.0000 0.0041929173
N   N8        1.0  0.49260  0.46320  0.78520  1.0000 -0.2740684183
O   O1        1.0  0.63800  0.73330  0.87610  1.0000 -0.5331944705
O   O2        1.0  0.48140  0.69690  0.98750  1.0000 -0.5581415923
O   O3        1.0  0.79180  0.57810  0.72400  1.0000 -0.5331944705
O   O4        1.0  0.87290  0.41210  0.72080  1.0000 -0.565347019
O   O5        1.0  0.01990  0.05990  0.19760  1.0000 -0.2147696347
O   O6        1.0  0.36200  0.26670  0.12390  1.0000 -0.5331944705
O   O7        1.0  0.51860  0.30310  0.01250  1.0000 -0.5581415923
O   O8        1.0  0.20820  0.42190  0.27600  1.0000 -0.5331944705
O   O9        1.0  0.12710  0.58790  0.27920  1.0000 -0.565347019
O   O10       1.0  0.98010  0.94010  0.80240  1.0000 -0.2147696347
