# DDEC6 charges by PACMAN v1.1 (https://github.com/mtap-research/PACMAN-charge/)
data_2020[La][tfz]3[ASR]1
_chemical_formula_sum              "La4 H80 C132 N16 O40"
_cell_length_a       14.0011
_cell_length_b       14.0011
_cell_length_c       28.327
_cell_angle_alpha    89.7933
_cell_angle_beta     90.2067
_cell_angle_gamma    141.419

_symmetry_space_group_name_H-M    "P 1"
_symmetry_Int_Tables_number       1

loop_
  _symmetry_equiv_pos_as_xyz
  'x, y, z'

loop_
  _atom_site_type_symbol
  _atom_site_label
  _atom_site_symmetry_multiplicity
  _atom_site_fract_x
  _atom_site_fract_y
  _atom_site_fract_z
  _atom_site_occupancy
  _atom_site_charge
La  La1       1.0  0.77899  0.75895  0.48388  1.0000 1.8600981904
La  La2       1.0  0.75895  0.77899  0.01612  1.0000 1.8600981904
La  La3       1.0  0.22101  0.24105  0.51612  1.0000 1.8600981904
La  La4       1.0  0.24105  0.22101  0.98388  1.0000 1.8600981904
H   H1        1.0  0.78138  0.10562  0.43311  1.0000 0.1313623219
H   H2        1.0  0.72339  0.19273  0.39035  1.0000 0.1213395441
H   H3        1.0  0.39909  0.79385  0.32138  1.0000 0.1213395441
H   H4        1.0  0.45727  0.70745  0.36649  1.0000 0.1213395441
H   H5        1.0  0.63604  0.04002  0.26221  1.0000 0.1213395441
H   H6        1.0  0.61806  0.03334  0.18117  1.0000 0.1313623219
H   H7        1.0  0.37645  0.08265  0.19179  1.0000 0.1313623219
H   H8        1.0  0.38007  0.07503  0.27224  1.0000 0.1313623219
H   H9        1.0  0.32840  0.96154  0.39209  1.0000 0.1388549206
H   H10       1.0  0.32722  0.09774  0.43752  1.0000 0.1313623219
H   H11       1.0  0.69782  0.47964  0.36967  1.0000 0.1213395441
H   H12       1.0  0.69092  0.33948  0.32135  1.0000 0.1313623219
H   H13       1.0  0.38892  0.16224  0.78751  1.0000 0.1213395441
H   H14       1.0  0.58889  0.42733  0.79167  1.0000 0.1213395441
H   H15       1.0  0.42845  0.43521  0.67588  1.0000 0.1213395441
H   H16       1.0  0.22847  0.17011  0.67173  1.0000 0.1388549206
H   H17       1.0  0.64810  0.56332  0.66552  1.0000 0.145475067
H   H18       1.0  0.79066  0.90720  0.73582  1.0000 0.1213395441
H   H19       1.0  0.93438  0.06608  0.67086  1.0000 0.1213395441
H   H20       1.0  0.79182  0.72220  0.60055  1.0000 0.1213395441
H   H21       1.0  0.10562  0.78138  0.06689  1.0000 0.1313623219
H   H22       1.0  0.19273  0.72339  0.10965  1.0000 0.1213395441
H   H23       1.0  0.79385  0.39909  0.17862  1.0000 0.1213395441
H   H24       1.0  0.70745  0.45727  0.13351  1.0000 0.1213395441
H   H25       1.0  0.04002  0.63604  0.23779  1.0000 0.1213395441
H   H26       1.0  0.03334  0.61806  0.31883  1.0000 0.1313623219
H   H27       1.0  0.08265  0.37645  0.30821  1.0000 0.1313623219
H   H28       1.0  0.07503  0.38007  0.22776  1.0000 0.1313623219
H   H29       1.0  0.96154  0.32840  0.10791  1.0000 0.1388549206
H   H30       1.0  0.09774  0.32722  0.06248  1.0000 0.1313623219
H   H31       1.0  0.47964  0.69782  0.13033  1.0000 0.1213395441
H   H32       1.0  0.33948  0.69092  0.17865  1.0000 0.1313623219
H   H33       1.0  0.16224  0.38892  0.71249  1.0000 0.1213395441
H   H34       1.0  0.42733  0.58889  0.70833  1.0000 0.1213395441
H   H35       1.0  0.43521  0.42845  0.82412  1.0000 0.1213395441
H   H36       1.0  0.17011  0.22847  0.82827  1.0000 0.1388549206
H   H37       1.0  0.56332  0.64810  0.83448  1.0000 0.145475067
H   H38       1.0  0.90720  0.79066  0.76418  1.0000 0.1213395441
H   H39       1.0  0.06608  0.93438  0.82914  1.0000 0.1213395441
H   H40       1.0  0.72220  0.79182  0.89945  1.0000 0.1213395441
H   H41       1.0  0.21862  0.89438  0.56689  1.0000 0.1313623219
H   H42       1.0  0.27661  0.80727  0.60965  1.0000 0.1213395441
H   H43       1.0  0.60091  0.20615  0.67862  1.0000 0.1213395441
H   H44       1.0  0.54273  0.29255  0.63351  1.0000 0.1213395441
H   H45       1.0  0.36396  0.95998  0.73779  1.0000 0.1213395441
H   H46       1.0  0.38194  0.96666  0.81883  1.0000 0.1313623219
H   H47       1.0  0.62355  0.91735  0.80821  1.0000 0.1313623219
H   H48       1.0  0.61993  0.92497  0.72776  1.0000 0.1313623219
H   H49       1.0  0.67160  0.03846  0.60791  1.0000 0.1388549206
H   H50       1.0  0.67278  0.90226  0.56248  1.0000 0.1313623219
H   H51       1.0  0.30218  0.52036  0.63033  1.0000 0.1213395441
H   H52       1.0  0.30908  0.66052  0.67865  1.0000 0.1313623219
H   H53       1.0  0.61108  0.83776  0.21249  1.0000 0.1213395441
H   H54       1.0  0.41111  0.57267  0.20833  1.0000 0.1213395441
H   H55       1.0  0.57155  0.56479  0.32412  1.0000 0.1213395441
H   H56       1.0  0.77153  0.82989  0.32827  1.0000 0.1388549206
H   H57       1.0  0.35190  0.43668  0.33448  1.0000 0.145475067
H   H58       1.0  0.20934  0.09280  0.26418  1.0000 0.1213395441
H   H59       1.0  0.06562  0.93392  0.32914  1.0000 0.1213395441
H   H60       1.0  0.20818  0.27780  0.39945  1.0000 0.1213395441
H   H61       1.0  0.89438  0.21862  0.93311  1.0000 0.1313623219
H   H62       1.0  0.80727  0.27661  0.89035  1.0000 0.1213395441
H   H63       1.0  0.20615  0.60091  0.82138  1.0000 0.1213395441
H   H64       1.0  0.29255  0.54273  0.86649  1.0000 0.1213395441
H   H65       1.0  0.95998  0.36396  0.76221  1.0000 0.1213395441
H   H66       1.0  0.96666  0.38194  0.68117  1.0000 0.1313623219
H   H67       1.0  0.91735  0.62355  0.69179  1.0000 0.1313623219
H   H68       1.0  0.92497  0.61993  0.77224  1.0000 0.1313623219
H   H69       1.0  0.03846  0.67160  0.89209  1.0000 0.1388549206
H   H70       1.0  0.90226  0.67278  0.93752  1.0000 0.1313623219
H   H71       1.0  0.52036  0.30218  0.86967  1.0000 0.1213395441
H   H72       1.0  0.66052  0.30908  0.82135  1.0000 0.1313623219
H   H73       1.0  0.83776  0.61108  0.28751  1.0000 0.1213395441
H   H74       1.0  0.57267  0.41111  0.29167  1.0000 0.1213395441
H   H75       1.0  0.56479  0.57155  0.17588  1.0000 0.1213395441
H   H76       1.0  0.82989  0.77153  0.17173  1.0000 0.1388549206
H   H77       1.0  0.43668  0.35190  0.16552  1.0000 0.145475067
H   H78       1.0  0.09280  0.20934  0.23582  1.0000 0.1213395441
H   H79       1.0  0.93392  0.06562  0.17086  1.0000 0.1213395441
H   H80       1.0  0.27780  0.20818  0.10055  1.0000 0.1213395441
C   C1        1.0  0.66430  0.84230  0.43290  1.0000 0.5633655263
C   C2        1.0  0.62460  0.89780  0.40380  1.0000 -0.0187118978
C   C3        1.0  0.70340  0.04240  0.41070  1.0000 -0.0707137643
C   C4        1.0  0.66880  0.09400  0.38520  1.0000 -0.1792730337
C   C5        1.0  0.55080  0.00080  0.35090  1.0000 0.1872429026
C   C6        1.0  0.47550  0.85750  0.34420  1.0000 -0.1988044905
C   C7        1.0  0.51140  0.80620  0.37100  1.0000 -0.0898557829
C   C8        1.0  0.50820  0.05640  0.27550  1.0000 0.1802492884
C   C9        1.0  0.58150  0.04650  0.24790  1.0000 -0.1714722312
C   C10       1.0  0.57320  0.04480  0.20000  1.0000 -0.1288842617
C   C11       1.0  0.49910  0.06090  0.18100  1.0000 0.0371350904
C   C12       1.0  0.42750  0.07250  0.20670  1.0000 -0.1061846672
C   C13       1.0  0.43040  0.06900  0.25410  1.0000 -0.1608588512
C   C14       1.0  0.51070  0.14010  0.35180  1.0000 0.1731586231
C   C15       1.0  0.40190  0.06610  0.38710  1.0000 -0.1714722312
C   C16       1.0  0.40320  0.14860  0.41500  1.0000 -0.0612314551
C   C17       1.0  0.51510  0.30390  0.40960  1.0000 -0.0707137643
C   C18       1.0  0.62210  0.37470  0.37430  1.0000 -0.0790225195
C   C19       1.0  0.61850  0.29050  0.34510  1.0000 -0.1880167874
C   C20       1.0  0.52370  0.39430  0.44020  1.0000 0.6132814956
C   C21       1.0  0.96890  0.00350  0.58890  1.0000 0.5872340275
C   C22       1.0  0.39680  0.21700  0.76510  1.0000 -0.1288842617
C   C23       1.0  0.51660  0.37580  0.76760  1.0000 -0.1880167874
C   C24       1.0  0.52850  0.45750  0.73420  1.0000 0.081652153
C   C25       1.0  0.42050  0.38050  0.69830  1.0000 -0.1608588512
C   C26       1.0  0.30070  0.22170  0.69580  1.0000 -0.1042548681
C   C27       1.0  0.28890  0.13990  0.72920  1.0000 0.048688594
C   C28       1.0  0.70550  0.66410  0.66667  1.0000 -0.2626340541
C   C29       1.0  0.70510  0.71950  0.70710  1.0000 0.1802492884
C   C30       1.0  0.79090  0.87010  0.70870  1.0000 -0.2626340541
C   C31       1.0  0.87700  0.96540  0.66980  1.0000 -0.0510125666
C   C32       1.0  0.87730  0.90990  0.62930  1.0000 -0.0790225195
C   C33       1.0  0.79160  0.75920  0.62770  1.0000 -0.0612314551
C   C34       1.0  0.84230  0.66430  0.06710  1.0000 0.5633655263
C   C35       1.0  0.89780  0.62460  0.09620  1.0000 -0.0187118978
C   C36       1.0  0.04240  0.70340  0.08930  1.0000 -0.0707137643
C   C37       1.0  0.09400  0.66880  0.11480  1.0000 -0.1792730337
C   C38       1.0  0.00080  0.55080  0.14910  1.0000 0.1872429026
C   C39       1.0  0.85750  0.47550  0.15580  1.0000 -0.1988044905
C   C40       1.0  0.80620  0.51140  0.12900  1.0000 -0.0898557829
C   C41       1.0  0.05640  0.50820  0.22450  1.0000 0.1802492884
C   C42       1.0  0.04650  0.58150  0.25210  1.0000 -0.1714722312
C   C43       1.0  0.04480  0.57320  0.30000  1.0000 -0.1288842617
C   C44       1.0  0.06090  0.49910  0.31900  1.0000 0.0371350904
C   C45       1.0  0.07250  0.42750  0.29330  1.0000 -0.1061846672
C   C46       1.0  0.06900  0.43040  0.24590  1.0000 -0.1608588512
C   C47       1.0  0.14010  0.51070  0.14820  1.0000 0.1731586231
C   C48       1.0  0.06610  0.40190  0.11290  1.0000 -0.1714722312
C   C49       1.0  0.14860  0.40320  0.08500  1.0000 -0.0612314551
C   C50       1.0  0.30390  0.51510  0.09040  1.0000 -0.0707137643
C   C51       1.0  0.37470  0.62210  0.12570  1.0000 -0.0790225195
C   C52       1.0  0.29050  0.61850  0.15490  1.0000 -0.1880167874
C   C53       1.0  0.39430  0.52370  0.05980  1.0000 0.6132814956
C   C54       1.0  0.00350  0.96890  0.91110  1.0000 0.5872340275
C   C55       1.0  0.21700  0.39680  0.73490  1.0000 -0.1288842617
C   C56       1.0  0.37580  0.51660  0.73240  1.0000 -0.1880167874
C   C57       1.0  0.45750  0.52850  0.76580  1.0000 0.081652153
C   C58       1.0  0.38050  0.42050  0.80170  1.0000 -0.1608588512
C   C59       1.0  0.22170  0.30070  0.80420  1.0000 -0.1042548681
C   C60       1.0  0.13990  0.28890  0.77080  1.0000 0.048688594
C   C61       1.0  0.66410  0.70550  0.83333  1.0000 -0.2626340541
C   C62       1.0  0.71950  0.70510  0.79290  1.0000 0.1802492884
C   C63       1.0  0.87010  0.79090  0.79130  1.0000 -0.2626340541
C   C64       1.0  0.96540  0.87700  0.83020  1.0000 -0.0510125666
C   C65       1.0  0.90990  0.87730  0.87070  1.0000 -0.0790225195
C   C66       1.0  0.75920  0.79160  0.87230  1.0000 -0.0612314551
C   C67       1.0  0.33570  0.15770  0.56710  1.0000 0.5633655263
C   C68       1.0  0.37540  0.10220  0.59620  1.0000 -0.0187118978
C   C69       1.0  0.29660  0.95760  0.58930  1.0000 -0.0707137643
C   C70       1.0  0.33120  0.90600  0.61480  1.0000 -0.1792730337
C   C71       1.0  0.44920  0.99920  0.64910  1.0000 0.1872429026
C   C72       1.0  0.52450  0.14250  0.65580  1.0000 -0.1988044905
C   C73       1.0  0.48860  0.19380  0.62900  1.0000 -0.0898557829
C   C74       1.0  0.49180  0.94360  0.72450  1.0000 0.1802492884
C   C75       1.0  0.41850  0.95350  0.75210  1.0000 -0.1714722312
C   C76       1.0  0.42680  0.95520  0.80000  1.0000 -0.1288842617
C   C77       1.0  0.50090  0.93910  0.81900  1.0000 0.0371350904
C   C78       1.0  0.57250  0.92750  0.79330  1.0000 -0.1061846672
C   C79       1.0  0.56960  0.93100  0.74590  1.0000 -0.1608588512
C   C80       1.0  0.48930  0.85990  0.64820  1.0000 0.1731586231
C   C81       1.0  0.59810  0.93390  0.61290  1.0000 -0.1714722312
C   C82       1.0  0.59680  0.85140  0.58500  1.0000 -0.0612314551
C   C83       1.0  0.48490  0.69610  0.59040  1.0000 -0.0707137643
C   C84       1.0  0.37790  0.62530  0.62570  1.0000 -0.0790225195
C   C85       1.0  0.38150  0.70950  0.65490  1.0000 -0.1880167874
C   C86       1.0  0.47630  0.60570  0.55980  1.0000 0.6132814956
C   C87       1.0  0.03110  0.99650  0.41110  1.0000 0.5872340275
C   C88       1.0  0.60320  0.78300  0.23490  1.0000 -0.1288842617
C   C89       1.0  0.48340  0.62420  0.23240  1.0000 -0.1880167874
C   C90       1.0  0.47150  0.54250  0.26580  1.0000 0.081652153
C   C91       1.0  0.57950  0.61950  0.30170  1.0000 -0.1608588512
C   C92       1.0  0.69930  0.77830  0.30420  1.0000 -0.1042548681
C   C93       1.0  0.71110  0.86010  0.27080  1.0000 0.048688594
C   C94       1.0  0.29450  0.33590  0.33333  1.0000 -0.2626340541
C   C95       1.0  0.29490  0.28050  0.29290  1.0000 0.1802492884
C   C96       1.0  0.20910  0.12990  0.29130  1.0000 -0.2626340541
C   C97       1.0  0.12300  0.03460  0.33020  1.0000 -0.0510125666
C   C98       1.0  0.12270  0.09010  0.37070  1.0000 -0.0790225195
C   C99       1.0  0.20840  0.24080  0.37230  1.0000 -0.0612314551
C   C100      1.0  0.15770  0.33570  0.93290  1.0000 0.5633655263
C   C101      1.0  0.10220  0.37540  0.90380  1.0000 -0.0187118978
C   C102      1.0  0.95760  0.29660  0.91070  1.0000 -0.0707137643
C   C103      1.0  0.90600  0.33120  0.88520  1.0000 -0.1792730337
C   C104      1.0  0.99920  0.44920  0.85090  1.0000 0.1872429026
C   C105      1.0  0.14250  0.52450  0.84420  1.0000 -0.1988044905
C   C106      1.0  0.19380  0.48860  0.87100  1.0000 -0.0898557829
C   C107      1.0  0.94360  0.49180  0.77550  1.0000 0.1802492884
C   C108      1.0  0.95350  0.41850  0.74790  1.0000 -0.1714722312
C   C109      1.0  0.95520  0.42680  0.70000  1.0000 -0.1288842617
C   C110      1.0  0.93910  0.50090  0.68100  1.0000 0.0371350904
C   C111      1.0  0.92750  0.57250  0.70670  1.0000 -0.1061846672
C   C112      1.0  0.93100  0.56960  0.75410  1.0000 -0.1608588512
C   C113      1.0  0.85990  0.48930  0.85180  1.0000 0.1731586231
C   C114      1.0  0.93390  0.59810  0.88710  1.0000 -0.1714722312
C   C115      1.0  0.85140  0.59680  0.91500  1.0000 -0.0612314551
C   C116      1.0  0.69610  0.48490  0.90960  1.0000 -0.0707137643
C   C117      1.0  0.62530  0.37790  0.87430  1.0000 -0.0790225195
C   C118      1.0  0.70950  0.38150  0.84510  1.0000 -0.1880167874
C   C119      1.0  0.60570  0.47630  0.94020  1.0000 0.6132814956
C   C120      1.0  0.99650  0.03110  0.08890  1.0000 0.5872340275
C   C121      1.0  0.78300  0.60320  0.26510  1.0000 -0.1288842617
C   C122      1.0  0.62420  0.48340  0.26760  1.0000 -0.1880167874
C   C123      1.0  0.54250  0.47150  0.23420  1.0000 0.081652153
C   C124      1.0  0.61950  0.57950  0.19830  1.0000 -0.1608588512
C   C125      1.0  0.77830  0.69930  0.19580  1.0000 -0.1042548681
C   C126      1.0  0.86010  0.71110  0.22920  1.0000 0.048688594
C   C127      1.0  0.33590  0.29450  0.16667  1.0000 -0.2626340541
C   C128      1.0  0.28050  0.29490  0.20710  1.0000 0.1802492884
C   C129      1.0  0.12990  0.20910  0.20870  1.0000 -0.2626340541
C   C130      1.0  0.03460  0.12300  0.16980  1.0000 -0.0510125666
C   C131      1.0  0.09010  0.12270  0.12930  1.0000 -0.0790225195
C   C132      1.0  0.24080  0.20840  0.12770  1.0000 -0.0612314551
N   N1        1.0  0.51310  0.05510  0.32530  1.0000 -0.1792730337
N   N2        1.0  0.17310  0.98290  0.72680  1.0000 0.4735287798
N   N3        1.0  0.49750  0.06250  0.12660  1.0000 0.4978418422
N   N4        1.0  0.65850  0.61750  0.73950  1.0000 0.0709470918
N   N5        1.0  0.05510  0.51310  0.17470  1.0000 -0.1792730337
N   N6        1.0  0.98290  0.17310  0.77320  1.0000 0.4735287798
N   N7        1.0  0.06250  0.49750  0.37340  1.0000 0.4978418422
N   N8        1.0  0.61750  0.65850  0.76050  1.0000 0.0709470918
N   N9        1.0  0.48690  0.94490  0.67470  1.0000 -0.1792730337
N   N10       1.0  0.82690  0.01710  0.27320  1.0000 0.4735287798
N   N11       1.0  0.50250  0.93750  0.87340  1.0000 0.4978418422
N   N12       1.0  0.34150  0.38250  0.26050  1.0000 0.0709470918
N   N13       1.0  0.94490  0.48690  0.82530  1.0000 -0.1792730337
N   N14       1.0  0.01710  0.82690  0.22680  1.0000 0.4735287798
N   N15       1.0  0.93750  0.50250  0.62660  1.0000 0.4978418422
N   N16       1.0  0.38250  0.34150  0.23950  1.0000 0.0709470918
O   O1        1.0  0.77210  0.93210  0.46180  1.0000 -0.5786245393
O   O2        1.0  0.59360  0.70940  0.42700  1.0000 -0.586703934
O   O3        1.0  0.55300  0.04700  0.10520  1.0000 -0.2784911098
O   O4        1.0  0.43750  0.08970  0.11070  1.0000 -0.3400927263
O   O5        1.0  0.64040  0.53460  0.43820  1.0000 -0.5691552687
O   O6        1.0  0.41570  0.33210  0.46620  1.0000 -0.6118951219
O   O7        1.0  0.94220  0.95260  0.54740  1.0000 -0.6806802081
O   O8        1.0  0.08740  0.14900  0.59540  1.0000 -0.5987926053
O   O9        1.0  0.08230  0.91370  0.69330  1.0000 -0.3291494998
O   O10       1.0  0.15120  0.90880  0.76000  1.0000 -0.3541435155
O   O11       1.0  0.93210  0.77210  0.03820  1.0000 -0.5786245393
O   O12       1.0  0.70940  0.59360  0.07300  1.0000 -0.586703934
O   O13       1.0  0.04700  0.55300  0.39480  1.0000 -0.2784911098
O   O14       1.0  0.08970  0.43750  0.38930  1.0000 -0.3400927263
O   O15       1.0  0.53460  0.64040  0.06180  1.0000 -0.5691552687
O   O16       1.0  0.33210  0.41570  0.03380  1.0000 -0.6118951219
O   O17       1.0  0.95260  0.94220  0.95260  1.0000 -0.6806802081
O   O18       1.0  0.14900  0.08740  0.90460  1.0000 -0.5987926053
O   O19       1.0  0.91370  0.08230  0.80670  1.0000 -0.3291494998
O   O20       1.0  0.90880  0.15120  0.74000  1.0000 -0.3541435155
O   O21       1.0  0.22790  0.06790  0.53820  1.0000 -0.5786245393
O   O22       1.0  0.40640  0.29060  0.57300  1.0000 -0.586703934
O   O23       1.0  0.44700  0.95300  0.89480  1.0000 -0.2784911098
O   O24       1.0  0.56250  0.91030  0.88930  1.0000 -0.3400927263
O   O25       1.0  0.35960  0.46540  0.56180  1.0000 -0.5691552687
O   O26       1.0  0.58430  0.66790  0.53380  1.0000 -0.6118951219
O   O27       1.0  0.05780  0.04740  0.45260  1.0000 -0.6806802081
O   O28       1.0  0.91260  0.85100  0.40460  1.0000 -0.5987926053
O   O29       1.0  0.91770  0.08630  0.30670  1.0000 -0.3291494998
O   O30       1.0  0.84880  0.09120  0.24000  1.0000 -0.3541435155
O   O31       1.0  0.06790  0.22790  0.96180  1.0000 -0.5786245393
O   O32       1.0  0.29060  0.40640  0.92700  1.0000 -0.586703934
O   O33       1.0  0.95300  0.44700  0.60520  1.0000 -0.2784911098
O   O34       1.0  0.91030  0.56250  0.61070  1.0000 -0.3400927263
O   O35       1.0  0.46540  0.35960  0.93820  1.0000 -0.5691552687
O   O36       1.0  0.66790  0.58430  0.96620  1.0000 -0.6118951219
O   O37       1.0  0.04740  0.05780  0.04740  1.0000 -0.6806802081
O   O38       1.0  0.85100  0.91260  0.09540  1.0000 -0.5987926053
O   O39       1.0  0.08630  0.91770  0.19330  1.0000 -0.3291494998
O   O40       1.0  0.09120  0.84880  0.26000  1.0000 -0.3541435155
