# DDEC6 charges by PACMAN v1.1 (https://github.com/mtap-research/PACMAN-charge/)
data_2020[Zn][nan]3[ASR]61
_chemical_formula_sum              "Zn12 H144 C240 N32 O48"
_cell_length_a       23.001
_cell_length_b       8.11
_cell_length_c       45.3045
_cell_angle_alpha    90
_cell_angle_beta     118.887
_cell_angle_gamma    90

_symmetry_space_group_name_H-M    "P 1"
_symmetry_Int_Tables_number       1

loop_
  _symmetry_equiv_pos_as_xyz
  'x, y, z'

loop_
  _atom_site_type_symbol
  _atom_site_label
  _atom_site_symmetry_multiplicity
  _atom_site_fract_x
  _atom_site_fract_y
  _atom_site_fract_z
  _atom_site_occupancy
  _atom_site_charge
Zn  Zn1       1.0  0.00902  0.13895  0.94819  1.0000 0.8092226202
Zn  Zn2       1.0  0.40469  0.76719  0.79168  1.0000 0.8321725021
Zn  Zn3       1.0  0.72798  0.97493  0.10534  1.0000 0.8092226202
Zn  Zn4       1.0  0.00902  0.36105  0.44819  1.0000 0.8092226202
Zn  Zn5       1.0  0.40469  0.73281  0.29168  1.0000 0.8321725021
Zn  Zn6       1.0  0.72798  0.52507  0.60534  1.0000 0.8092226202
Zn  Zn7       1.0  0.99098  0.63895  0.55181  1.0000 0.8092226202
Zn  Zn8       1.0  0.59531  0.26719  0.70832  1.0000 0.8321725021
Zn  Zn9       1.0  0.27202  0.47493  0.39466  1.0000 0.8092226202
Zn  Zn10      1.0  0.99098  0.86105  0.05181  1.0000 0.8092226202
Zn  Zn11      1.0  0.59531  0.23281  0.20832  1.0000 0.8321725021
Zn  Zn12      1.0  0.27202  0.02507  0.89466  1.0000 0.8092226202
H   H1        1.0  0.96710  0.19060  0.83980  1.0000 0.1200125599
H   H2        1.0  0.98110  0.27670  0.79490  1.0000 0.1200125599
H   H3        1.0  0.11290  0.61820  0.85410  1.0000 0.137481532
H   H4        1.0  0.09860  0.53340  0.89880  1.0000 0.1281798914
H   H5        1.0  0.93580  0.58960  0.76920  1.0000 0.1281798914
H   H6        1.0  0.85040  0.59400  0.71410  1.0000 0.1281798914
H   H7        1.0  0.97170  0.40040  0.68280  1.0000 0.1200125599
H   H8        1.0  0.05840  0.40390  0.73750  1.0000 0.1281798914
H   H9        1.0  0.17030  0.35040  0.83330  1.0000 0.1281798914
H   H10       1.0  0.10220  0.72030  0.76630  1.0000 0.1200125599
H   H11       1.0  0.20640  0.74750  0.77100  1.0000 0.1200125599
H   H12       1.0  0.27410  0.37910  0.83840  1.0000 0.137481532
H   H13       1.0  0.20230  0.64910  0.49750  1.0000 0.1200125599
H   H14       1.0  0.32820  0.84170  0.68460  1.0000 0.1200125599
H   H15       1.0  0.30780  0.83490  0.62900  1.0000 0.1200125599
H   H16       1.0  0.45880  0.51470  0.65620  1.0000 0.1200125599
H   H17       1.0  0.47540  0.51570  0.71060  1.0000 0.1200125599
H   H18       1.0  0.28110  0.48290  0.60830  1.0000 0.1200125599
H   H19       1.0  0.17740  0.39800  0.56720  1.0000 0.1200125599
H   H20       1.0  0.30320  0.74390  0.53890  1.0000 0.1281798914
H   H21       1.0  0.38090  0.49590  0.55780  1.0000 0.1200125599
H   H22       1.0  0.47200  0.46360  0.55000  1.0000 0.1200125599
H   H23       1.0  0.57680  0.77390  0.62690  1.0000 0.1281798914
H   H24       1.0  0.48430  0.81540  0.63320  1.0000 0.1281798914
H   H25       1.0  0.64380  0.92430  0.03510  1.0000 0.1281798914
H   H26       1.0  0.64070  0.81660  0.98790  1.0000 0.137481532
H   H27       1.0  0.83240  0.69210  0.04320  1.0000 0.1506266298
H   H28       1.0  0.82990  0.80450  0.08940  1.0000 0.1200125599
H   H29       1.0  0.55310  0.68600  0.91280  1.0000 0.137481532
H   H30       1.0  0.45560  0.72780  0.86340  1.0000 0.1200125599
H   H31       1.0  0.54550  0.65700  0.80990  1.0000 0.1281798914
H   H32       1.0  0.64690  0.62400  0.85800  1.0000 0.137481532
H   H33       1.0  0.97810  0.29390  0.00080  1.0000 0.1200125599
H   H34       1.0  0.89410  0.44250  0.00230  1.0000 0.1506266298
H   H35       1.0  0.80610  0.47880  0.90130  1.0000 0.137481532
H   H36       1.0  0.89380  0.33120  0.90320  1.0000 0.1200125599
H   H37       1.0  0.96710  0.30940  0.33980  1.0000 0.1200125599
H   H38       1.0  0.98110  0.22330  0.29490  1.0000 0.1200125599
H   H39       1.0  0.11290  0.88180  0.35410  1.0000 0.137481532
H   H40       1.0  0.09860  0.96660  0.39880  1.0000 0.1281798914
H   H41       1.0  0.93580  0.91040  0.26920  1.0000 0.1281798914
H   H42       1.0  0.85040  0.90600  0.21410  1.0000 0.1281798914
H   H43       1.0  0.97170  0.09960  0.18280  1.0000 0.1200125599
H   H44       1.0  0.05840  0.09610  0.23750  1.0000 0.1281798914
H   H45       1.0  0.17030  0.14960  0.33333  1.0000 0.1281798914
H   H46       1.0  0.10220  0.77970  0.26630  1.0000 0.1200125599
H   H47       1.0  0.20640  0.75250  0.27100  1.0000 0.1200125599
H   H48       1.0  0.27410  0.12090  0.33840  1.0000 0.137481532
H   H49       1.0  0.20230  0.85090  0.99750  1.0000 0.1200125599
H   H50       1.0  0.32820  0.65830  0.18460  1.0000 0.1200125599
H   H51       1.0  0.30780  0.66510  0.12900  1.0000 0.1200125599
H   H52       1.0  0.45880  0.98530  0.15620  1.0000 0.1200125599
H   H53       1.0  0.47540  0.98430  0.21060  1.0000 0.1200125599
H   H54       1.0  0.28110  0.01710  0.10830  1.0000 0.1200125599
H   H55       1.0  0.17740  0.10200  0.06720  1.0000 0.1200125599
H   H56       1.0  0.30320  0.75610  0.03890  1.0000 0.1281798914
H   H57       1.0  0.38090  0.00410  0.05780  1.0000 0.1200125599
H   H58       1.0  0.47200  0.03640  0.05000  1.0000 0.1200125599
H   H59       1.0  0.57680  0.72610  0.12690  1.0000 0.1281798914
H   H60       1.0  0.48430  0.68460  0.13320  1.0000 0.1281798914
H   H61       1.0  0.64380  0.57570  0.53510  1.0000 0.1281798914
H   H62       1.0  0.64070  0.68340  0.48790  1.0000 0.137481532
H   H63       1.0  0.83240  0.80790  0.54320  1.0000 0.1506266298
H   H64       1.0  0.82990  0.69550  0.58940  1.0000 0.1200125599
H   H65       1.0  0.55310  0.81400  0.41280  1.0000 0.137481532
H   H66       1.0  0.45560  0.77220  0.36340  1.0000 0.1200125599
H   H67       1.0  0.54550  0.84300  0.30990  1.0000 0.1200125599
H   H68       1.0  0.64690  0.87600  0.35800  1.0000 0.137481532
H   H69       1.0  0.97810  0.20610  0.50080  1.0000 0.1200125599
H   H70       1.0  0.89410  0.05750  0.50230  1.0000 0.1506266298
H   H71       1.0  0.80610  0.02120  0.40130  1.0000 0.137481532
H   H72       1.0  0.89380  0.16880  0.40320  1.0000 0.1200125599
H   H73       1.0  0.03290  0.69060  0.66020  1.0000 0.1200125599
H   H74       1.0  0.01890  0.77670  0.70510  1.0000 0.1200125599
H   H75       1.0  0.88710  0.11820  0.64590  1.0000 0.137481532
H   H76       1.0  0.90140  0.03340  0.60120  1.0000 0.1281798914
H   H77       1.0  0.06420  0.08960  0.73080  1.0000 0.1281798914
H   H78       1.0  0.14960  0.09400  0.78590  1.0000 0.1281798914
H   H79       1.0  0.02830  0.90040  0.81720  1.0000 0.1200125599
H   H80       1.0  0.94160  0.90390  0.76250  1.0000 0.1281798914
H   H81       1.0  0.82970  0.85040  0.66667  1.0000 0.1281798914
H   H82       1.0  0.89780  0.22030  0.73370  1.0000 0.1200125599
H   H83       1.0  0.79360  0.24750  0.72900  1.0000 0.1200125599
H   H84       1.0  0.72590  0.87910  0.66160  1.0000 0.137481532
H   H85       1.0  0.79770  0.14910  0.00250  1.0000 0.1200125599
H   H86       1.0  0.67180  0.34170  0.81540  1.0000 0.1200125599
H   H87       1.0  0.69220  0.33490  0.87100  1.0000 0.1200125599
H   H88       1.0  0.54120  0.01470  0.84380  1.0000 0.1200125599
H   H89       1.0  0.52460  0.01570  0.78940  1.0000 0.1200125599
H   H90       1.0  0.71890  0.98290  0.89170  1.0000 0.1200125599
H   H91       1.0  0.82260  0.89800  0.93280  1.0000 0.1200125599
H   H92       1.0  0.69680  0.24390  0.96110  1.0000 0.1281798914
H   H93       1.0  0.61910  0.99590  0.94220  1.0000 0.1200125599
H   H94       1.0  0.52800  0.96360  0.95000  1.0000 0.1200125599
H   H95       1.0  0.42320  0.27390  0.87310  1.0000 0.1281798914
H   H96       1.0  0.51570  0.31540  0.86680  1.0000 0.1281798914
H   H97       1.0  0.35620  0.42430  0.46490  1.0000 0.1281798914
H   H98       1.0  0.35930  0.31660  0.51210  1.0000 0.137481532
H   H99       1.0  0.16760  0.19210  0.45680  1.0000 0.1506266298
H   H100      1.0  0.17010  0.30450  0.41060  1.0000 0.1200125599
H   H101      1.0  0.44690  0.18600  0.58720  1.0000 0.137481532
H   H102      1.0  0.54440  0.22780  0.63660  1.0000 0.1200125599
H   H103      1.0  0.45450  0.15700  0.69010  1.0000 0.1281798914
H   H104      1.0  0.35310  0.12400  0.64200  1.0000 0.137481532
H   H105      1.0  0.02190  0.79390  0.49920  1.0000 0.1200125599
H   H106      1.0  0.10590  0.94250  0.49770  1.0000 0.1506266298
H   H107      1.0  0.19390  0.97880  0.59870  1.0000 0.137481532
H   H108      1.0  0.10620  0.83120  0.59680  1.0000 0.1200125599
H   H109      1.0  0.03290  0.80940  0.16020  1.0000 0.1200125599
H   H110      1.0  0.01890  0.72330  0.20510  1.0000 0.1200125599
H   H111      1.0  0.88710  0.38180  0.14590  1.0000 0.137481532
H   H112      1.0  0.90140  0.46660  0.10120  1.0000 0.1281798914
H   H113      1.0  0.06420  0.41040  0.23080  1.0000 0.1281798914
H   H114      1.0  0.14960  0.40600  0.28590  1.0000 0.1281798914
H   H115      1.0  0.02830  0.59960  0.31720  1.0000 0.1200125599
H   H116      1.0  0.94160  0.59610  0.26250  1.0000 0.1281798914
H   H117      1.0  0.82970  0.64960  0.16670  1.0000 0.1281798914
H   H118      1.0  0.89780  0.27970  0.23370  1.0000 0.1200125599
H   H119      1.0  0.79360  0.25250  0.22900  1.0000 0.1200125599
H   H120      1.0  0.72590  0.62090  0.16160  1.0000 0.137481532
H   H121      1.0  0.79770  0.35090  0.50250  1.0000 0.1200125599
H   H122      1.0  0.67180  0.15830  0.31540  1.0000 0.1200125599
H   H123      1.0  0.69220  0.16510  0.37100  1.0000 0.1200125599
H   H124      1.0  0.54120  0.48530  0.34380  1.0000 0.1200125599
H   H125      1.0  0.52460  0.48430  0.28940  1.0000 0.1200125599
H   H126      1.0  0.71890  0.51710  0.39170  1.0000 0.1200125599
H   H127      1.0  0.82260  0.60200  0.43280  1.0000 0.1200125599
H   H128      1.0  0.69680  0.25610  0.46110  1.0000 0.1281798914
H   H129      1.0  0.61910  0.50410  0.44220  1.0000 0.1200125599
H   H130      1.0  0.52800  0.53640  0.45000  1.0000 0.1200125599
H   H131      1.0  0.42320  0.22610  0.37310  1.0000 0.1281798914
H   H132      1.0  0.51570  0.18460  0.36680  1.0000 0.1281798914
H   H133      1.0  0.35620  0.07570  0.96490  1.0000 0.1281798914
H   H134      1.0  0.35930  0.18340  0.01210  1.0000 0.137481532
H   H135      1.0  0.16760  0.30790  0.95680  1.0000 0.1506266298
H   H136      1.0  0.17010  0.19550  0.91060  1.0000 0.1200125599
H   H137      1.0  0.44690  0.31400  0.08720  1.0000 0.137481532
H   H138      1.0  0.54440  0.27220  0.13660  1.0000 0.1200125599
H   H139      1.0  0.45450  0.34300  0.19010  1.0000 0.1200125599
H   H140      1.0  0.35310  0.37600  0.14200  1.0000 0.137481532
H   H141      1.0  0.02190  0.70610  0.99920  1.0000 0.1200125599
H   H142      1.0  0.10590  0.55750  0.99770  1.0000 0.1506266298
H   H143      1.0  0.19390  0.52120  0.09870  1.0000 0.137481532
H   H144      1.0  0.10620  0.66880  0.09680  1.0000 0.1200125599
C   C1        1.0  0.02383  0.29370  0.90321  1.0000 0.5457849394
C   C2        1.0  0.03205  0.35220  0.87429  1.0000 -0.038675524
C   C3        1.0  0.99641  0.27580  0.84270  1.0000 -0.0807528984
C   C4        1.0  0.00499  0.32740  0.81576  1.0000 -0.1900668378
C   C5        1.0  0.04908  0.45410  0.81976  1.0000 0.1887554175
C   C6        1.0  0.08392  0.53210  0.85126  1.0000 -0.18183148
C   C7        1.0  0.07527  0.48110  0.87805  1.0000 -0.0807528984
C   C8        1.0  0.00603  0.49930  0.75921  1.0000 0.1807185135
C   C9        1.0  0.94352  0.55370  0.75192  1.0000 -0.1995001787
C   C10       1.0  0.89203  0.55510  0.71885  1.0000 -0.0904714663
C   C11       1.0  0.90259  0.49860  0.69294  1.0000 -0.038675524
C   C12       1.0  0.96479  0.44030  0.70009  1.0000 -0.0904714663
C   C13       1.0  0.01665  0.44130  0.73285  1.0000 -0.1995001787
C   C14       1.0  0.84753  0.49910  0.65706  1.0000 0.539602388
C   C15       1.0  0.17732  0.42880  0.82039  1.0000 -0.18183148
C   C16       1.0  0.12436  0.52700  0.79794  1.0000 0.1807185135
C   C17       1.0  0.13631  0.64950  0.78028  1.0000 -0.18183148
C   C18       1.0  0.19900  0.66680  0.78338  1.0000 -0.0904714663
C   C19       1.0  0.25070  0.56540  0.80472  1.0000 -0.0204010424
C   C20       1.0  0.23947  0.44650  0.82362  1.0000 -0.073218513
C   C21       1.0  0.21781  0.61620  0.51969  1.0000 -0.0950919424
C   C22       1.0  0.41610  0.68120  0.73878  1.0000 0.5678443576
C   C23       1.0  0.40421  0.68030  0.70302  1.0000 -0.0204010424
C   C24       1.0  0.35398  0.77530  0.67871  1.0000 -0.0904714663
C   C25       1.0  0.34188  0.77200  0.64545  1.0000 -0.1900668378
C   C26       1.0  0.38105  0.67410  0.63716  1.0000 0.1807185135
C   C27       1.0  0.43201  0.57910  0.66175  1.0000 -0.1900668378
C   C28       1.0  0.44233  0.58150  0.69426  1.0000 -0.0807528984
C   C29       1.0  0.30380  0.62030  0.57794  1.0000 0.1807185135
C   C30       1.0  0.26515  0.51690  0.58609  1.0000 -0.1900668378
C   C31       1.0  0.20321  0.46440  0.56136  1.0000 -0.0904714663
C   C32       1.0  0.17926  0.51040  0.52778  1.0000 -0.0332983879
C   C33       1.0  0.27863  0.67160  0.54450  1.0000 -0.1900668378
C   C34       1.0  0.11431  0.44600  0.50086  1.0000 0.539602388
C   C35       1.0  0.42279  0.65610  0.59672  1.0000 0.1887554175
C   C36       1.0  0.42002  0.55200  0.57166  1.0000 -0.2061938753
C   C37       1.0  0.47482  0.53120  0.56722  1.0000 -0.0950919424
C   C38       1.0  0.53440  0.61050  0.58830  1.0000 -0.0204010424
C   C39       1.0  0.53749  0.71820  0.61304  1.0000 -0.073218513
C   C40       1.0  0.48231  0.74190  0.61699  1.0000 -0.1900668378
C   C41       1.0  0.59324  0.57070  0.58360  1.0000 0.5567552934
C   C42       1.0  0.68178  0.87490  0.03681  1.0000 0.0746747668
C   C43       1.0  0.67973  0.81130  0.00835  1.0000 -0.1531117519
C   C44       1.0  0.73601  0.73890  0.01005  1.0000 0.0626819453
C   C45       1.0  0.79338  0.73720  0.04103  1.0000 -0.1324942407
C   C46       1.0  0.79124  0.80440  0.06872  1.0000 0.089684333
C   C47       1.0  0.73401  0.67470  0.97909  1.0000 0.3661761845
C   C48       1.0  0.67504  0.63570  0.92274  1.0000 0.3595397326
C   C49       1.0  0.78217  0.55480  0.95151  1.0000 0.3595397326
C   C50       1.0  0.61144  0.65330  0.89104  1.0000 0.0626819453
C   C51       1.0  0.55278  0.68240  0.89218  1.0000 -0.1611622155
C   C52       1.0  0.49443  0.70580  0.86249  1.0000 0.0814284573
C   C53       1.0  0.54773  0.66540  0.83089  1.0000 0.0958084709
C   C54       1.0  0.60867  0.64400  0.85960  1.0000 -0.1710688283
C   C55       1.0  0.94276  0.33040  0.98070  1.0000 0.0958084709
C   C56       1.0  0.89244  0.41920  0.98177  1.0000 -0.1436244544
C   C57       1.0  0.83954  0.47280  0.95171  1.0000 0.0626819453
C   C58       1.0  0.84009  0.44120  0.92173  1.0000 -0.1611622155
C   C59       1.0  0.89292  0.35200  0.92314  1.0000 0.089684333
C   C60       1.0  0.31837  0.57950  0.80721  1.0000 0.5678443576
C   C61       1.0  0.02383  0.20630  0.40321  1.0000 0.5457849394
C   C62       1.0  0.03205  0.14780  0.37429  1.0000 -0.038675524
C   C63       1.0  0.99641  0.22420  0.34270  1.0000 -0.0807528984
C   C64       1.0  0.00499  0.17260  0.31576  1.0000 -0.1900668378
C   C65       1.0  0.04908  0.04590  0.31976  1.0000 0.1887554175
C   C66       1.0  0.08392  0.96790  0.35126  1.0000 -0.18183148
C   C67       1.0  0.07527  0.01890  0.37805  1.0000 -0.0807528984
C   C68       1.0  0.00603  0.00070  0.25921  1.0000 0.1807185135
C   C69       1.0  0.94352  0.94630  0.25192  1.0000 -0.1995001787
C   C70       1.0  0.89203  0.94490  0.21885  1.0000 -0.0904714663
C   C71       1.0  0.90259  0.00140  0.19294  1.0000 -0.038675524
C   C72       1.0  0.96479  0.05970  0.20009  1.0000 -0.0904714663
C   C73       1.0  0.01665  0.05870  0.23285  1.0000 -0.1995001787
C   C74       1.0  0.84753  0.00090  0.15706  1.0000 0.539602388
C   C75       1.0  0.17732  0.07120  0.32039  1.0000 -0.18183148
C   C76       1.0  0.12436  0.97300  0.29794  1.0000 0.1807185135
C   C77       1.0  0.13631  0.85050  0.28028  1.0000 -0.18183148
C   C78       1.0  0.19900  0.83320  0.28338  1.0000 -0.0904714663
C   C79       1.0  0.25070  0.93460  0.30472  1.0000 -0.0204010424
C   C80       1.0  0.23947  0.05350  0.32362  1.0000 -0.073218513
C   C81       1.0  0.21781  0.88380  0.01969  1.0000 -0.0950919424
C   C82       1.0  0.41610  0.81880  0.23878  1.0000 0.5678443576
C   C83       1.0  0.40421  0.81970  0.20302  1.0000 -0.0204010424
C   C84       1.0  0.35398  0.72470  0.17871  1.0000 -0.0904714663
C   C85       1.0  0.34188  0.72800  0.14545  1.0000 -0.1900668378
C   C86       1.0  0.38105  0.82590  0.13716  1.0000 0.1807185135
C   C87       1.0  0.43201  0.92090  0.16175  1.0000 -0.1900668378
C   C88       1.0  0.44233  0.91850  0.19426  1.0000 -0.0807528984
C   C89       1.0  0.30380  0.87970  0.07794  1.0000 0.1807185135
C   C90       1.0  0.26515  0.98310  0.08609  1.0000 -0.1900668378
C   C91       1.0  0.20321  0.03560  0.06136  1.0000 -0.0904714663
C   C92       1.0  0.17926  0.98960  0.02778  1.0000 -0.0332983879
C   C93       1.0  0.27863  0.82840  0.04450  1.0000 -0.1900668378
C   C94       1.0  0.11431  0.05400  0.00086  1.0000 0.539602388
C   C95       1.0  0.42279  0.84390  0.09672  1.0000 0.1887554175
C   C96       1.0  0.42002  0.94800  0.07166  1.0000 -0.2061938753
C   C97       1.0  0.47482  0.96880  0.06722  1.0000 -0.0904714663
C   C98       1.0  0.53440  0.88950  0.08830  1.0000 -0.0204010424
C   C99       1.0  0.53749  0.78180  0.11304  1.0000 -0.073218513
C   C100      1.0  0.48231  0.75810  0.11699  1.0000 -0.1900668378
C   C101      1.0  0.59324  0.92930  0.08360  1.0000 0.5567552934
C   C102      1.0  0.68178  0.62510  0.53681  1.0000 0.0746747668
C   C103      1.0  0.67973  0.68870  0.50835  1.0000 -0.1611622155
C   C104      1.0  0.73601  0.76110  0.51005  1.0000 0.0626819453
C   C105      1.0  0.79338  0.76280  0.54103  1.0000 -0.1324942407
C   C106      1.0  0.79124  0.69560  0.56872  1.0000 0.089684333
C   C107      1.0  0.73401  0.82530  0.47909  1.0000 0.3661761845
C   C108      1.0  0.67504  0.86430  0.42274  1.0000 0.3595397326
C   C109      1.0  0.78217  0.94520  0.45151  1.0000 0.3595397326
C   C110      1.0  0.61144  0.84670  0.39104  1.0000 0.0626819453
C   C111      1.0  0.55278  0.81760  0.39218  1.0000 -0.1611622155
C   C112      1.0  0.49443  0.79420  0.36249  1.0000 0.0814284573
C   C113      1.0  0.54773  0.83460  0.33089  1.0000 0.0958084709
C   C114      1.0  0.60867  0.85600  0.35960  1.0000 -0.1710688283
C   C115      1.0  0.94276  0.16960  0.48070  1.0000 0.0958084709
C   C116      1.0  0.89244  0.08080  0.48177  1.0000 -0.1436244544
C   C117      1.0  0.83954  0.02720  0.45171  1.0000 0.0626819453
C   C118      1.0  0.84009  0.05880  0.42173  1.0000 -0.1611622155
C   C119      1.0  0.89292  0.14800  0.42314  1.0000 0.089684333
C   C120      1.0  0.31837  0.92050  0.30721  1.0000 0.5678443576
C   C121      1.0  0.97617  0.79370  0.59679  1.0000 0.5457849394
C   C122      1.0  0.96795  0.85220  0.62571  1.0000 -0.038675524
C   C123      1.0  0.00359  0.77580  0.65730  1.0000 -0.0807528984
C   C124      1.0  0.99501  0.82740  0.68424  1.0000 -0.1900668378
C   C125      1.0  0.95092  0.95410  0.68024  1.0000 0.1887554175
C   C126      1.0  0.91608  0.03210  0.64874  1.0000 -0.18183148
C   C127      1.0  0.92473  0.98110  0.62195  1.0000 -0.0807528984
C   C128      1.0  0.99397  0.99930  0.74079  1.0000 0.1807185135
C   C129      1.0  0.05648  0.05370  0.74808  1.0000 -0.1995001787
C   C130      1.0  0.10797  0.05510  0.78115  1.0000 -0.0904714663
C   C131      1.0  0.09741  0.99860  0.80706  1.0000 -0.038675524
C   C132      1.0  0.03521  0.94030  0.79991  1.0000 -0.0904714663
C   C133      1.0  0.98335  0.94130  0.76715  1.0000 -0.1995001787
C   C134      1.0  0.15247  0.99910  0.84294  1.0000 0.539602388
C   C135      1.0  0.82268  0.92880  0.67961  1.0000 -0.18183148
C   C136      1.0  0.87564  0.02700  0.70206  1.0000 0.1807185135
C   C137      1.0  0.86369  0.14950  0.71972  1.0000 -0.18183148
C   C138      1.0  0.80100  0.16680  0.71662  1.0000 -0.0904714663
C   C139      1.0  0.74930  0.06540  0.69528  1.0000 -0.0204010424
C   C140      1.0  0.76053  0.94650  0.67638  1.0000 -0.073218513
C   C141      1.0  0.78219  0.11620  0.98031  1.0000 -0.0950919424
C   C142      1.0  0.58390  0.18120  0.76122  1.0000 0.5678443576
C   C143      1.0  0.59579  0.18030  0.79698  1.0000 -0.0204010424
C   C144      1.0  0.64602  0.27530  0.82129  1.0000 -0.0904714663
C   C145      1.0  0.65812  0.27200  0.85455  1.0000 -0.1900668378
C   C146      1.0  0.61895  0.17410  0.86284  1.0000 0.1807185135
C   C147      1.0  0.56799  0.07910  0.83825  1.0000 -0.1900668378
C   C148      1.0  0.55767  0.08150  0.80574  1.0000 -0.0807528984
C   C149      1.0  0.69620  0.12030  0.92206  1.0000 0.1807185135
C   C150      1.0  0.73485  0.01690  0.91391  1.0000 -0.1900668378
C   C151      1.0  0.79679  0.96440  0.93864  1.0000 -0.0904714663
C   C152      1.0  0.82074  0.01040  0.97222  1.0000 -0.0332983879
C   C153      1.0  0.72137  0.17160  0.95550  1.0000 -0.1900668378
C   C154      1.0  0.88569  0.94600  0.99914  1.0000 0.539602388
C   C155      1.0  0.57721  0.15610  0.90328  1.0000 0.1887554175
C   C156      1.0  0.57998  0.05200  0.92834  1.0000 -0.2061938753
C   C157      1.0  0.52518  0.03120  0.93278  1.0000 -0.0950919424
C   C158      1.0  0.46560  0.11050  0.91170  1.0000 -0.0204010424
C   C159      1.0  0.46251  0.21820  0.88696  1.0000 -0.073218513
C   C160      1.0  0.51769  0.24190  0.88301  1.0000 -0.1900668378
C   C161      1.0  0.40676  0.07070  0.91640  1.0000 0.5567552934
C   C162      1.0  0.31822  0.37490  0.46319  1.0000 0.0746747668
C   C163      1.0  0.32027  0.31130  0.49165  1.0000 -0.1611622155
C   C164      1.0  0.26399  0.23890  0.48995  1.0000 0.0626819453
C   C165      1.0  0.20662  0.23720  0.45897  1.0000 -0.1324942407
C   C166      1.0  0.20876  0.30440  0.43128  1.0000 0.089684333
C   C167      1.0  0.26599  0.17470  0.52091  1.0000 0.3661761845
C   C168      1.0  0.32496  0.13570  0.57726  1.0000 0.3595397326
C   C169      1.0  0.21783  0.05480  0.54849  1.0000 0.3595397326
C   C170      1.0  0.38856  0.15330  0.60896  1.0000 0.0626819453
C   C171      1.0  0.44722  0.18240  0.60782  1.0000 -0.1611622155
C   C172      1.0  0.50557  0.20580  0.63751  1.0000 0.0814284573
C   C173      1.0  0.45227  0.16540  0.66911  1.0000 0.0958084709
C   C174      1.0  0.39133  0.14400  0.64040  1.0000 -0.1710688283
C   C175      1.0  0.05724  0.83040  0.51930  1.0000 0.0958084709
C   C176      1.0  0.10756  0.91920  0.51823  1.0000 -0.1436244544
C   C177      1.0  0.16046  0.97280  0.54829  1.0000 0.0626819453
C   C178      1.0  0.15991  0.94120  0.57827  1.0000 -0.1611622155
C   C179      1.0  0.10708  0.85200  0.57686  1.0000 0.089684333
C   C180      1.0  0.68163  0.07950  0.69279  1.0000 0.5678443576
C   C181      1.0  0.97617  0.70630  0.09679  1.0000 0.5457849394
C   C182      1.0  0.96795  0.64780  0.12571  1.0000 -0.038675524
C   C183      1.0  0.00359  0.72420  0.15730  1.0000 -0.0807528984
C   C184      1.0  0.99501  0.67260  0.18424  1.0000 -0.1900668378
C   C185      1.0  0.95092  0.54590  0.18024  1.0000 0.1887554175
C   C186      1.0  0.91608  0.46790  0.14874  1.0000 -0.18183148
C   C187      1.0  0.92473  0.51890  0.12195  1.0000 -0.0807528984
C   C188      1.0  0.99397  0.50070  0.24079  1.0000 0.1807185135
C   C189      1.0  0.05648  0.44630  0.24808  1.0000 -0.1995001787
C   C190      1.0  0.10797  0.44490  0.28115  1.0000 -0.0904714663
C   C191      1.0  0.09741  0.50140  0.30706  1.0000 -0.038675524
C   C192      1.0  0.03521  0.55970  0.29991  1.0000 -0.0904714663
C   C193      1.0  0.98335  0.55870  0.26715  1.0000 -0.1995001787
C   C194      1.0  0.15247  0.50090  0.34294  1.0000 0.539602388
C   C195      1.0  0.82268  0.57120  0.17961  1.0000 -0.18183148
C   C196      1.0  0.87564  0.47300  0.20206  1.0000 0.1807185135
C   C197      1.0  0.86369  0.35050  0.21972  1.0000 -0.18183148
C   C198      1.0  0.80100  0.33320  0.21662  1.0000 -0.0904714663
C   C199      1.0  0.74930  0.43460  0.19528  1.0000 -0.0204010424
C   C200      1.0  0.76053  0.55350  0.17638  1.0000 -0.073218513
C   C201      1.0  0.78219  0.38380  0.48031  1.0000 -0.0950919424
C   C202      1.0  0.58390  0.31880  0.26122  1.0000 0.5678443576
C   C203      1.0  0.59579  0.31970  0.29698  1.0000 -0.0204010424
C   C204      1.0  0.64602  0.22470  0.32129  1.0000 -0.0904714663
C   C205      1.0  0.65812  0.22800  0.35455  1.0000 -0.1900668378
C   C206      1.0  0.61895  0.32590  0.36284  1.0000 0.1807185135
C   C207      1.0  0.56799  0.42090  0.33825  1.0000 -0.1900668378
C   C208      1.0  0.55767  0.41850  0.30574  1.0000 -0.0807528984
C   C209      1.0  0.69620  0.37970  0.42206  1.0000 0.1807185135
C   C210      1.0  0.73485  0.48310  0.41391  1.0000 -0.1900668378
C   C211      1.0  0.79679  0.53560  0.43864  1.0000 -0.0904714663
C   C212      1.0  0.82074  0.48960  0.47222  1.0000 -0.0332983879
C   C213      1.0  0.72137  0.32840  0.45550  1.0000 -0.1900668378
C   C214      1.0  0.88569  0.55400  0.49914  1.0000 0.539602388
C   C215      1.0  0.57721  0.34390  0.40328  1.0000 0.1887554175
C   C216      1.0  0.57998  0.44800  0.42834  1.0000 -0.2061938753
C   C217      1.0  0.52518  0.46880  0.43278  1.0000 -0.0950919424
C   C218      1.0  0.46560  0.38950  0.41170  1.0000 -0.0204010424
C   C219      1.0  0.46251  0.28180  0.38696  1.0000 -0.073218513
C   C220      1.0  0.51769  0.25810  0.38301  1.0000 -0.1900668378
C   C221      1.0  0.40676  0.42930  0.41640  1.0000 0.5567552934
C   C222      1.0  0.31822  0.12510  0.96319  1.0000 0.0746747668
C   C223      1.0  0.32027  0.18870  0.99165  1.0000 -0.1611622155
C   C224      1.0  0.26399  0.26110  0.98995  1.0000 0.0626819453
C   C225      1.0  0.20662  0.26280  0.95897  1.0000 -0.1324942407
C   C226      1.0  0.20876  0.19560  0.93128  1.0000 0.089684333
C   C227      1.0  0.26599  0.32530  0.02091  1.0000 0.3661761845
C   C228      1.0  0.32496  0.36430  0.07726  1.0000 0.3595397326
C   C229      1.0  0.21783  0.44520  0.04849  1.0000 0.3595397326
C   C230      1.0  0.38856  0.34670  0.10896  1.0000 0.0626819453
C   C231      1.0  0.44722  0.31760  0.10782  1.0000 -0.1611622155
C   C232      1.0  0.50557  0.29420  0.13751  1.0000 0.0814284573
C   C233      1.0  0.45227  0.33460  0.16911  1.0000 0.0958084709
C   C234      1.0  0.39133  0.35600  0.14040  1.0000 -0.1710688283
C   C235      1.0  0.05724  0.66960  0.01930  1.0000 0.0958084709
C   C236      1.0  0.10756  0.58080  0.01823  1.0000 -0.1436244544
C   C237      1.0  0.16046  0.52720  0.04829  1.0000 0.0626819453
C   C238      1.0  0.15991  0.55880  0.07827  1.0000 -0.1611622155
C   C239      1.0  0.10708  0.64800  0.07686  1.0000 0.089684333
C   C240      1.0  0.68163  0.42050  0.19279  1.0000 0.5678443576
N   N1        1.0  0.94238  0.29510  0.95187  1.0000 -0.2283468151
N   N2        1.0  0.73603  0.86900  0.06694  1.0000 -0.2283468151
N   N3        1.0  0.78815  0.60710  0.98082  1.0000 -0.3850630035
N   N4        1.0  0.67532  0.68940  0.95067  1.0000 -0.4228969065
N   N5        1.0  0.72669  0.56800  0.92143  1.0000 -0.4228969065
N   N6        1.0  0.49199  0.69770  0.83226  1.0000 -0.2460235168
N   N7        1.0  0.36826  0.67040  0.60293  1.0000 -0.1611622155
N   N8        1.0  0.05910  0.50150  0.79273  1.0000 -0.1531117519
N   N9        1.0  0.94238  0.20490  0.45187  1.0000 -0.2283468151
N   N10       1.0  0.73603  0.63100  0.56694  1.0000 -0.2283468151
N   N11       1.0  0.78815  0.89290  0.48082  1.0000 -0.384453546
N   N12       1.0  0.67532  0.81060  0.45067  1.0000 -0.4228969065
N   N13       1.0  0.72669  0.93200  0.42143  1.0000 -0.4228969065
N   N14       1.0  0.49199  0.80230  0.33226  1.0000 -0.2460235168
N   N15       1.0  0.36826  0.82960  0.10293  1.0000 -0.1611622155
N   N16       1.0  0.05910  0.99850  0.29273  1.0000 -0.1531117519
N   N17       1.0  0.05762  0.79510  0.54813  1.0000 -0.2283468151
N   N18       1.0  0.26397  0.36900  0.43306  1.0000 -0.2283468151
N   N19       1.0  0.21185  0.10710  0.51918  1.0000 -0.384453546
N   N20       1.0  0.32468  0.18940  0.54933  1.0000 -0.4228969065
N   N21       1.0  0.27331  0.06800  0.57857  1.0000 -0.4228969065
N   N22       1.0  0.50801  0.19770  0.66774  1.0000 -0.2460235168
N   N23       1.0  0.63174  0.17040  0.89707  1.0000 -0.1611622155
N   N24       1.0  0.94090  0.00150  0.70727  1.0000 -0.1531117519
N   N25       1.0  0.05762  0.70490  0.04813  1.0000 -0.2283468151
N   N26       1.0  0.26397  0.13100  0.93306  1.0000 -0.2283468151
N   N27       1.0  0.21185  0.39290  0.01918  1.0000 -0.3850630035
N   N28       1.0  0.32468  0.31060  0.04933  1.0000 -0.4228969065
N   N29       1.0  0.27331  0.43200  0.07857  1.0000 -0.4228969065
N   N30       1.0  0.50801  0.30230  0.16774  1.0000 -0.2460235168
N   N31       1.0  0.63174  0.32960  0.39707  1.0000 -0.1611622155
N   N32       1.0  0.94090  0.49850  0.20727  1.0000 -0.1531117519
O   O1        1.0  0.07495  0.37550  0.50865  1.0000 -0.5608675254
O   O2        1.0  0.10026  0.46430  0.47053  1.0000 -0.5224254539
O   O3        1.0  0.58527  0.49330  0.55847  1.0000 -0.5608675254
O   O4        1.0  0.64989  0.62000  0.60670  1.0000 -0.5385641068
O   O5        1.0  0.44468  0.56210  0.75792  1.0000 -0.5608675254
O   O6        1.0  0.39555  0.80800  0.74754  1.0000 -0.5513924022
O   O7        1.0  0.36454  0.49320  0.82686  1.0000 -0.5279165318
O   O8        1.0  0.32304  0.68660  0.78760  1.0000 -0.5513924022
O   O9        1.0  0.85763  0.45670  0.63358  1.0000 -0.5513924022
O   O10       1.0  0.79035  0.54600  0.65286  1.0000 -0.5385641068
O   O11       1.0  0.99079  0.16350  0.89988  1.0000 -0.5385641068
O   O12       1.0  0.05084  0.37090  0.93079  1.0000 -0.5608675254
O   O13       1.0  0.07495  0.12450  0.00865  1.0000 -0.5608675254
O   O14       1.0  0.10026  0.03570  0.97053  1.0000 -0.5224254539
O   O15       1.0  0.58527  0.00670  0.05847  1.0000 -0.5608675254
O   O16       1.0  0.64989  0.88000  0.10670  1.0000 -0.5385641068
O   O17       1.0  0.44468  0.93790  0.25792  1.0000 -0.5608675254
O   O18       1.0  0.39555  0.69200  0.24754  1.0000 -0.5513924022
O   O19       1.0  0.36454  0.00680  0.32686  1.0000 -0.5279165318
O   O20       1.0  0.32304  0.81340  0.28760  1.0000 -0.5513924022
O   O21       1.0  0.85763  0.04330  0.13358  1.0000 -0.5513924022
O   O22       1.0  0.79035  0.95400  0.15286  1.0000 -0.5385641068
O   O23       1.0  0.99079  0.33650  0.39988  1.0000 -0.5385641068
O   O24       1.0  0.05084  0.12910  0.43079  1.0000 -0.5608675254
O   O25       1.0  0.92505  0.87550  0.99135  1.0000 -0.5608675254
O   O26       1.0  0.89974  0.96430  0.02947  1.0000 -0.5224254539
O   O27       1.0  0.41473  0.99330  0.94153  1.0000 -0.5608675254
O   O28       1.0  0.35011  0.12000  0.89330  1.0000 -0.5385641068
O   O29       1.0  0.55532  0.06210  0.74208  1.0000 -0.5608675254
O   O30       1.0  0.60445  0.30800  0.75246  1.0000 -0.5513924022
O   O31       1.0  0.63546  0.99320  0.67314  1.0000 -0.5279165318
O   O32       1.0  0.67696  0.18660  0.71240  1.0000 -0.5513924022
O   O33       1.0  0.14237  0.95670  0.86642  1.0000 -0.5513924022
O   O34       1.0  0.20965  0.04600  0.84714  1.0000 -0.5385641068
O   O35       1.0  0.00921  0.66350  0.60012  1.0000 -0.5385641068
O   O36       1.0  0.94916  0.87090  0.56921  1.0000 -0.5608675254
O   O37       1.0  0.92505  0.62450  0.49135  1.0000 -0.5608675254
O   O38       1.0  0.89974  0.53570  0.52947  1.0000 -0.5224254539
O   O39       1.0  0.41473  0.50670  0.44153  1.0000 -0.5608675254
O   O40       1.0  0.35011  0.38000  0.39330  1.0000 -0.5385641068
O   O41       1.0  0.55532  0.43790  0.24208  1.0000 -0.5608675254
O   O42       1.0  0.60445  0.19200  0.25246  1.0000 -0.5513924022
O   O43       1.0  0.63546  0.50680  0.17314  1.0000 -0.5279165318
O   O44       1.0  0.67696  0.31340  0.21240  1.0000 -0.5513924022
O   O45       1.0  0.14237  0.54330  0.36642  1.0000 -0.5513924022
O   O46       1.0  0.20965  0.45400  0.34714  1.0000 -0.5385641068
O   O47       1.0  0.00921  0.83650  0.10012  1.0000 -0.5385641068
O   O48       1.0  0.94916  0.62910  0.06921  1.0000 -0.5608675254
