# DDEC6 charges by PACMAN v1.1 (https://github.com/mtap-research/PACMAN-charge/)
data_2020[ZnCd][nan]3[ASR]1
_chemical_formula_sum              "Zn6 Cd3 H90 C162 O36"
_cell_length_a       25.5715
_cell_length_b       25.5715
_cell_length_c       12.872
_cell_angle_alpha    90
_cell_angle_beta     90
_cell_angle_gamma    120

_symmetry_space_group_name_H-M    "P 1"
_symmetry_Int_Tables_number       1

loop_
  _symmetry_equiv_pos_as_xyz
  'x, y, z'

loop_
  _atom_site_type_symbol
  _atom_site_label
  _atom_site_symmetry_multiplicity
  _atom_site_fract_x
  _atom_site_fract_y
  _atom_site_fract_z
  _atom_site_occupancy
  _atom_site_charge
Zn  Zn1       1.0  0.89022  0.61218  0.52737  1.0000 0.9519862783
Zn  Zn2       1.0  0.72196  0.10978  0.86070  1.0000 0.9519862783
Zn  Zn3       1.0  0.38782  0.27804  0.19403  1.0000 0.9519862783
Zn  Zn4       1.0  0.27804  0.38782  0.80597  1.0000 0.9519862783
Zn  Zn5       1.0  0.61218  0.89022  0.47263  1.0000 0.9519862783
Zn  Zn6       1.0  0.10978  0.72196  0.13930  1.0000 0.9519862783
Cd  Cd1       1.0  0.31313  0.31313  0.00000  1.0000 1.1025357297
Cd  Cd2       1.0  0.00000  0.68687  0.33333  1.0000 1.1025357297
Cd  Cd3       1.0  0.68687  0.00000  0.66667  1.0000 1.1025357297
H   H1        1.0  0.84243  0.27055  0.32588  1.0000 0.1111732481
H   H2        1.0  0.95819  0.43525  0.15788  1.0000 0.1193005013
H   H3        1.0  0.95165  0.51958  0.20642  1.0000 0.1262391857
H   H4        1.0  0.04629  0.36402  0.03807  1.0000 0.1193005013
H   H5        1.0  0.00363  0.37523  0.18249  1.0000 0.1111732481
H   H6        1.0  0.73171  0.09764  0.48515  1.0000 0.1193005013
H   H7        1.0  0.87905  0.35559  0.42882  1.0000 0.1193005013
H   H8        1.0  0.12926  0.37411  0.95066  1.0000 0.1193005013
H   H9        1.0  0.93653  0.19620  0.20679  1.0000 0.1111732481
H   H10       1.0  0.84332  0.11277  0.19002  1.0000 0.1193005013
H   H11       1.0  0.87484  0.43954  0.47658  1.0000 0.1193005013
H   H12       1.0  0.80408  0.19244  0.42635  1.0000 0.1111732481
H   H13       1.0  0.76513  0.02102  0.23961  1.0000 0.1193005013
H   H14       1.0  0.03637  0.22489  0.20165  1.0000 0.1193005013
H   H15       1.0  0.12458  0.23941  0.11634  1.0000 0.1193005013
H   H16       1.0  0.42812  0.15757  0.65921  1.0000 0.1111732481
H   H17       1.0  0.47706  0.04181  0.49121  1.0000 0.1193005013
H   H18       1.0  0.56793  0.04835  0.53975  1.0000 0.1262391857
H   H19       1.0  0.31773  0.95371  0.37140  1.0000 0.1193005013
H   H20       1.0  0.37160  0.99637  0.51582  1.0000 0.1111732481
H   H21       1.0  0.36593  0.26829  0.81848  1.0000 0.1193005013
H   H22       1.0  0.47654  0.12095  0.76215  1.0000 0.1193005013
H   H23       1.0  0.24485  0.87074  0.28399  1.0000 0.1193005013
H   H24       1.0  0.25967  0.06347  0.54012  1.0000 0.1111732481
H   H25       1.0  0.26945  0.15668  0.52335  1.0000 0.1193005013
H   H26       1.0  0.56470  0.12516  0.80991  1.0000 0.1193005013
H   H27       1.0  0.38836  0.19592  0.75968  1.0000 0.1111732481
H   H28       1.0  0.25589  0.23487  0.57294  1.0000 0.1193005013
H   H29       1.0  0.18852  0.96363  0.53498  1.0000 0.1193005013
H   H30       1.0  0.11483  0.87542  0.44967  1.0000 0.1193005013
H   H31       1.0  0.72945  0.57188  0.99254  1.0000 0.1111732481
H   H32       1.0  0.56475  0.52294  0.82454  1.0000 0.1193005013
H   H33       1.0  0.48042  0.43207  0.87308  1.0000 0.1262391857
H   H34       1.0  0.63598  0.68227  0.70473  1.0000 0.1193005013
H   H35       1.0  0.62477  0.62840  0.84915  1.0000 0.1111732481
H   H36       1.0  0.90236  0.63407  0.15181  1.0000 0.1193005013
H   H37       1.0  0.64441  0.52346  0.09548  1.0000 0.1193005013
H   H38       1.0  0.62589  0.75515  0.61732  1.0000 0.1193005013
H   H39       1.0  0.80380  0.74033  0.87345  1.0000 0.1111732481
H   H40       1.0  0.88723  0.73055  0.85668  1.0000 0.1193005013
H   H41       1.0  0.56046  0.43530  0.14324  1.0000 0.1193005013
H   H42       1.0  0.80756  0.61164  0.09301  1.0000 0.1111732481
H   H43       1.0  0.97898  0.74411  0.90627  1.0000 0.1193005013
H   H44       1.0  0.77511  0.81148  0.86831  1.0000 0.1193005013
H   H45       1.0  0.76059  0.88517  0.78300  1.0000 0.1193005013
H   H46       1.0  0.57188  0.72945  0.00746  1.0000 0.1111732481
H   H47       1.0  0.52294  0.56475  0.17546  1.0000 0.1193005013
H   H48       1.0  0.43207  0.48042  0.12692  1.0000 0.1262391857
H   H49       1.0  0.68227  0.63598  0.29527  1.0000 0.1193005013
H   H50       1.0  0.62840  0.62477  0.15085  1.0000 0.1111732481
H   H51       1.0  0.63407  0.90236  0.84819  1.0000 0.1193005013
H   H52       1.0  0.52346  0.64441  0.90452  1.0000 0.1193005013
H   H53       1.0  0.75515  0.62589  0.38268  1.0000 0.1193005013
H   H54       1.0  0.74033  0.80380  0.12655  1.0000 0.1111732481
H   H55       1.0  0.73055  0.88723  0.14332  1.0000 0.1193005013
H   H56       1.0  0.43530  0.56046  0.85676  1.0000 0.1193005013
H   H57       1.0  0.61164  0.80756  0.90699  1.0000 0.1111732481
H   H58       1.0  0.74411  0.97898  0.09373  1.0000 0.1193005013
H   H59       1.0  0.81148  0.77511  0.13169  1.0000 0.1193005013
H   H60       1.0  0.88517  0.76059  0.21700  1.0000 0.1193005013
H   H61       1.0  0.27055  0.84243  0.67412  1.0000 0.1111732481
H   H62       1.0  0.43525  0.95819  0.84212  1.0000 0.1193005013
H   H63       1.0  0.51958  0.95165  0.79358  1.0000 0.1262391857
H   H64       1.0  0.36402  0.04629  0.96193  1.0000 0.1193005013
H   H65       1.0  0.37523  0.00363  0.81751  1.0000 0.1111732481
H   H66       1.0  0.09764  0.73171  0.51485  1.0000 0.1193005013
H   H67       1.0  0.35559  0.87905  0.57118  1.0000 0.1193005013
H   H68       1.0  0.37411  0.12926  0.04934  1.0000 0.1193005013
H   H69       1.0  0.19620  0.93653  0.79321  1.0000 0.1111732481
H   H70       1.0  0.11277  0.84332  0.80998  1.0000 0.1193005013
H   H71       1.0  0.43954  0.87484  0.52342  1.0000 0.1193005013
H   H72       1.0  0.19244  0.80408  0.57365  1.0000 0.1111732481
H   H73       1.0  0.02102  0.76513  0.76039  1.0000 0.1193005013
H   H74       1.0  0.22489  0.03637  0.79835  1.0000 0.1193005013
H   H75       1.0  0.23941  0.12458  0.88366  1.0000 0.1193005013
H   H76       1.0  0.15757  0.42812  0.34079  1.0000 0.1111732481
H   H77       1.0  0.04181  0.47706  0.50879  1.0000 0.1193005013
H   H78       1.0  0.04835  0.56793  0.46025  1.0000 0.1262391857
H   H79       1.0  0.95371  0.31773  0.62860  1.0000 0.1193005013
H   H80       1.0  0.99637  0.37160  0.48418  1.0000 0.1111732481
H   H81       1.0  0.26829  0.36593  0.18152  1.0000 0.1193005013
H   H82       1.0  0.12095  0.47654  0.23785  1.0000 0.1193005013
H   H83       1.0  0.87074  0.24485  0.71601  1.0000 0.1193005013
H   H84       1.0  0.06347  0.25967  0.45988  1.0000 0.1111732481
H   H85       1.0  0.15668  0.26945  0.47665  1.0000 0.1193005013
H   H86       1.0  0.12516  0.56470  0.19009  1.0000 0.1193005013
H   H87       1.0  0.19592  0.38836  0.24032  1.0000 0.1111732481
H   H88       1.0  0.23487  0.25589  0.42706  1.0000 0.1193005013
H   H89       1.0  0.96363  0.18852  0.46502  1.0000 0.1193005013
H   H90       1.0  0.87542  0.11483  0.55033  1.0000 0.1193005013
C   C1        1.0  0.87700  0.27540  0.28977  1.0000 -0.2019625346
C   C2        1.0  0.91940  0.38680  0.28657  1.0000 0.0799281185
C   C3        1.0  0.91320  0.48890  0.34557  1.0000 -0.0496614868
C   C4        1.0  0.94070  0.43560  0.22287  1.0000 -0.1495709186
C   C5        1.0  0.93710  0.48620  0.25247  1.0000 -0.0883151279
C   C6        1.0  0.92220  0.33190  0.25977  1.0000 0.0799281185
C   C7        1.0  0.88290  0.22520  0.26607  1.0000 0.0799281185
C   C8        1.0  0.06140  0.33780  0.05427  1.0000 -0.1587426909
C   C9        1.0  0.74160  0.05000  0.36827  1.0000 -0.0496614868
C   C10       1.0  0.19110  0.31640  0.97407  1.0000 0.5992693406
C   C11       1.0  0.97270  0.33660  0.20497  1.0000 -0.2019625346
C   C12       1.0  0.97810  0.28690  0.18377  1.0000 0.0799281185
C   C13       1.0  0.75370  0.10120  0.42357  1.0000 -0.0883151279
C   C14       1.0  0.89430  0.38930  0.38307  1.0000 -0.1587426909
C   C15       1.0  0.03240  0.29310  0.13047  1.0000 0.0799281185
C   C16       1.0  0.91070  0.54280  0.37827  1.0000 0.5992693406
C   C17       1.0  0.83360  0.16440  0.30077  1.0000 0.0799281185
C   C18       1.0  0.11110  0.34410  0.00317  1.0000 -0.0883151279
C   C19       1.0  0.93270  0.23090  0.21757  1.0000 -0.2019625346
C   C20       1.0  0.81990  0.11060  0.24887  1.0000 -0.1495709186
C   C21       1.0  0.89160  0.43870  0.41117  1.0000 -0.0883151279
C   C22       1.0  0.13570  0.30800  0.02587  1.0000 -0.0496614868
C   C23       1.0  0.79770  0.15750  0.38957  1.0000 -0.1495709186
C   C24       1.0  0.77450  0.05590  0.27957  1.0000 -0.0883151279
C   C25       1.0  0.69430  0.99110  0.40557  1.0000 0.5703071208
C   C26       1.0  0.05560  0.25630  0.15177  1.0000 -0.1680184998
C   C27       1.0  0.10830  0.26460  0.09947  1.0000 -0.0883151279
C   C28       1.0  0.39840  0.12300  0.62310  1.0000 -0.2019625346
C   C29       1.0  0.46740  0.08060  0.61990  1.0000 0.0799281185
C   C30       1.0  0.57570  0.08680  0.67890  1.0000 -0.0496614868
C   C31       1.0  0.49490  0.05930  0.55620  1.0000 -0.1495709186
C   C32       1.0  0.54910  0.06290  0.58580  1.0000 -0.0883151279
C   C33       1.0  0.40970  0.07780  0.59310  1.0000 0.0799281185
C   C34       1.0  0.34230  0.11710  0.59940  1.0000 0.0799281185
C   C35       1.0  0.27640  0.93860  0.38760  1.0000 -0.1587426909
C   C36       1.0  0.30840  0.25840  0.70160  1.0000 -0.0496614868
C   C37       1.0  0.12530  0.80890  0.30740  1.0000 0.5992693406
C   C38       1.0  0.36390  0.02730  0.53830  1.0000 -0.2019625346
C   C39       1.0  0.30880  0.02190  0.51710  1.0000 0.0799281185
C   C40       1.0  0.34750  0.24630  0.75690  1.0000 -0.0883151279
C   C41       1.0  0.49500  0.10570  0.71640  1.0000 -0.1587426909
C   C42       1.0  0.26070  0.96760  0.46380  1.0000 0.0799281185
C   C43       1.0  0.63210  0.08930  0.71160  1.0000 0.5992693406
C   C44       1.0  0.33080  0.16640  0.63410  1.0000 0.0799281185
C   C45       1.0  0.23300  0.88890  0.33650  1.0000 -0.0883151279
C   C46       1.0  0.29820  0.06730  0.55090  1.0000 -0.2019625346
C   C47       1.0  0.29070  0.18010  0.58220  1.0000 -0.1495709186
C   C48       1.0  0.54710  0.10840  0.74450  1.0000 -0.0883151279
C   C49       1.0  0.17230  0.86430  0.35920  1.0000 -0.0496614868
C   C50       1.0  0.35980  0.20230  0.72290  1.0000 -0.1495709186
C   C51       1.0  0.28140  0.22550  0.61290  1.0000 -0.0883151279
C   C52       1.0  0.29680  0.30570  0.73890  1.0000 0.5703071208
C   C53       1.0  0.20070  0.94440  0.48510  1.0000 -0.1680184998
C   C54       1.0  0.15630  0.89170  0.43280  1.0000 -0.0883151279
C   C55       1.0  0.72460  0.60160  0.95643  1.0000 -0.2019625346
C   C56       1.0  0.61320  0.53260  0.95323  1.0000 0.0799281185
C   C57       1.0  0.51110  0.42430  0.01223  1.0000 -0.0496614868
C   C58       1.0  0.56440  0.50510  0.88953  1.0000 -0.1495709186
C   C59       1.0  0.51380  0.45090  0.91913  1.0000 -0.0883151279
C   C60       1.0  0.66810  0.59030  0.92643  1.0000 0.0799281185
C   C61       1.0  0.77480  0.65770  0.93273  1.0000 0.0799281185
C   C62       1.0  0.66220  0.72360  0.72093  1.0000 -0.1587426909
C   C63       1.0  0.95000  0.69160  0.03493  1.0000 -0.0496614868
C   C64       1.0  0.68360  0.87470  0.64073  1.0000 0.5992693406
C   C65       1.0  0.66340  0.63610  0.87163  1.0000 -0.2019625346
C   C66       1.0  0.71310  0.69120  0.85043  1.0000 0.0799281185
C   C67       1.0  0.89880  0.65250  0.09023  1.0000 -0.0883151279
C   C68       1.0  0.61070  0.50500  0.04973  1.0000 -0.1587426909
C   C69       1.0  0.70690  0.73930  0.79713  1.0000 0.0799281185
C   C70       1.0  0.45720  0.36790  0.04493  1.0000 0.5992693406
C   C71       1.0  0.83560  0.66920  0.96743  1.0000 0.0799281185
C   C72       1.0  0.65590  0.76700  0.66983  1.0000 -0.0883151279
C   C73       1.0  0.76910  0.70180  0.88423  1.0000 -0.2019625346
C   C74       1.0  0.88940  0.70930  0.91553  1.0000 -0.1495709186
C   C75       1.0  0.56130  0.45290  0.07783  1.0000 -0.0883151279
C   C76       1.0  0.69200  0.82770  0.69253  1.0000 -0.0496614868
C   C77       1.0  0.84250  0.64020  0.05623  1.0000 -0.1495709186
C   C78       1.0  0.94410  0.71860  0.94623  1.0000 -0.0883151279
C   C79       1.0  0.00890  0.70320  0.07223  1.0000 0.5703071208
C   C80       1.0  0.74370  0.79930  0.81843  1.0000 -0.1680184998
C   C81       1.0  0.73540  0.84370  0.76613  1.0000 -0.0883151279
C   C82       1.0  0.60160  0.72460  0.04357  1.0000 -0.2019625346
C   C83       1.0  0.53260  0.61320  0.04677  1.0000 0.0799281185
C   C84       1.0  0.42430  0.51110  0.98777  1.0000 -0.0496614868
C   C85       1.0  0.50510  0.56440  0.11047  1.0000 -0.1495709186
C   C86       1.0  0.45090  0.51380  0.08087  1.0000 -0.0883151279
C   C87       1.0  0.59030  0.66810  0.07357  1.0000 0.0799281185
C   C88       1.0  0.65770  0.77480  0.06727  1.0000 0.0799281185
C   C89       1.0  0.72360  0.66220  0.27907  1.0000 -0.1587426909
C   C90       1.0  0.69160  0.95000  0.96507  1.0000 -0.0496614868
C   C91       1.0  0.87470  0.68360  0.35927  1.0000 0.5992693406
C   C92       1.0  0.63610  0.66340  0.12837  1.0000 -0.2019625346
C   C93       1.0  0.69120  0.71310  0.14957  1.0000 0.0799281185
C   C94       1.0  0.65250  0.89880  0.90977  1.0000 -0.0883151279
C   C95       1.0  0.50500  0.61070  0.95027  1.0000 -0.1587426909
C   C96       1.0  0.73930  0.70690  0.20287  1.0000 0.0799281185
C   C97       1.0  0.36790  0.45720  0.95507  1.0000 0.5992693406
C   C98       1.0  0.66920  0.83560  0.03257  1.0000 0.0799281185
C   C99       1.0  0.76700  0.65590  0.33017  1.0000 -0.0883151279
C   C100      1.0  0.70180  0.76910  0.11577  1.0000 -0.2019625346
C   C101      1.0  0.70930  0.88940  0.08447  1.0000 -0.1495709186
C   C102      1.0  0.45290  0.56130  0.92217  1.0000 -0.0883151279
C   C103      1.0  0.82770  0.69200  0.30747  1.0000 -0.0496614868
C   C104      1.0  0.64020  0.84250  0.94377  1.0000 -0.1495709186
C   C105      1.0  0.71860  0.94410  0.05377  1.0000 -0.0883151279
C   C106      1.0  0.70320  0.00890  0.92777  1.0000 0.5703071208
C   C107      1.0  0.79930  0.74370  0.18157  1.0000 -0.1680184998
C   C108      1.0  0.84370  0.73540  0.23387  1.0000 -0.0883151279
C   C109      1.0  0.27540  0.87700  0.71023  1.0000 -0.2019625346
C   C110      1.0  0.38680  0.91940  0.71343  1.0000 0.0799281185
C   C111      1.0  0.48890  0.91320  0.65443  1.0000 -0.0496614868
C   C112      1.0  0.43560  0.94070  0.77713  1.0000 -0.1495709186
C   C113      1.0  0.48620  0.93710  0.74753  1.0000 -0.0883151279
C   C114      1.0  0.33190  0.92220  0.74023  1.0000 0.0799281185
C   C115      1.0  0.22520  0.88290  0.73393  1.0000 0.0799281185
C   C116      1.0  0.33780  0.06140  0.94573  1.0000 -0.1587426909
C   C117      1.0  0.05000  0.74160  0.63173  1.0000 -0.0496614868
C   C118      1.0  0.31640  0.19110  0.02593  1.0000 0.5992693406
C   C119      1.0  0.33660  0.97270  0.79503  1.0000 -0.2019625346
C   C120      1.0  0.28690  0.97810  0.81623  1.0000 0.0799281185
C   C121      1.0  0.10120  0.75370  0.57643  1.0000 -0.0883151279
C   C122      1.0  0.38930  0.89430  0.61693  1.0000 -0.1587426909
C   C123      1.0  0.29310  0.03240  0.86953  1.0000 0.0799281185
C   C124      1.0  0.54280  0.91070  0.62173  1.0000 0.5992693406
C   C125      1.0  0.16440  0.83360  0.69923  1.0000 0.0799281185
C   C126      1.0  0.34410  0.11110  0.99683  1.0000 -0.0883151279
C   C127      1.0  0.23090  0.93270  0.78243  1.0000 -0.2019625346
C   C128      1.0  0.11060  0.81990  0.75113  1.0000 -0.1495709186
C   C129      1.0  0.43870  0.89160  0.58883  1.0000 -0.0883151279
C   C130      1.0  0.30800  0.13570  0.97413  1.0000 -0.0496614868
C   C131      1.0  0.15750  0.79770  0.61043  1.0000 -0.1495709186
C   C132      1.0  0.05590  0.77450  0.72043  1.0000 -0.0883151279
C   C133      1.0  0.99110  0.69430  0.59443  1.0000 0.5703071208
C   C134      1.0  0.25630  0.05560  0.84823  1.0000 -0.1680184998
C   C135      1.0  0.26460  0.10830  0.90053  1.0000 -0.0883151279
C   C136      1.0  0.12300  0.39840  0.37690  1.0000 -0.2019625346
C   C137      1.0  0.08060  0.46740  0.38010  1.0000 0.0799281185
C   C138      1.0  0.08680  0.57570  0.32110  1.0000 -0.0496614868
C   C139      1.0  0.05930  0.49490  0.44380  1.0000 -0.1495709186
C   C140      1.0  0.06290  0.54910  0.41420  1.0000 -0.0883151279
C   C141      1.0  0.07780  0.40970  0.40690  1.0000 0.0799281185
C   C142      1.0  0.11710  0.34230  0.40060  1.0000 0.0799281185
C   C143      1.0  0.93860  0.27640  0.61240  1.0000 -0.1587426909
C   C144      1.0  0.25840  0.30840  0.29840  1.0000 -0.0496614868
C   C145      1.0  0.80890  0.12530  0.69260  1.0000 0.5992693406
C   C146      1.0  0.02730  0.36390  0.46170  1.0000 -0.2019625346
C   C147      1.0  0.02190  0.30880  0.48290  1.0000 0.0799281185
C   C148      1.0  0.24630  0.34750  0.24310  1.0000 -0.0883151279
C   C149      1.0  0.10570  0.49500  0.28360  1.0000 -0.1587426909
C   C150      1.0  0.96760  0.26070  0.53620  1.0000 0.0799281185
C   C151      1.0  0.08930  0.63210  0.28840  1.0000 0.5992693406
C   C152      1.0  0.16640  0.33080  0.36590  1.0000 0.0799281185
C   C153      1.0  0.88890  0.23300  0.66350  1.0000 -0.0883151279
C   C154      1.0  0.06730  0.29820  0.44910  1.0000 -0.2019625346
C   C155      1.0  0.18010  0.29070  0.41780  1.0000 -0.1495709186
C   C156      1.0  0.10840  0.54710  0.25550  1.0000 -0.0883151279
C   C157      1.0  0.86430  0.17230  0.64080  1.0000 -0.0496614868
C   C158      1.0  0.20230  0.35980  0.27710  1.0000 -0.1495709186
C   C159      1.0  0.22550  0.28140  0.38710  1.0000 -0.0883151279
C   C160      1.0  0.30570  0.29680  0.26110  1.0000 0.5703071208
C   C161      1.0  0.94440  0.20070  0.51490  1.0000 -0.1680184998
C   C162      1.0  0.89170  0.15630  0.56720  1.0000 -0.0883151279
O   O1        1.0  0.21640  0.28870  0.00747  1.0000 -0.5439843683
O   O2        1.0  0.88890  0.54180  0.46767  1.0000 -0.5560543826
O   O3        1.0  0.66990  0.98540  0.49267  1.0000 -0.5560543826
O   O4        1.0  0.20820  0.35220  0.89587  1.0000 -0.5795562812
O   O5        1.0  0.93120  0.58660  0.31987  1.0000 -0.5514470071
O   O6        1.0  0.67660  0.94330  0.35547  1.0000 -0.5133694359
O   O7        1.0  0.07230  0.78360  0.34080  1.0000 -0.5439843683
O   O8        1.0  0.65290  0.11110  0.80100  1.0000 -0.5514470071
O   O9        1.0  0.31550  0.33010  0.82600  1.0000 -0.5560543826
O   O10       1.0  0.14400  0.79180  0.22920  1.0000 -0.5795562812
O   O11       1.0  0.65540  0.06880  0.65320  1.0000 -0.5514470071
O   O12       1.0  0.26670  0.32340  0.68880  1.0000 -0.5133694359
O   O13       1.0  0.71130  0.92770  0.67413  1.0000 -0.5439843683
O   O14       1.0  0.45820  0.34710  0.13433  1.0000 -0.5514470071
O   O15       1.0  0.01460  0.68450  0.15933  1.0000 -0.5560543826
O   O16       1.0  0.64780  0.85600  0.56253  1.0000 -0.5795562812
O   O17       1.0  0.41340  0.34460  0.98653  1.0000 -0.5514470071
O   O18       1.0  0.05670  0.73330  0.02213  1.0000 -0.5133694359
O   O19       1.0  0.92770  0.71130  0.32587  1.0000 -0.5439843683
O   O20       1.0  0.34710  0.45820  0.86567  1.0000 -0.5514470071
O   O21       1.0  0.68450  0.01460  0.84067  1.0000 -0.5560543826
O   O22       1.0  0.85600  0.64780  0.43747  1.0000 -0.5795562812
O   O23       1.0  0.34460  0.41340  0.01347  1.0000 -0.5514470071
O   O24       1.0  0.73330  0.05670  0.97787  1.0000 -0.5133694359
O   O25       1.0  0.28870  0.21640  0.99253  1.0000 -0.5439843683
O   O26       1.0  0.54180  0.88890  0.53233  1.0000 -0.5514470071
O   O27       1.0  0.98540  0.66990  0.50733  1.0000 -0.5560543826
O   O28       1.0  0.35220  0.20820  0.10413  1.0000 -0.5795562812
O   O29       1.0  0.58660  0.93120  0.68013  1.0000 -0.5514470071
O   O30       1.0  0.94330  0.67660  0.64453  1.0000 -0.5133694359
O   O31       1.0  0.78360  0.07230  0.65920  1.0000 -0.5439843683
O   O32       1.0  0.11110  0.65290  0.19900  1.0000 -0.5514470071
O   O33       1.0  0.33010  0.31550  0.17400  1.0000 -0.5560543826
O   O34       1.0  0.79180  0.14400  0.77080  1.0000 -0.5795562812
O   O35       1.0  0.06880  0.65540  0.34680  1.0000 -0.5514470071
O   O36       1.0  0.32340  0.26670  0.31120  1.0000 -0.5133694359
