# DDEC6 charges by PACMAN v1.1 (https://github.com/mtap-research/PACMAN-charge/)
data_2020[Nd][nan]3[ASR]2
_chemical_formula_sum              "Nd24 H288 C216 O144"
_cell_length_a       7.7371
_cell_length_b       19.5473
_cell_length_c       65.6726
_cell_angle_alpha    90
_cell_angle_beta     90
_cell_angle_gamma    90

_symmetry_space_group_name_H-M    "P 1"
_symmetry_Int_Tables_number       1

loop_
  _symmetry_equiv_pos_as_xyz
  'x, y, z'

loop_
  _atom_site_type_symbol
  _atom_site_label
  _atom_site_symmetry_multiplicity
  _atom_site_fract_x
  _atom_site_fract_y
  _atom_site_fract_z
  _atom_site_occupancy
  _atom_site_charge
Nd  Nd1       1.0  0.08588  0.55195  0.57258  1.0000 2.0979837982
Nd  Nd2       1.0  0.58690  0.54359  0.59328  1.0000 2.0939511863
Nd  Nd3       1.0  0.94777  0.42731  0.76053  1.0000 2.0979837982
Nd  Nd4       1.0  0.41412  0.05195  0.92742  1.0000 2.0979837982
Nd  Nd5       1.0  0.91310  0.04359  0.90672  1.0000 2.0939511863
Nd  Nd6       1.0  0.55223  0.92731  0.73947  1.0000 2.0979837982
Nd  Nd7       1.0  0.08588  0.94805  0.42742  1.0000 2.0979837982
Nd  Nd8       1.0  0.58690  0.95641  0.40672  1.0000 2.0939511863
Nd  Nd9       1.0  0.94777  0.07269  0.23947  1.0000 2.0979837982
Nd  Nd10      1.0  0.41412  0.44805  0.07258  1.0000 2.0979837982
Nd  Nd11      1.0  0.91310  0.45641  0.09328  1.0000 2.0939511863
Nd  Nd12      1.0  0.55223  0.57269  0.26053  1.0000 2.0979837982
Nd  Nd13      1.0  0.91412  0.44805  0.42742  1.0000 2.0979837982
Nd  Nd14      1.0  0.41310  0.45641  0.40672  1.0000 2.0939511863
Nd  Nd15      1.0  0.05223  0.57269  0.23947  1.0000 2.0979837982
Nd  Nd16      1.0  0.58588  0.94805  0.07258  1.0000 2.0979837982
Nd  Nd17      1.0  0.08690  0.95641  0.09328  1.0000 2.0939511863
Nd  Nd18      1.0  0.44777  0.07269  0.26053  1.0000 2.0979837982
Nd  Nd19      1.0  0.91412  0.05195  0.57258  1.0000 2.0979837982
Nd  Nd20      1.0  0.41310  0.04359  0.59328  1.0000 2.0939511863
Nd  Nd21      1.0  0.05223  0.92731  0.76053  1.0000 2.0979837982
Nd  Nd22      1.0  0.58588  0.55195  0.92742  1.0000 2.0979837982
Nd  Nd23      1.0  0.08690  0.54359  0.90672  1.0000 2.0939511863
Nd  Nd24      1.0  0.44777  0.42731  0.73947  1.0000 2.0979837982
H   H1        1.0  0.62179  0.58615  0.51917  1.0000 0.1319510618
H   H2        1.0  0.43116  0.60574  0.51321  1.0000 0.1319510618
H   H3        1.0  0.35510  0.48796  0.51282  1.0000 0.0906197614
H   H4        1.0  0.54520  0.46844  0.51876  1.0000 0.0906197614
H   H5        1.0  0.69563  0.74749  0.57973  1.0000 0.1369916063
H   H6        1.0  0.60815  0.70147  0.56314  1.0000 0.1369916063
H   H7        1.0  0.79426  0.75301  0.53834  1.0000 0.0906197614
H   H8        1.0  0.85865  0.80332  0.55528  1.0000 0.1009695979
H   H9        1.0  0.50934  0.79936  0.54211  1.0000 0.0820754408
H   H10       1.0  0.64230  0.85259  0.53364  1.0000 0.0820754408
H   H11       1.0  0.45244  0.89695  0.55973  1.0000 0.1369916063
H   H12       1.0  0.54813  0.84994  0.57536  1.0000 0.1369916063
H   H13       1.0  0.27054  0.71466  0.62716  1.0000 0.1319510618
H   H14       1.0  0.12318  0.67893  0.61461  1.0000 0.1319510618
H   H15       1.0  0.16463  0.75592  0.58780  1.0000 0.1009695979
H   H16       1.0  0.31859  0.79024  0.59951  1.0000 0.1009695979
H   H17       1.0  0.97674  0.79265  0.61496  1.0000 0.0820754408
H   H18       1.0  0.13257  0.83411  0.62393  1.0000 0.0820754408
H   H19       1.0  0.99407  0.86019  0.58497  1.0000 0.1319510618
H   H20       1.0  0.94071  0.90238  0.60423  1.0000 0.1369916063
H   H21       1.0  0.93918  0.58227  0.65374  1.0000 0.1319510618
H   H22       1.0  0.12875  0.56465  0.64692  1.0000 0.1319510618
H   H23       1.0  0.87109  0.46371  0.65398  1.0000 0.1009695979
H   H24       1.0  0.06189  0.44672  0.64763  1.0000 0.0906197614
H   H25       1.0  0.97202  0.50987  0.68499  1.0000 0.0906197614
H   H26       1.0  0.16246  0.49263  0.67865  1.0000 0.0906197614
H   H27       1.0  0.90618  0.39160  0.68651  1.0000 0.1319510618
H   H28       1.0  0.09653  0.37395  0.67990  1.0000 0.1319510618
H   H29       1.0  0.83303  0.23113  0.74444  1.0000 0.1369916063
H   H30       1.0  0.91026  0.27330  0.72631  1.0000 0.1369916063
H   H31       1.0  0.71504  0.21937  0.70397  1.0000 0.0906197614
H   H32       1.0  0.64346  0.17603  0.72216  1.0000 0.1009695979
H   H33       1.0  0.98798  0.16508  0.70829  1.0000 0.0820754408
H   H34       1.0  0.84230  0.11481  0.70128  1.0000 0.0820754408
H   H35       1.0  0.02785  0.07046  0.72761  1.0000 0.1369916063
H   H36       1.0  0.94521  0.12376  0.74252  1.0000 0.1369916063
H   H37       1.0  0.87821  0.08615  0.98083  1.0000 0.1319510618
H   H38       1.0  0.06884  0.10574  0.98679  1.0000 0.1319510618
H   H39       1.0  0.14490  0.98796  0.98718  1.0000 0.0906197614
H   H40       1.0  0.95480  0.96844  0.98124  1.0000 0.0906197614
H   H41       1.0  0.80437  0.24749  0.92027  1.0000 0.1369916063
H   H42       1.0  0.89185  0.20147  0.93686  1.0000 0.1369916063
H   H43       1.0  0.70574  0.25301  0.96166  1.0000 0.0906197614
H   H44       1.0  0.64135  0.30332  0.94472  1.0000 0.1009695979
H   H45       1.0  0.99066  0.29936  0.95789  1.0000 0.0820754408
H   H46       1.0  0.85770  0.35259  0.96636  1.0000 0.0820754408
H   H47       1.0  0.04756  0.39695  0.94027  1.0000 0.1369916063
H   H48       1.0  0.95187  0.34994  0.92464  1.0000 0.1369916063
H   H49       1.0  0.22946  0.21466  0.87284  1.0000 0.1319510618
H   H50       1.0  0.37682  0.17893  0.88539  1.0000 0.1319510618
H   H51       1.0  0.33537  0.25592  0.91220  1.0000 0.1009695979
H   H52       1.0  0.18141  0.29024  0.90049  1.0000 0.1009695979
H   H53       1.0  0.52326  0.29265  0.88504  1.0000 0.0820754408
H   H54       1.0  0.36743  0.33411  0.87607  1.0000 0.0820754408
H   H55       1.0  0.50593  0.36019  0.91503  1.0000 0.1319510618
H   H56       1.0  0.55929  0.40238  0.89577  1.0000 0.1369916063
H   H57       1.0  0.56082  0.08227  0.84626  1.0000 0.1319510618
H   H58       1.0  0.37125  0.06465  0.85308  1.0000 0.1319510618
H   H59       1.0  0.62891  0.96371  0.84602  1.0000 0.1009695979
H   H60       1.0  0.43811  0.94672  0.85237  1.0000 0.0906197614
H   H61       1.0  0.52798  0.00987  0.81501  1.0000 0.0906197614
H   H62       1.0  0.33754  0.99263  0.82135  1.0000 0.0906197614
H   H63       1.0  0.59382  0.89160  0.81349  1.0000 0.1319510618
H   H64       1.0  0.40347  0.87395  0.82010  1.0000 0.1319510618
H   H65       1.0  0.66697  0.73113  0.75556  1.0000 0.1369916063
H   H66       1.0  0.58974  0.77330  0.77369  1.0000 0.1369916063
H   H67       1.0  0.78496  0.71937  0.79603  1.0000 0.0906197614
H   H68       1.0  0.85654  0.67603  0.77784  1.0000 0.1009695979
H   H69       1.0  0.51202  0.66508  0.79171  1.0000 0.0820754408
H   H70       1.0  0.65770  0.61481  0.79872  1.0000 0.0820754408
H   H71       1.0  0.47215  0.57046  0.77239  1.0000 0.1369916063
H   H72       1.0  0.55479  0.62376  0.75748  1.0000 0.1369916063
H   H73       1.0  0.62179  0.91385  0.48083  1.0000 0.1319510618
H   H74       1.0  0.43116  0.89426  0.48679  1.0000 0.1319510618
H   H75       1.0  0.35510  0.01204  0.48718  1.0000 0.0906197614
H   H76       1.0  0.54520  0.03156  0.48124  1.0000 0.0906197614
H   H77       1.0  0.69563  0.75251  0.42027  1.0000 0.1369916063
H   H78       1.0  0.60815  0.79853  0.43686  1.0000 0.1369916063
H   H79       1.0  0.79426  0.74699  0.46166  1.0000 0.0906197614
H   H80       1.0  0.85865  0.69668  0.44472  1.0000 0.1009695979
H   H81       1.0  0.50934  0.70064  0.45789  1.0000 0.0820754408
H   H82       1.0  0.64230  0.64741  0.46636  1.0000 0.0820754408
H   H83       1.0  0.45244  0.60305  0.44027  1.0000 0.1369916063
H   H84       1.0  0.54813  0.65006  0.42464  1.0000 0.1369916063
H   H85       1.0  0.27054  0.78534  0.37284  1.0000 0.1319510618
H   H86       1.0  0.12318  0.82107  0.38539  1.0000 0.1319510618
H   H87       1.0  0.16463  0.74408  0.41220  1.0000 0.1009695979
H   H88       1.0  0.31859  0.70976  0.40049  1.0000 0.1009695979
H   H89       1.0  0.97674  0.70735  0.38504  1.0000 0.0820754408
H   H90       1.0  0.13257  0.66589  0.37607  1.0000 0.0820754408
H   H91       1.0  0.99407  0.63981  0.41503  1.0000 0.1319510618
H   H92       1.0  0.94071  0.59762  0.39577  1.0000 0.1369916063
H   H93       1.0  0.93918  0.91773  0.34626  1.0000 0.1319510618
H   H94       1.0  0.12875  0.93535  0.35308  1.0000 0.1319510618
H   H95       1.0  0.87109  0.03629  0.34602  1.0000 0.1009695979
H   H96       1.0  0.06189  0.05328  0.35237  1.0000 0.0906197614
H   H97       1.0  0.97202  0.99013  0.31501  1.0000 0.0906197614
H   H98       1.0  0.16246  0.00737  0.32135  1.0000 0.0906197614
H   H99       1.0  0.90618  0.10840  0.31349  1.0000 0.1319510618
H   H100      1.0  0.09653  0.12605  0.32010  1.0000 0.1319510618
H   H101      1.0  0.83303  0.26887  0.25556  1.0000 0.1369916063
H   H102      1.0  0.91026  0.22670  0.27369  1.0000 0.1369916063
H   H103      1.0  0.71504  0.28063  0.29603  1.0000 0.0906197614
H   H104      1.0  0.64346  0.32397  0.27784  1.0000 0.1009695979
H   H105      1.0  0.98798  0.33492  0.29171  1.0000 0.0820754408
H   H106      1.0  0.84230  0.38519  0.29872  1.0000 0.0820754408
H   H107      1.0  0.02785  0.42954  0.27239  1.0000 0.1369916063
H   H108      1.0  0.94521  0.37624  0.25748  1.0000 0.1369916063
H   H109      1.0  0.87821  0.41385  0.01917  1.0000 0.1319510618
H   H110      1.0  0.06884  0.39426  0.01321  1.0000 0.1319510618
H   H111      1.0  0.14490  0.51204  0.01282  1.0000 0.0906197614
H   H112      1.0  0.95480  0.53156  0.01876  1.0000 0.0906197614
H   H113      1.0  0.80437  0.25251  0.07973  1.0000 0.1369916063
H   H114      1.0  0.89185  0.29853  0.06314  1.0000 0.1369916063
H   H115      1.0  0.70574  0.24699  0.03834  1.0000 0.0906197614
H   H116      1.0  0.64135  0.19668  0.05528  1.0000 0.1009695979
H   H117      1.0  0.99066  0.20064  0.04211  1.0000 0.0820754408
H   H118      1.0  0.85770  0.14741  0.03364  1.0000 0.0820754408
H   H119      1.0  0.04756  0.10305  0.05973  1.0000 0.1369916063
H   H120      1.0  0.95187  0.15006  0.07536  1.0000 0.1369916063
H   H121      1.0  0.22946  0.28534  0.12716  1.0000 0.1319510618
H   H122      1.0  0.37682  0.32107  0.11461  1.0000 0.1319510618
H   H123      1.0  0.33537  0.24408  0.08780  1.0000 0.1009695979
H   H124      1.0  0.18141  0.20976  0.09951  1.0000 0.1009695979
H   H125      1.0  0.52326  0.20735  0.11496  1.0000 0.0820754408
H   H126      1.0  0.36743  0.16589  0.12393  1.0000 0.0820754408
H   H127      1.0  0.50593  0.13981  0.08497  1.0000 0.1319510618
H   H128      1.0  0.55929  0.09762  0.10423  1.0000 0.1369916063
H   H129      1.0  0.56082  0.41773  0.15374  1.0000 0.1319510618
H   H130      1.0  0.37125  0.43535  0.14692  1.0000 0.1319510618
H   H131      1.0  0.62891  0.53629  0.15398  1.0000 0.1009695979
H   H132      1.0  0.43811  0.55328  0.14763  1.0000 0.0906197614
H   H133      1.0  0.52798  0.49013  0.18499  1.0000 0.0906197614
H   H134      1.0  0.33754  0.50737  0.17865  1.0000 0.0906197614
H   H135      1.0  0.59382  0.60840  0.18651  1.0000 0.1319510618
H   H136      1.0  0.40347  0.62605  0.17990  1.0000 0.1319510618
H   H137      1.0  0.66697  0.76887  0.24444  1.0000 0.1369916063
H   H138      1.0  0.58974  0.72670  0.22631  1.0000 0.1369916063
H   H139      1.0  0.78496  0.78063  0.20397  1.0000 0.0906197614
H   H140      1.0  0.85654  0.82397  0.22216  1.0000 0.1009695979
H   H141      1.0  0.51202  0.83492  0.20829  1.0000 0.0820754408
H   H142      1.0  0.65770  0.88519  0.20128  1.0000 0.0820754408
H   H143      1.0  0.47215  0.92954  0.22761  1.0000 0.1369916063
H   H144      1.0  0.55479  0.87624  0.24252  1.0000 0.1369916063
H   H145      1.0  0.37821  0.41385  0.48083  1.0000 0.1319510618
H   H146      1.0  0.56884  0.39426  0.48679  1.0000 0.1319510618
H   H147      1.0  0.64490  0.51204  0.48718  1.0000 0.0906197614
H   H148      1.0  0.45480  0.53156  0.48124  1.0000 0.0906197614
H   H149      1.0  0.30437  0.25251  0.42027  1.0000 0.1369916063
H   H150      1.0  0.39185  0.29853  0.43686  1.0000 0.1369916063
H   H151      1.0  0.20574  0.24699  0.46166  1.0000 0.0906197614
H   H152      1.0  0.14135  0.19668  0.44472  1.0000 0.1009695979
H   H153      1.0  0.49066  0.20064  0.45789  1.0000 0.0820754408
H   H154      1.0  0.35770  0.14741  0.46636  1.0000 0.0820754408
H   H155      1.0  0.54756  0.10305  0.44027  1.0000 0.1369916063
H   H156      1.0  0.45187  0.15006  0.42464  1.0000 0.1369916063
H   H157      1.0  0.72946  0.28534  0.37284  1.0000 0.1319510618
H   H158      1.0  0.87682  0.32107  0.38539  1.0000 0.1319510618
H   H159      1.0  0.83537  0.24408  0.41220  1.0000 0.1009695979
H   H160      1.0  0.68141  0.20976  0.40049  1.0000 0.1009695979
H   H161      1.0  0.02326  0.20735  0.38504  1.0000 0.0820754408
H   H162      1.0  0.86743  0.16589  0.37607  1.0000 0.0820754408
H   H163      1.0  0.00593  0.13981  0.41503  1.0000 0.1319510618
H   H164      1.0  0.05929  0.09762  0.39577  1.0000 0.1369916063
H   H165      1.0  0.06082  0.41773  0.34626  1.0000 0.1319510618
H   H166      1.0  0.87125  0.43535  0.35308  1.0000 0.1319510618
H   H167      1.0  0.12891  0.53629  0.34602  1.0000 0.1009695979
H   H168      1.0  0.93811  0.55328  0.35237  1.0000 0.0906197614
H   H169      1.0  0.02798  0.49013  0.31501  1.0000 0.0906197614
H   H170      1.0  0.83754  0.50737  0.32135  1.0000 0.0906197614
H   H171      1.0  0.09382  0.60840  0.31349  1.0000 0.1319510618
H   H172      1.0  0.90347  0.62605  0.32010  1.0000 0.1319510618
H   H173      1.0  0.16697  0.76887  0.25556  1.0000 0.1369916063
H   H174      1.0  0.08974  0.72670  0.27369  1.0000 0.1369916063
H   H175      1.0  0.28496  0.78063  0.29603  1.0000 0.0906197614
H   H176      1.0  0.35654  0.82397  0.27784  1.0000 0.1009695979
H   H177      1.0  0.01202  0.83492  0.29171  1.0000 0.0820754408
H   H178      1.0  0.15770  0.88519  0.29872  1.0000 0.0820754408
H   H179      1.0  0.97215  0.92954  0.27239  1.0000 0.1369916063
H   H180      1.0  0.05479  0.87624  0.25748  1.0000 0.1369916063
H   H181      1.0  0.12179  0.91385  0.01917  1.0000 0.1319510618
H   H182      1.0  0.93116  0.89426  0.01321  1.0000 0.1319510618
H   H183      1.0  0.85510  0.01204  0.01282  1.0000 0.0906197614
H   H184      1.0  0.04520  0.03156  0.01876  1.0000 0.0906197614
H   H185      1.0  0.19563  0.75251  0.07973  1.0000 0.1369916063
H   H186      1.0  0.10815  0.79853  0.06314  1.0000 0.1369916063
H   H187      1.0  0.29426  0.74699  0.03834  1.0000 0.0906197614
H   H188      1.0  0.35865  0.69668  0.05528  1.0000 0.1009695979
H   H189      1.0  0.00934  0.70064  0.04211  1.0000 0.0820754408
H   H190      1.0  0.14230  0.64741  0.03364  1.0000 0.0820754408
H   H191      1.0  0.95244  0.60305  0.05973  1.0000 0.1369916063
H   H192      1.0  0.04813  0.65006  0.07536  1.0000 0.1369916063
H   H193      1.0  0.77054  0.78534  0.12716  1.0000 0.1319510618
H   H194      1.0  0.62318  0.82107  0.11461  1.0000 0.1319510618
H   H195      1.0  0.66463  0.74408  0.08780  1.0000 0.1009695979
H   H196      1.0  0.81859  0.70976  0.09951  1.0000 0.1009695979
H   H197      1.0  0.47674  0.70735  0.11496  1.0000 0.0820754408
H   H198      1.0  0.63257  0.66589  0.12393  1.0000 0.0820754408
H   H199      1.0  0.49407  0.63981  0.08497  1.0000 0.1319510618
H   H200      1.0  0.44071  0.59762  0.10423  1.0000 0.1369916063
H   H201      1.0  0.43918  0.91773  0.15374  1.0000 0.1319510618
H   H202      1.0  0.62875  0.93535  0.14692  1.0000 0.1319510618
H   H203      1.0  0.37109  0.03629  0.15398  1.0000 0.1009695979
H   H204      1.0  0.56189  0.05328  0.14763  1.0000 0.0906197614
H   H205      1.0  0.47202  0.99013  0.18499  1.0000 0.0906197614
H   H206      1.0  0.66246  0.00737  0.17865  1.0000 0.0906197614
H   H207      1.0  0.40618  0.10840  0.18651  1.0000 0.1319510618
H   H208      1.0  0.59653  0.12605  0.17990  1.0000 0.1319510618
H   H209      1.0  0.33303  0.26887  0.24444  1.0000 0.1369916063
H   H210      1.0  0.41026  0.22670  0.22631  1.0000 0.1369916063
H   H211      1.0  0.21504  0.28063  0.20397  1.0000 0.0906197614
H   H212      1.0  0.14346  0.32397  0.22216  1.0000 0.1009695979
H   H213      1.0  0.48798  0.33492  0.20829  1.0000 0.0820754408
H   H214      1.0  0.34230  0.38519  0.20128  1.0000 0.0820754408
H   H215      1.0  0.52785  0.42954  0.22761  1.0000 0.1369916063
H   H216      1.0  0.44521  0.37624  0.24252  1.0000 0.1369916063
H   H217      1.0  0.37821  0.08615  0.51917  1.0000 0.1319510618
H   H218      1.0  0.56884  0.10574  0.51321  1.0000 0.1319510618
H   H219      1.0  0.64490  0.98796  0.51282  1.0000 0.0906197614
H   H220      1.0  0.45480  0.96844  0.51876  1.0000 0.0906197614
H   H221      1.0  0.30437  0.24749  0.57973  1.0000 0.1369916063
H   H222      1.0  0.39185  0.20147  0.56314  1.0000 0.1369916063
H   H223      1.0  0.20574  0.25301  0.53834  1.0000 0.0906197614
H   H224      1.0  0.14135  0.30332  0.55528  1.0000 0.1009695979
H   H225      1.0  0.49066  0.29936  0.54211  1.0000 0.0820754408
H   H226      1.0  0.35770  0.35259  0.53364  1.0000 0.0820754408
H   H227      1.0  0.54756  0.39695  0.55973  1.0000 0.1369916063
H   H228      1.0  0.45187  0.34994  0.57536  1.0000 0.1369916063
H   H229      1.0  0.72946  0.21466  0.62716  1.0000 0.1319510618
H   H230      1.0  0.87682  0.17893  0.61461  1.0000 0.1319510618
H   H231      1.0  0.83537  0.25592  0.58780  1.0000 0.1009695979
H   H232      1.0  0.68141  0.29024  0.59951  1.0000 0.1009695979
H   H233      1.0  0.02326  0.29265  0.61496  1.0000 0.0820754408
H   H234      1.0  0.86743  0.33411  0.62393  1.0000 0.0820754408
H   H235      1.0  0.00593  0.36019  0.58497  1.0000 0.1319510618
H   H236      1.0  0.05929  0.40238  0.60423  1.0000 0.1369916063
H   H237      1.0  0.06082  0.08227  0.65374  1.0000 0.1319510618
H   H238      1.0  0.87125  0.06465  0.64692  1.0000 0.1319510618
H   H239      1.0  0.12891  0.96371  0.65398  1.0000 0.1009695979
H   H240      1.0  0.93811  0.94672  0.64763  1.0000 0.0906197614
H   H241      1.0  0.02798  0.00987  0.68499  1.0000 0.0906197614
H   H242      1.0  0.83754  0.99263  0.67865  1.0000 0.0906197614
H   H243      1.0  0.09382  0.89160  0.68651  1.0000 0.1319510618
H   H244      1.0  0.90347  0.87395  0.67990  1.0000 0.1319510618
H   H245      1.0  0.16697  0.73113  0.74444  1.0000 0.1369916063
H   H246      1.0  0.08974  0.77330  0.72631  1.0000 0.1369916063
H   H247      1.0  0.28496  0.71937  0.70397  1.0000 0.0906197614
H   H248      1.0  0.35654  0.67603  0.72216  1.0000 0.1009695979
H   H249      1.0  0.01202  0.66508  0.70829  1.0000 0.0820754408
H   H250      1.0  0.15770  0.61481  0.70128  1.0000 0.0820754408
H   H251      1.0  0.97215  0.57046  0.72761  1.0000 0.1369916063
H   H252      1.0  0.05479  0.62376  0.74252  1.0000 0.1369916063
H   H253      1.0  0.12179  0.58615  0.98083  1.0000 0.1319510618
H   H254      1.0  0.93116  0.60574  0.98679  1.0000 0.1319510618
H   H255      1.0  0.85510  0.48796  0.98718  1.0000 0.0906197614
H   H256      1.0  0.04520  0.46844  0.98124  1.0000 0.0906197614
H   H257      1.0  0.19563  0.74749  0.92027  1.0000 0.1369916063
H   H258      1.0  0.10815  0.70147  0.93686  1.0000 0.1369916063
H   H259      1.0  0.29426  0.75301  0.96166  1.0000 0.0906197614
H   H260      1.0  0.35865  0.80332  0.94472  1.0000 0.1009695979
H   H261      1.0  0.00934  0.79936  0.95789  1.0000 0.0820754408
H   H262      1.0  0.14230  0.85259  0.96636  1.0000 0.0820754408
H   H263      1.0  0.95244  0.89695  0.94027  1.0000 0.1369916063
H   H264      1.0  0.04813  0.84994  0.92464  1.0000 0.1369916063
H   H265      1.0  0.77054  0.71466  0.87284  1.0000 0.1319510618
H   H266      1.0  0.62318  0.67893  0.88539  1.0000 0.1319510618
H   H267      1.0  0.66463  0.75592  0.91220  1.0000 0.1009695979
H   H268      1.0  0.81859  0.79024  0.90049  1.0000 0.1009695979
H   H269      1.0  0.47674  0.79265  0.88504  1.0000 0.0820754408
H   H270      1.0  0.63257  0.83411  0.87607  1.0000 0.0820754408
H   H271      1.0  0.49407  0.86019  0.91503  1.0000 0.1319510618
H   H272      1.0  0.44071  0.90238  0.89577  1.0000 0.1369916063
H   H273      1.0  0.43918  0.58227  0.84626  1.0000 0.1319510618
H   H274      1.0  0.62875  0.56465  0.85308  1.0000 0.1319510618
H   H275      1.0  0.37109  0.46371  0.84602  1.0000 0.1009695979
H   H276      1.0  0.56189  0.44672  0.85237  1.0000 0.0906197614
H   H277      1.0  0.47202  0.50987  0.81501  1.0000 0.0906197614
H   H278      1.0  0.66246  0.49263  0.82135  1.0000 0.0906197614
H   H279      1.0  0.40618  0.39160  0.81349  1.0000 0.1319510618
H   H280      1.0  0.59653  0.37395  0.82010  1.0000 0.1319510618
H   H281      1.0  0.33303  0.23113  0.75556  1.0000 0.1369916063
H   H282      1.0  0.41026  0.27330  0.77369  1.0000 0.1369916063
H   H283      1.0  0.21504  0.21937  0.79603  1.0000 0.0906197614
H   H284      1.0  0.14346  0.17603  0.77784  1.0000 0.1009695979
H   H285      1.0  0.48798  0.16508  0.79171  1.0000 0.0820754408
H   H286      1.0  0.34230  0.11481  0.79872  1.0000 0.0820754408
H   H287      1.0  0.52785  0.07046  0.77239  1.0000 0.1369916063
H   H288      1.0  0.44521  0.12376  0.75748  1.0000 0.1369916063
C   C1        1.0  0.45000  0.57030  0.54263  1.0000 0.6898223269
C   C2        1.0  0.50160  0.57260  0.52042  1.0000 -0.3289124281
C   C3        1.0  0.47530  0.50120  0.51131  1.0000 -0.1407871846
C   C4        1.0  0.85320  0.67080  0.56988  1.0000 0.6600631533
C   C5        1.0  0.71510  0.72410  0.56691  1.0000 -0.3289124281
C   C6        1.0  0.76020  0.77680  0.55066  1.0000 -0.1279366974
C   C7        1.0  0.61070  0.82610  0.54557  1.0000 -0.1199399051
C   C8        1.0  0.56290  0.87610  0.56293  1.0000 -0.3289124281
C   C9        1.0  0.69280  0.93230  0.56686  1.0000 0.6539165882
C   C10       1.0  0.36370  0.65760  0.60359  1.0000 0.6600631533
C   C11       1.0  0.23240  0.70300  0.61353  1.0000 -0.3234946279
C   C12       1.0  0.20780  0.76780  0.60121  1.0000 -0.1407871846
C   C13       1.0  0.08150  0.81720  0.61142  1.0000 -0.1199399051
C   C14       1.0  0.03510  0.87740  0.59795  1.0000 -0.3400445374
C   C15       1.0  0.18250  0.92650  0.59410  1.0000 0.6539165882
C   C16       1.0  0.95090  0.54900  0.62390  1.0000 0.6898223269
C   C17       1.0  0.00910  0.55010  0.64610  1.0000 -0.3234946279
C   C18       1.0  0.99030  0.47850  0.65520  1.0000 -0.1407871846
C   C19       1.0  0.04330  0.47770  0.67752  1.0000 -0.1407871846
C   C20       1.0  0.02550  0.40670  0.68717  1.0000 -0.3289124281
C   C21       1.0  0.08310  0.41160  0.70906  1.0000 0.6898223269
C   C22       1.0  0.67320  0.30780  0.73508  1.0000 0.6600631533
C   C23       1.0  0.80530  0.25250  0.73151  1.0000 -0.3289124281
C   C24       1.0  0.74630  0.19780  0.71674  1.0000 -0.1279366974
C   C25       1.0  0.88200  0.14280  0.71255  1.0000 -0.1199399051
C   C26       1.0  0.92300  0.09570  0.73061  1.0000 -0.3289124281
C   C27       1.0  0.78070  0.04550  0.73558  1.0000 0.6600631533
C   C28       1.0  0.05000  0.07030  0.95737  1.0000 0.6898223269
C   C29       1.0  0.99840  0.07260  0.97958  1.0000 -0.3289124281
C   C30       1.0  0.02470  0.00120  0.98869  1.0000 -0.1407871846
C   C31       1.0  0.64680  0.17080  0.93012  1.0000 0.6600631533
C   C32       1.0  0.78490  0.22410  0.93309  1.0000 -0.3289124281
C   C33       1.0  0.73980  0.27680  0.94934  1.0000 -0.1279366974
C   C34       1.0  0.88930  0.32610  0.95443  1.0000 -0.1199399051
C   C35       1.0  0.93710  0.37610  0.93707  1.0000 -0.3289124281
C   C36       1.0  0.80720  0.43230  0.93314  1.0000 0.6539165882
C   C37       1.0  0.13630  0.15760  0.89641  1.0000 0.6600631533
C   C38       1.0  0.26760  0.20300  0.88647  1.0000 -0.3234946279
C   C39       1.0  0.29220  0.26780  0.89879  1.0000 -0.1407871846
C   C40       1.0  0.41850  0.31720  0.88858  1.0000 -0.1199399051
C   C41       1.0  0.46490  0.37740  0.90205  1.0000 -0.3400445374
C   C42       1.0  0.31750  0.42650  0.90590  1.0000 0.6539165882
C   C43       1.0  0.54910  0.04900  0.87610  1.0000 0.6898223269
C   C44       1.0  0.49090  0.05010  0.85390  1.0000 -0.3234946279
C   C45       1.0  0.50970  0.97850  0.84480  1.0000 -0.1407871846
C   C46       1.0  0.45670  0.97770  0.82248  1.0000 -0.1407871846
C   C47       1.0  0.47450  0.90670  0.81283  1.0000 -0.3289124281
C   C48       1.0  0.41690  0.91160  0.79094  1.0000 0.6898223269
C   C49       1.0  0.82680  0.80780  0.76492  1.0000 0.6600631533
C   C50       1.0  0.69470  0.75250  0.76849  1.0000 -0.3289124281
C   C51       1.0  0.75370  0.69780  0.78326  1.0000 -0.1279366974
C   C52       1.0  0.61800  0.64280  0.78745  1.0000 -0.1199399051
C   C53       1.0  0.57700  0.59570  0.76939  1.0000 -0.3289124281
C   C54       1.0  0.71930  0.54550  0.76442  1.0000 0.6600631533
C   C55       1.0  0.45000  0.92970  0.45737  1.0000 0.6898223269
C   C56       1.0  0.50160  0.92740  0.47958  1.0000 -0.3289124281
C   C57       1.0  0.47530  0.99880  0.48869  1.0000 -0.1407871846
C   C58       1.0  0.85320  0.82920  0.43012  1.0000 0.6600631533
C   C59       1.0  0.71510  0.77590  0.43309  1.0000 -0.3289124281
C   C60       1.0  0.76020  0.72320  0.44934  1.0000 -0.1279366974
C   C61       1.0  0.61070  0.67390  0.45443  1.0000 -0.1199399051
C   C62       1.0  0.56290  0.62390  0.43707  1.0000 -0.3289124281
C   C63       1.0  0.69280  0.56770  0.43314  1.0000 0.6539165882
C   C64       1.0  0.36370  0.84240  0.39641  1.0000 0.6600631533
C   C65       1.0  0.23240  0.79700  0.38647  1.0000 -0.3234946279
C   C66       1.0  0.20780  0.73220  0.39879  1.0000 -0.1407871846
C   C67       1.0  0.08150  0.68280  0.38858  1.0000 -0.1199399051
C   C68       1.0  0.03510  0.62260  0.40205  1.0000 -0.3400445374
C   C69       1.0  0.18250  0.57350  0.40590  1.0000 0.6539165882
C   C70       1.0  0.95090  0.95100  0.37610  1.0000 0.6898223269
C   C71       1.0  0.00910  0.94990  0.35390  1.0000 -0.3234946279
C   C72       1.0  0.99030  0.02150  0.34480  1.0000 -0.1407871846
C   C73       1.0  0.04330  0.02230  0.32248  1.0000 -0.1407871846
C   C74       1.0  0.02550  0.09330  0.31283  1.0000 -0.3289124281
C   C75       1.0  0.08310  0.08840  0.29094  1.0000 0.6898223269
C   C76       1.0  0.67320  0.19220  0.26492  1.0000 0.6600631533
C   C77       1.0  0.80530  0.24750  0.26849  1.0000 -0.3289124281
C   C78       1.0  0.74630  0.30220  0.28326  1.0000 -0.1279366974
C   C79       1.0  0.88200  0.35720  0.28745  1.0000 -0.1199399051
C   C80       1.0  0.92300  0.40430  0.26939  1.0000 -0.3289124281
C   C81       1.0  0.78070  0.45450  0.26442  1.0000 0.6600631533
C   C82       1.0  0.05000  0.42970  0.04263  1.0000 0.6898223269
C   C83       1.0  0.99840  0.42740  0.02042  1.0000 -0.3289124281
C   C84       1.0  0.02470  0.49880  0.01131  1.0000 -0.1407871846
C   C85       1.0  0.64680  0.32920  0.06988  1.0000 0.6600631533
C   C86       1.0  0.78490  0.27590  0.06691  1.0000 -0.3289124281
C   C87       1.0  0.73980  0.22320  0.05066  1.0000 -0.1279366974
C   C88       1.0  0.88930  0.17390  0.04557  1.0000 -0.1199399051
C   C89       1.0  0.93710  0.12390  0.06293  1.0000 -0.3289124281
C   C90       1.0  0.80720  0.06770  0.06686  1.0000 0.6539165882
C   C91       1.0  0.13630  0.34240  0.10359  1.0000 0.6600631533
C   C92       1.0  0.26760  0.29700  0.11353  1.0000 -0.3234946279
C   C93       1.0  0.29220  0.23220  0.10121  1.0000 -0.1407871846
C   C94       1.0  0.41850  0.18280  0.11142  1.0000 -0.1199399051
C   C95       1.0  0.46490  0.12260  0.09795  1.0000 -0.3400445374
C   C96       1.0  0.31750  0.07350  0.09410  1.0000 0.6539165882
C   C97       1.0  0.54910  0.45100  0.12390  1.0000 0.6898223269
C   C98       1.0  0.49090  0.44990  0.14610  1.0000 -0.3234946279
C   C99       1.0  0.50970  0.52150  0.15520  1.0000 -0.1407871846
C   C100      1.0  0.45670  0.52230  0.17752  1.0000 -0.1407871846
C   C101      1.0  0.47450  0.59330  0.18717  1.0000 -0.3289124281
C   C102      1.0  0.41690  0.58840  0.20906  1.0000 0.6898223269
C   C103      1.0  0.82680  0.69220  0.23508  1.0000 0.6600631533
C   C104      1.0  0.69470  0.74750  0.23151  1.0000 -0.3289124281
C   C105      1.0  0.75370  0.80220  0.21674  1.0000 -0.1279366974
C   C106      1.0  0.61800  0.85720  0.21255  1.0000 -0.1199399051
C   C107      1.0  0.57700  0.90430  0.23061  1.0000 -0.3289124281
C   C108      1.0  0.71930  0.95450  0.23558  1.0000 0.6600631533
C   C109      1.0  0.55000  0.42970  0.45737  1.0000 0.6898223269
C   C110      1.0  0.49840  0.42740  0.47958  1.0000 -0.3289124281
C   C111      1.0  0.52470  0.49880  0.48869  1.0000 -0.1407871846
C   C112      1.0  0.14680  0.32920  0.43012  1.0000 0.6600631533
C   C113      1.0  0.28490  0.27590  0.43309  1.0000 -0.3289124281
C   C114      1.0  0.23980  0.22320  0.44934  1.0000 -0.1279366974
C   C115      1.0  0.38930  0.17390  0.45443  1.0000 -0.1199399051
C   C116      1.0  0.43710  0.12390  0.43707  1.0000 -0.3289124281
C   C117      1.0  0.30720  0.06770  0.43314  1.0000 0.6539165882
C   C118      1.0  0.63630  0.34240  0.39641  1.0000 0.6600631533
C   C119      1.0  0.76760  0.29700  0.38647  1.0000 -0.3234946279
C   C120      1.0  0.79220  0.23220  0.39879  1.0000 -0.1407871846
C   C121      1.0  0.91850  0.18280  0.38858  1.0000 -0.1199399051
C   C122      1.0  0.96490  0.12260  0.40205  1.0000 -0.3400445374
C   C123      1.0  0.81750  0.07350  0.40590  1.0000 0.6539165882
C   C124      1.0  0.04910  0.45100  0.37610  1.0000 0.6898223269
C   C125      1.0  0.99090  0.44990  0.35390  1.0000 -0.3234946279
C   C126      1.0  0.00970  0.52150  0.34480  1.0000 -0.1407871846
C   C127      1.0  0.95670  0.52230  0.32248  1.0000 -0.1407871846
C   C128      1.0  0.97450  0.59330  0.31283  1.0000 -0.3289124281
C   C129      1.0  0.91690  0.58840  0.29094  1.0000 0.6898223269
C   C130      1.0  0.32680  0.69220  0.26492  1.0000 0.6600631533
C   C131      1.0  0.19470  0.74750  0.26849  1.0000 -0.3289124281
C   C132      1.0  0.25370  0.80220  0.28326  1.0000 -0.1279366974
C   C133      1.0  0.11800  0.85720  0.28745  1.0000 -0.1199399051
C   C134      1.0  0.07700  0.90430  0.26939  1.0000 -0.3289124281
C   C135      1.0  0.21930  0.95450  0.26442  1.0000 0.6600631533
C   C136      1.0  0.95000  0.92970  0.04263  1.0000 0.6898223269
C   C137      1.0  0.00160  0.92740  0.02042  1.0000 -0.3289124281
C   C138      1.0  0.97530  0.99880  0.01131  1.0000 -0.1407871846
C   C139      1.0  0.35320  0.82920  0.06988  1.0000 0.6600631533
C   C140      1.0  0.21510  0.77590  0.06691  1.0000 -0.3289124281
C   C141      1.0  0.26020  0.72320  0.05066  1.0000 -0.1279366974
C   C142      1.0  0.11070  0.67390  0.04557  1.0000 -0.1199399051
C   C143      1.0  0.06290  0.62390  0.06293  1.0000 -0.3289124281
C   C144      1.0  0.19280  0.56770  0.06686  1.0000 0.6539165882
C   C145      1.0  0.86370  0.84240  0.10359  1.0000 0.6600631533
C   C146      1.0  0.73240  0.79700  0.11353  1.0000 -0.3234946279
C   C147      1.0  0.70780  0.73220  0.10121  1.0000 -0.1407871846
C   C148      1.0  0.58150  0.68280  0.11142  1.0000 -0.1199399051
C   C149      1.0  0.53510  0.62260  0.09795  1.0000 -0.3400445374
C   C150      1.0  0.68250  0.57350  0.09410  1.0000 0.6539165882
C   C151      1.0  0.45090  0.95100  0.12390  1.0000 0.6898223269
C   C152      1.0  0.50910  0.94990  0.14610  1.0000 -0.3234946279
C   C153      1.0  0.49030  0.02150  0.15520  1.0000 -0.1407871846
C   C154      1.0  0.54330  0.02230  0.17752  1.0000 -0.1407871846
C   C155      1.0  0.52550  0.09330  0.18717  1.0000 -0.3289124281
C   C156      1.0  0.58310  0.08840  0.20906  1.0000 0.6898223269
C   C157      1.0  0.17320  0.19220  0.23508  1.0000 0.6600631533
C   C158      1.0  0.30530  0.24750  0.23151  1.0000 -0.3289124281
C   C159      1.0  0.24630  0.30220  0.21674  1.0000 -0.1279366974
C   C160      1.0  0.38200  0.35720  0.21255  1.0000 -0.1199399051
C   C161      1.0  0.42300  0.40430  0.23061  1.0000 -0.3289124281
C   C162      1.0  0.28070  0.45450  0.23558  1.0000 0.6600631533
C   C163      1.0  0.55000  0.07030  0.54263  1.0000 0.6898223269
C   C164      1.0  0.49840  0.07260  0.52042  1.0000 -0.3289124281
C   C165      1.0  0.52470  0.00120  0.51131  1.0000 -0.1407871846
C   C166      1.0  0.14680  0.17080  0.56988  1.0000 0.6600631533
C   C167      1.0  0.28490  0.22410  0.56691  1.0000 -0.3289124281
C   C168      1.0  0.23980  0.27680  0.55066  1.0000 -0.1279366974
C   C169      1.0  0.38930  0.32610  0.54557  1.0000 -0.1199399051
C   C170      1.0  0.43710  0.37610  0.56293  1.0000 -0.3289124281
C   C171      1.0  0.30720  0.43230  0.56686  1.0000 0.6539165882
C   C172      1.0  0.63630  0.15760  0.60359  1.0000 0.6600631533
C   C173      1.0  0.76760  0.20300  0.61353  1.0000 -0.3234946279
C   C174      1.0  0.79220  0.26780  0.60121  1.0000 -0.1407871846
C   C175      1.0  0.91850  0.31720  0.61142  1.0000 -0.1199399051
C   C176      1.0  0.96490  0.37740  0.59795  1.0000 -0.3400445374
C   C177      1.0  0.81750  0.42650  0.59410  1.0000 0.6539165882
C   C178      1.0  0.04910  0.04900  0.62390  1.0000 0.6898223269
C   C179      1.0  0.99090  0.05010  0.64610  1.0000 -0.3234946279
C   C180      1.0  0.00970  0.97850  0.65520  1.0000 -0.1407871846
C   C181      1.0  0.95670  0.97770  0.67752  1.0000 -0.1407871846
C   C182      1.0  0.97450  0.90670  0.68717  1.0000 -0.3289124281
C   C183      1.0  0.91690  0.91160  0.70906  1.0000 0.6898223269
C   C184      1.0  0.32680  0.80780  0.73508  1.0000 0.6600631533
C   C185      1.0  0.19470  0.75250  0.73151  1.0000 -0.3289124281
C   C186      1.0  0.25370  0.69780  0.71674  1.0000 -0.1279366974
C   C187      1.0  0.11800  0.64280  0.71255  1.0000 -0.1199399051
C   C188      1.0  0.07700  0.59570  0.73061  1.0000 -0.3289124281
C   C189      1.0  0.21930  0.54550  0.73558  1.0000 0.6600631533
C   C190      1.0  0.95000  0.57030  0.95737  1.0000 0.6898223269
C   C191      1.0  0.00160  0.57260  0.97958  1.0000 -0.3289124281
C   C192      1.0  0.97530  0.50120  0.98869  1.0000 -0.1407871846
C   C193      1.0  0.35320  0.67080  0.93012  1.0000 0.6600631533
C   C194      1.0  0.21510  0.72410  0.93309  1.0000 -0.3289124281
C   C195      1.0  0.26020  0.77680  0.94934  1.0000 -0.1279366974
C   C196      1.0  0.11070  0.82610  0.95443  1.0000 -0.1199399051
C   C197      1.0  0.06290  0.87610  0.93707  1.0000 -0.3289124281
C   C198      1.0  0.19280  0.93230  0.93314  1.0000 0.6539165882
C   C199      1.0  0.86370  0.65760  0.89641  1.0000 0.6600631533
C   C200      1.0  0.73240  0.70300  0.88647  1.0000 -0.3234946279
C   C201      1.0  0.70780  0.76780  0.89879  1.0000 -0.1407871846
C   C202      1.0  0.58150  0.81720  0.88858  1.0000 -0.1199399051
C   C203      1.0  0.53510  0.87740  0.90205  1.0000 -0.3400445374
C   C204      1.0  0.68250  0.92650  0.90590  1.0000 0.6539165882
C   C205      1.0  0.45090  0.54900  0.87610  1.0000 0.6898223269
C   C206      1.0  0.50910  0.55010  0.85390  1.0000 -0.3234946279
C   C207      1.0  0.49030  0.47850  0.84480  1.0000 -0.1407871846
C   C208      1.0  0.54330  0.47770  0.82248  1.0000 -0.1407871846
C   C209      1.0  0.52550  0.40670  0.81283  1.0000 -0.3289124281
C   C210      1.0  0.58310  0.41160  0.79094  1.0000 0.6898223269
C   C211      1.0  0.17320  0.30780  0.76492  1.0000 0.6600631533
C   C212      1.0  0.30530  0.25250  0.76849  1.0000 -0.3289124281
C   C213      1.0  0.24630  0.19780  0.78326  1.0000 -0.1279366974
C   C214      1.0  0.38200  0.14280  0.78745  1.0000 -0.1199399051
C   C215      1.0  0.42300  0.09570  0.76939  1.0000 -0.3289124281
C   C216      1.0  0.28070  0.04550  0.76442  1.0000 0.6600631533
O   O1        1.0  0.82610  0.93900  0.55641  1.0000 -0.590790877
O   O2        1.0  0.32180  0.92340  0.60355  1.0000 -0.6000119167
O   O3        1.0  0.64200  0.04340  0.72604  1.0000 -0.590790877
O   O4        1.0  0.66110  0.97330  0.58174  1.0000 -0.7607296946
O   O5        1.0  0.15790  0.97390  0.58068  1.0000 -0.7782778533
O   O6        1.0  0.80750  0.00240  0.75029  1.0000 -0.7782778533
O   O7        1.0  0.99900  0.67500  0.56191  1.0000 -0.590790877
O   O8        1.0  0.51900  0.65860  0.60894  1.0000 -0.6000119167
O   O9        1.0  0.52640  0.30660  0.72695  1.0000 -0.6000119167
O   O10       1.0  0.81800  0.61820  0.58126  1.0000 -0.7782778533
O   O11       1.0  0.31590  0.61680  0.58905  1.0000 -0.7782778533
O   O12       1.0  0.71500  0.35810  0.74649  1.0000 -0.7607296946
O   O13       1.0  0.56390  0.55600  0.55583  1.0000 -0.6690148579
O   O14       1.0  0.79290  0.55500  0.62049  1.0000 -0.6495335491
O   O15       1.0  0.24170  0.40660  0.71269  1.0000 -0.6609787138
O   O16       1.0  0.29260  0.58000  0.54664  1.0000 -0.6690148579
O   O17       1.0  0.06550  0.53930  0.61029  1.0000 -0.6787680628
O   O18       1.0  0.96850  0.42460  0.72263  1.0000 -0.6869177537
O   O19       1.0  0.67390  0.43900  0.94359  1.0000 -0.590790877
O   O20       1.0  0.17820  0.42340  0.89645  1.0000 -0.6000119167
O   O21       1.0  0.85800  0.54340  0.77396  1.0000 -0.590790877
O   O22       1.0  0.83890  0.47330  0.91826  1.0000 -0.7607296946
O   O23       1.0  0.34210  0.47390  0.91932  1.0000 -0.7782778533
O   O24       1.0  0.69250  0.50240  0.74971  1.0000 -0.7782778533
O   O25       1.0  0.50100  0.17500  0.93809  1.0000 -0.590790877
O   O26       1.0  0.98100  0.15860  0.89106  1.0000 -0.6000119167
O   O27       1.0  0.97360  0.80660  0.77305  1.0000 -0.6000119167
O   O28       1.0  0.68200  0.11820  0.91874  1.0000 -0.7782778533
O   O29       1.0  0.18410  0.11680  0.91095  1.0000 -0.7782778533
O   O30       1.0  0.78500  0.85810  0.75351  1.0000 -0.7607296946
O   O31       1.0  0.93610  0.05600  0.94417  1.0000 -0.6690148579
O   O32       1.0  0.70710  0.05500  0.87951  1.0000 -0.6495335491
O   O33       1.0  0.25830  0.90660  0.78731  1.0000 -0.6609787138
O   O34       1.0  0.20740  0.08000  0.95336  1.0000 -0.6690148579
O   O35       1.0  0.43450  0.03930  0.88971  1.0000 -0.6787680628
O   O36       1.0  0.53150  0.92460  0.77737  1.0000 -0.6869177537
O   O37       1.0  0.82610  0.56100  0.44359  1.0000 -0.590790877
O   O38       1.0  0.32180  0.57660  0.39645  1.0000 -0.6000119167
O   O39       1.0  0.64200  0.45660  0.27396  1.0000 -0.590790877
O   O40       1.0  0.66110  0.52670  0.41826  1.0000 -0.7607296946
O   O41       1.0  0.15790  0.52610  0.41932  1.0000 -0.7782778533
O   O42       1.0  0.80750  0.49760  0.24971  1.0000 -0.7782778533
O   O43       1.0  0.99900  0.82500  0.43809  1.0000 -0.590790877
O   O44       1.0  0.51900  0.84140  0.39106  1.0000 -0.6000119167
O   O45       1.0  0.52640  0.19340  0.27305  1.0000 -0.6000119167
O   O46       1.0  0.81800  0.88180  0.41874  1.0000 -0.7782778533
O   O47       1.0  0.31590  0.88320  0.41095  1.0000 -0.7782778533
O   O48       1.0  0.71500  0.14190  0.25351  1.0000 -0.7607296946
O   O49       1.0  0.56390  0.94400  0.44417  1.0000 -0.6690148579
O   O50       1.0  0.79290  0.94500  0.37951  1.0000 -0.6495335491
O   O51       1.0  0.24170  0.09340  0.28731  1.0000 -0.6609787138
O   O52       1.0  0.29260  0.92000  0.45336  1.0000 -0.6690148579
O   O53       1.0  0.06550  0.96070  0.38971  1.0000 -0.6787680628
O   O54       1.0  0.96850  0.07540  0.27737  1.0000 -0.6869177537
O   O55       1.0  0.67390  0.06100  0.05641  1.0000 -0.590790877
O   O56       1.0  0.17820  0.07660  0.10355  1.0000 -0.6000119167
O   O57       1.0  0.85800  0.95660  0.22604  1.0000 -0.590790877
O   O58       1.0  0.83890  0.02670  0.08174  1.0000 -0.7607296946
O   O59       1.0  0.34210  0.02610  0.08068  1.0000 -0.7744272145
O   O60       1.0  0.69250  0.99760  0.25029  1.0000 -0.7782778533
O   O61       1.0  0.50100  0.32500  0.06191  1.0000 -0.590790877
O   O62       1.0  0.98100  0.34140  0.10894  1.0000 -0.6000119167
O   O63       1.0  0.97360  0.69340  0.22695  1.0000 -0.6000119167
O   O64       1.0  0.68200  0.38180  0.08126  1.0000 -0.7782778533
O   O65       1.0  0.18410  0.38320  0.08905  1.0000 -0.7782778533
O   O66       1.0  0.78500  0.64190  0.24649  1.0000 -0.7607296946
O   O67       1.0  0.93610  0.44400  0.05583  1.0000 -0.6690148579
O   O68       1.0  0.70710  0.44500  0.12049  1.0000 -0.6495335491
O   O69       1.0  0.25830  0.59340  0.21269  1.0000 -0.6609787138
O   O70       1.0  0.20740  0.42000  0.04664  1.0000 -0.6690148579
O   O71       1.0  0.43450  0.46070  0.11029  1.0000 -0.6787680628
O   O72       1.0  0.53150  0.57540  0.22263  1.0000 -0.6869177537
O   O73       1.0  0.17390  0.06100  0.44359  1.0000 -0.590790877
O   O74       1.0  0.67820  0.07660  0.39645  1.0000 -0.6000119167
O   O75       1.0  0.35800  0.95660  0.27396  1.0000 -0.590790877
O   O76       1.0  0.33890  0.02670  0.41826  1.0000 -0.7607296946
O   O77       1.0  0.84210  0.02610  0.41932  1.0000 -0.7744272145
O   O78       1.0  0.19250  0.99760  0.24971  1.0000 -0.7782778533
O   O79       1.0  0.00100  0.32500  0.43809  1.0000 -0.590790877
O   O80       1.0  0.48100  0.34140  0.39106  1.0000 -0.6000119167
O   O81       1.0  0.47360  0.69340  0.27305  1.0000 -0.6000119167
O   O82       1.0  0.18200  0.38180  0.41874  1.0000 -0.7782778533
O   O83       1.0  0.68410  0.38320  0.41095  1.0000 -0.7782778533
O   O84       1.0  0.28500  0.64190  0.25351  1.0000 -0.7607296946
O   O85       1.0  0.43610  0.44400  0.44417  1.0000 -0.6690148579
O   O86       1.0  0.20710  0.44500  0.37951  1.0000 -0.6495335491
O   O87       1.0  0.75830  0.59340  0.28731  1.0000 -0.6609787138
O   O88       1.0  0.70740  0.42000  0.45336  1.0000 -0.6690148579
O   O89       1.0  0.93450  0.46070  0.38971  1.0000 -0.6787680628
O   O90       1.0  0.03150  0.57540  0.27737  1.0000 -0.6869177537
O   O91       1.0  0.32610  0.56100  0.05641  1.0000 -0.590790877
O   O92       1.0  0.82180  0.57660  0.10355  1.0000 -0.6000119167
O   O93       1.0  0.14200  0.45660  0.22604  1.0000 -0.590790877
O   O94       1.0  0.16110  0.52670  0.08174  1.0000 -0.7607296946
O   O95       1.0  0.65790  0.52610  0.08068  1.0000 -0.7782778533
O   O96       1.0  0.30750  0.49760  0.25029  1.0000 -0.7782778533
O   O97       1.0  0.49900  0.82500  0.06191  1.0000 -0.590790877
O   O98       1.0  0.01900  0.84140  0.10894  1.0000 -0.6000119167
O   O99       1.0  0.02640  0.19340  0.22695  1.0000 -0.6000119167
O   O100      1.0  0.31800  0.88180  0.08126  1.0000 -0.7782778533
O   O101      1.0  0.81590  0.88320  0.08905  1.0000 -0.7782778533
O   O102      1.0  0.21500  0.14190  0.24649  1.0000 -0.7607296946
O   O103      1.0  0.06390  0.94400  0.05583  1.0000 -0.6690148579
O   O104      1.0  0.29290  0.94500  0.12049  1.0000 -0.6495335491
O   O105      1.0  0.74170  0.09340  0.21269  1.0000 -0.6609787138
O   O106      1.0  0.79260  0.92000  0.04664  1.0000 -0.6690148579
O   O107      1.0  0.56550  0.96070  0.11029  1.0000 -0.6787680628
O   O108      1.0  0.46850  0.07540  0.22263  1.0000 -0.6869177537
O   O109      1.0  0.17390  0.43900  0.55641  1.0000 -0.590790877
O   O110      1.0  0.67820  0.42340  0.60355  1.0000 -0.6000119167
O   O111      1.0  0.35800  0.54340  0.72604  1.0000 -0.590790877
O   O112      1.0  0.33890  0.47330  0.58174  1.0000 -0.7607296946
O   O113      1.0  0.84210  0.47390  0.58068  1.0000 -0.7782778533
O   O114      1.0  0.19250  0.50240  0.75029  1.0000 -0.7782778533
O   O115      1.0  0.00100  0.17500  0.56191  1.0000 -0.590790877
O   O116      1.0  0.48100  0.15860  0.60894  1.0000 -0.6000119167
O   O117      1.0  0.47360  0.80660  0.72695  1.0000 -0.6000119167
O   O118      1.0  0.18200  0.11820  0.58126  1.0000 -0.7782778533
O   O119      1.0  0.68410  0.11680  0.58905  1.0000 -0.7782778533
O   O120      1.0  0.28500  0.85810  0.74649  1.0000 -0.7607296946
O   O121      1.0  0.43610  0.05600  0.55583  1.0000 -0.6690148579
O   O122      1.0  0.20710  0.05500  0.62049  1.0000 -0.6495335491
O   O123      1.0  0.75830  0.90660  0.71269  1.0000 -0.6609787138
O   O124      1.0  0.70740  0.08000  0.54664  1.0000 -0.6690148579
O   O125      1.0  0.93450  0.03930  0.61029  1.0000 -0.6787680628
O   O126      1.0  0.03150  0.92460  0.72263  1.0000 -0.6869177537
O   O127      1.0  0.32610  0.93900  0.94359  1.0000 -0.590790877
O   O128      1.0  0.82180  0.92340  0.89645  1.0000 -0.6000119167
O   O129      1.0  0.14200  0.04340  0.77396  1.0000 -0.590790877
O   O130      1.0  0.16110  0.97330  0.91826  1.0000 -0.7607296946
O   O131      1.0  0.65790  0.97390  0.91932  1.0000 -0.7782778533
O   O132      1.0  0.30750  0.00240  0.74971  1.0000 -0.7782778533
O   O133      1.0  0.49900  0.67500  0.93809  1.0000 -0.590790877
O   O134      1.0  0.01900  0.65860  0.89106  1.0000 -0.6000119167
O   O135      1.0  0.02640  0.30660  0.77305  1.0000 -0.6000119167
O   O136      1.0  0.31800  0.61820  0.91874  1.0000 -0.7782778533
O   O137      1.0  0.81590  0.61680  0.91095  1.0000 -0.7782778533
O   O138      1.0  0.21500  0.35810  0.75351  1.0000 -0.7607296946
O   O139      1.0  0.06390  0.55600  0.94417  1.0000 -0.6690148579
O   O140      1.0  0.29290  0.55500  0.87951  1.0000 -0.6495335491
O   O141      1.0  0.74170  0.40660  0.78731  1.0000 -0.6609787138
O   O142      1.0  0.79260  0.58000  0.95336  1.0000 -0.6690148579
O   O143      1.0  0.56550  0.53930  0.88971  1.0000 -0.6787680628
O   O144      1.0  0.46850  0.42460  0.77737  1.0000 -0.6869177537
