# DDEC6 charges by PACMAN v1.1 (https://github.com/mtap-research/PACMAN-charge/)
data_2020[Co][nan]3[ASR]19
_chemical_formula_sum              "Co16 H240 C384 N32 O72"
_cell_length_a       16.54
_cell_length_b       23.792
_cell_length_c       31.055
_cell_angle_alpha    90
_cell_angle_beta     94.255
_cell_angle_gamma    90

_symmetry_space_group_name_H-M    "P 1"
_symmetry_Int_Tables_number       1

loop_
  _symmetry_equiv_pos_as_xyz
  'x, y, z'

loop_
  _atom_site_type_symbol
  _atom_site_label
  _atom_site_symmetry_multiplicity
  _atom_site_fract_x
  _atom_site_fract_y
  _atom_site_fract_z
  _atom_site_occupancy
  _atom_site_charge
Co  Co1       1.0  0.04253  0.32102  0.28072  1.0000 0.8626189223
Co  Co2       1.0  0.70777  0.67660  0.22418  1.0000 0.9188405117
Co  Co3       1.0  0.87846  0.17703  0.28385  1.0000 0.9035838833
Co  Co4       1.0  0.95469  0.32440  0.77639  1.0000 0.8667541137
Co  Co5       1.0  0.45747  0.82102  0.71928  1.0000 0.8626189223
Co  Co6       1.0  0.79223  0.17660  0.77582  1.0000 0.9188405117
Co  Co7       1.0  0.62154  0.67703  0.71615  1.0000 0.9057424655
Co  Co8       1.0  0.54531  0.82440  0.22361  1.0000 0.8667541137
Co  Co9       1.0  0.95747  0.67898  0.71928  1.0000 0.8626189223
Co  Co10      1.0  0.29223  0.32340  0.77582  1.0000 0.9188405117
Co  Co11      1.0  0.12154  0.82297  0.71615  1.0000 0.9035838833
Co  Co12      1.0  0.04531  0.67560  0.22361  1.0000 0.8667541137
Co  Co13      1.0  0.54253  0.17898  0.28072  1.0000 0.8626189223
Co  Co14      1.0  0.20777  0.82340  0.22418  1.0000 0.9188405117
Co  Co15      1.0  0.37846  0.32297  0.28385  1.0000 0.9035838833
Co  Co16      1.0  0.45469  0.17560  0.77639  1.0000 0.8667541137
H   H1        1.0  0.71718  0.27827  0.28135  1.0000 0.12961923
H   H2        1.0  0.59152  0.41790  0.29923  1.0000 0.1585370144
H   H3        1.0  0.83223  0.42579  0.29940  1.0000 0.1363082248
H   H4        1.0  0.80290  0.50258  0.37421  1.0000 0.12961923
H   H5        1.0  0.91432  0.56214  0.38077  1.0000 0.1105733955
H   H6        1.0  0.94610  0.61752  0.32365  1.0000 0.1105733955
H   H7        1.0  0.81463  0.99410  0.14530  1.0000 0.12961923
H   H8        1.0  0.71261  0.05499  0.12514  1.0000 0.1105733955
H   H9        1.0  0.65869  0.11177  0.17668  1.0000 0.1105733955
H   H10       1.0  0.86387  0.77267  0.21533  1.0000 0.12961923
H   H11       1.0  0.76104  0.92385  0.22045  1.0000 0.1363082248
H   H12       1.0  0.00379  0.91047  0.22329  1.0000 0.1585370144
H   H13       1.0  0.84942  0.35056  0.69442  1.0000 0.1105733955
H   H14       1.0  0.84035  0.33245  0.62131  1.0000 0.12961923
H   H15       1.0  0.01920  0.22274  0.64037  1.0000 0.12961923
H   H16       1.0  0.02819  0.24697  0.71157  1.0000 0.1011632672
H   H17       1.0  0.86254  0.33094  0.55168  1.0000 0.1181987408
H   H18       1.0  0.79776  0.74823  0.29602  1.0000 0.1011632672
H   H19       1.0  0.83083  0.74633  0.36813  1.0000 0.1181987408
H   H20       1.0  0.66995  0.62445  0.38048  1.0000 0.12961923
H   H21       1.0  0.64158  0.62878  0.30638  1.0000 0.1105733955
H   H22       1.0  0.74366  0.60206  0.44056  1.0000 0.1105733955
H   H23       1.0  0.78296  0.59636  0.51251  1.0000 0.1181987408
H   H24       1.0  0.87399  0.75048  0.50854  1.0000 0.1105733955
H   H25       1.0  0.82501  0.75731  0.43504  1.0000 0.1105733955
H   H26       1.0  0.62394  0.73818  0.14497  1.0000 0.1105733955
H   H27       1.0  0.60003  0.73297  0.07210  1.0000 0.1181987408
H   H28       1.0  0.75134  0.60278  0.07290  1.0000 0.12961923
H   H29       1.0  0.76640  0.60762  0.14648  1.0000 0.1181987408
H   H30       1.0  0.66270  0.58318  0.00600  1.0000 0.1181987408
H   H31       1.0  0.64540  0.58528  0.93061  1.0000 0.1181987408
H   H32       1.0  0.66627  0.75240  0.00638  1.0000 0.1105733955
H   H33       1.0  0.99538  0.72681  0.63416  1.0000 0.1011632672
H   H34       1.0  0.95179  0.72658  0.56107  1.0000 0.1181987408
H   H35       1.0  0.79576  0.60632  0.58437  1.0000 0.1363082248
H   H36       1.0  0.83881  0.61030  0.65609  1.0000 0.1181987408
H   H37       1.0  0.54198  0.61503  0.79093  1.0000 0.1105733955
H   H38       1.0  0.55270  0.60720  0.86428  1.0000 0.12961923
H   H39       1.0  0.70802  0.73612  0.86791  1.0000 0.12961923
H   H40       1.0  0.69189  0.73998  0.79445  1.0000 0.1011632672
H   H41       1.0  0.64908  0.75011  0.93167  1.0000 0.1105733955
H   H42       1.0  0.78124  0.24119  0.35178  1.0000 0.1105733955
H   H43       1.0  0.78755  0.25913  0.42453  1.0000 0.12961923
H   H44       1.0  0.97933  0.15811  0.44108  1.0000 0.12961923
H   H45       1.0  0.96527  0.13902  0.36830  1.0000 0.1181987408
H   H46       1.0  0.94463  0.15631  0.50925  1.0000 0.1181987408
H   H47       1.0  0.96100  0.18012  0.58098  1.0000 0.1105733955
H   H48       1.0  0.85010  0.30513  0.48035  1.0000 0.1181987408
H   H49       1.0  0.85810  0.37231  0.85347  1.0000 0.1105733955
H   H50       1.0  0.86877  0.37378  0.92680  1.0000 0.12961923
H   H51       1.0  0.10182  0.33031  0.92343  1.0000 0.12961923
H   H52       1.0  0.08378  0.32784  0.85020  1.0000 0.1181987408
H   H53       1.0  0.88055  0.37493  0.99204  1.0000 0.1105733955
H   H54       1.0  0.88906  0.36685  0.06619  1.0000 0.1105733955
H   H55       1.0  0.11619  0.31255  0.06565  1.0000 0.1181987408
H   H56       1.0  0.10599  0.31760  0.99130  1.0000 0.1105733955
H   H57       1.0  0.91656  0.38227  0.13401  1.0000 0.12961923
H   H58       1.0  0.08559  0.26476  0.12622  1.0000 0.12961923
H   H59       1.0  0.08911  0.25504  0.20070  1.0000 0.1011632672
H   H60       1.0  0.92570  0.36828  0.20805  1.0000 0.1105733955
H   H61       1.0  0.78282  0.77827  0.71865  1.0000 0.12961923
H   H62       1.0  0.90848  0.91790  0.70077  1.0000 0.1585370144
H   H63       1.0  0.66777  0.92579  0.70060  1.0000 0.1363082248
H   H64       1.0  0.69710  0.00258  0.62579  1.0000 0.12961923
H   H65       1.0  0.58568  0.06214  0.61923  1.0000 0.1105733955
H   H66       1.0  0.55390  0.11752  0.67635  1.0000 0.1105733955
H   H67       1.0  0.68537  0.49410  0.85470  1.0000 0.12961923
H   H68       1.0  0.78739  0.55499  0.87486  1.0000 0.1105733955
H   H69       1.0  0.84131  0.61177  0.82332  1.0000 0.1105733955
H   H70       1.0  0.63613  0.27267  0.78467  1.0000 0.12961923
H   H71       1.0  0.73896  0.42385  0.77955  1.0000 0.1363082248
H   H72       1.0  0.49621  0.41047  0.77671  1.0000 0.1585370144
H   H73       1.0  0.65058  0.85056  0.30558  1.0000 0.1105733955
H   H74       1.0  0.65965  0.83245  0.37869  1.0000 0.12961923
H   H75       1.0  0.48080  0.72274  0.35963  1.0000 0.12961923
H   H76       1.0  0.47181  0.74697  0.28843  1.0000 0.1011632672
H   H77       1.0  0.63746  0.83094  0.44832  1.0000 0.1181987408
H   H78       1.0  0.70224  0.24823  0.70398  1.0000 0.1011632672
H   H79       1.0  0.66917  0.24633  0.63187  1.0000 0.1181987408
H   H80       1.0  0.83005  0.12445  0.61952  1.0000 0.12961923
H   H81       1.0  0.85842  0.12878  0.69362  1.0000 0.1105733955
H   H82       1.0  0.75634  0.10206  0.55944  1.0000 0.1105733955
H   H83       1.0  0.71704  0.09636  0.48749  1.0000 0.1181987408
H   H84       1.0  0.62601  0.25048  0.49146  1.0000 0.1105733955
H   H85       1.0  0.67499  0.25731  0.56496  1.0000 0.1105733955
H   H86       1.0  0.87606  0.23818  0.85503  1.0000 0.1105733955
H   H87       1.0  0.89997  0.23297  0.92790  1.0000 0.1181987408
H   H88       1.0  0.74866  0.10278  0.92710  1.0000 0.12961923
H   H89       1.0  0.73360  0.10762  0.85352  1.0000 0.1181987408
H   H90       1.0  0.83730  0.08318  0.99400  1.0000 0.1181987408
H   H91       1.0  0.85460  0.08528  0.06939  1.0000 0.1181987408
H   H92       1.0  0.83373  0.25240  0.99362  1.0000 0.1105733955
H   H93       1.0  0.50462  0.22681  0.36584  1.0000 0.1011632672
H   H94       1.0  0.54821  0.22658  0.43893  1.0000 0.1181987408
H   H95       1.0  0.70424  0.10632  0.41563  1.0000 0.1363082248
H   H96       1.0  0.66119  0.11030  0.34391  1.0000 0.1181987408
H   H97       1.0  0.95802  0.11503  0.20907  1.0000 0.1105733955
H   H98       1.0  0.94730  0.10720  0.13572  1.0000 0.12961923
H   H99       1.0  0.79198  0.23612  0.13209  1.0000 0.12961923
H   H100      1.0  0.80811  0.23998  0.20555  1.0000 0.1011632672
H   H101      1.0  0.85092  0.25011  0.06833  1.0000 0.1105733955
H   H102      1.0  0.71876  0.74119  0.64822  1.0000 0.1105733955
H   H103      1.0  0.71245  0.75913  0.57547  1.0000 0.12961923
H   H104      1.0  0.52067  0.65811  0.55892  1.0000 0.12961923
H   H105      1.0  0.53473  0.63902  0.63170  1.0000 0.1181987408
H   H106      1.0  0.55537  0.65631  0.49075  1.0000 0.1181987408
H   H107      1.0  0.53900  0.68012  0.41902  1.0000 0.1105733955
H   H108      1.0  0.64990  0.80513  0.51965  1.0000 0.1181987408
H   H109      1.0  0.64190  0.87231  0.14653  1.0000 0.1105733955
H   H110      1.0  0.63123  0.87378  0.07320  1.0000 0.12961923
H   H111      1.0  0.39818  0.83031  0.07657  1.0000 0.12961923
H   H112      1.0  0.41622  0.82784  0.14980  1.0000 0.1181987408
H   H113      1.0  0.61945  0.87493  0.00796  1.0000 0.1105733955
H   H114      1.0  0.61094  0.86685  0.93381  1.0000 0.1105733955
H   H115      1.0  0.38381  0.81255  0.93435  1.0000 0.1181987408
H   H116      1.0  0.39401  0.81760  0.00870  1.0000 0.1105733955
H   H117      1.0  0.58344  0.88227  0.86599  1.0000 0.12961923
H   H118      1.0  0.41441  0.76476  0.87378  1.0000 0.12961923
H   H119      1.0  0.41089  0.75504  0.79930  1.0000 0.1011632672
H   H120      1.0  0.57430  0.86828  0.79195  1.0000 0.1105733955
H   H121      1.0  0.28282  0.72173  0.71865  1.0000 0.12961923
H   H122      1.0  0.40848  0.58210  0.70077  1.0000 0.1585370144
H   H123      1.0  0.16777  0.57421  0.70060  1.0000 0.1363082248
H   H124      1.0  0.19710  0.49742  0.62579  1.0000 0.12961923
H   H125      1.0  0.08568  0.43786  0.61923  1.0000 0.1105733955
H   H126      1.0  0.05390  0.38248  0.67635  1.0000 0.1105733955
H   H127      1.0  0.18537  0.00590  0.85470  1.0000 0.12961923
H   H128      1.0  0.28739  0.94501  0.87486  1.0000 0.1105733955
H   H129      1.0  0.34131  0.88823  0.82332  1.0000 0.1105733955
H   H130      1.0  0.13613  0.22733  0.78467  1.0000 0.12961923
H   H131      1.0  0.23896  0.07615  0.77955  1.0000 0.1363082248
H   H132      1.0  0.99621  0.08953  0.77671  1.0000 0.1585370144
H   H133      1.0  0.15058  0.64944  0.30558  1.0000 0.1105733955
H   H134      1.0  0.15965  0.66755  0.37869  1.0000 0.12961923
H   H135      1.0  0.98080  0.77726  0.35963  1.0000 0.12961923
H   H136      1.0  0.97181  0.75303  0.28843  1.0000 0.1011632672
H   H137      1.0  0.13746  0.66906  0.44832  1.0000 0.1181987408
H   H138      1.0  0.20224  0.25177  0.70398  1.0000 0.1011632672
H   H139      1.0  0.16917  0.25367  0.63187  1.0000 0.1181987408
H   H140      1.0  0.33005  0.37555  0.61952  1.0000 0.12961923
H   H141      1.0  0.35842  0.37122  0.69362  1.0000 0.1105733955
H   H142      1.0  0.25634  0.39794  0.55944  1.0000 0.1105733955
H   H143      1.0  0.21704  0.40364  0.48749  1.0000 0.1181987408
H   H144      1.0  0.12601  0.24952  0.49146  1.0000 0.1105733955
H   H145      1.0  0.17499  0.24269  0.56496  1.0000 0.1105733955
H   H146      1.0  0.37606  0.26182  0.85503  1.0000 0.1105733955
H   H147      1.0  0.39997  0.26703  0.92790  1.0000 0.1181987408
H   H148      1.0  0.24866  0.39722  0.92710  1.0000 0.12961923
H   H149      1.0  0.23360  0.39238  0.85352  1.0000 0.1181987408
H   H150      1.0  0.33730  0.41682  0.99400  1.0000 0.1181987408
H   H151      1.0  0.35460  0.41472  0.06939  1.0000 0.1181987408
H   H152      1.0  0.33373  0.24760  0.99362  1.0000 0.1105733955
H   H153      1.0  0.00462  0.27319  0.36584  1.0000 0.1011632672
H   H154      1.0  0.04821  0.27342  0.43893  1.0000 0.1181987408
H   H155      1.0  0.20424  0.39368  0.41563  1.0000 0.1363082248
H   H156      1.0  0.16119  0.38970  0.34391  1.0000 0.1181987408
H   H157      1.0  0.45802  0.38497  0.20907  1.0000 0.1105733955
H   H158      1.0  0.44730  0.39280  0.13572  1.0000 0.12961923
H   H159      1.0  0.29198  0.26388  0.13209  1.0000 0.12961923
H   H160      1.0  0.30811  0.26002  0.20555  1.0000 0.1011632672
H   H161      1.0  0.35092  0.24989  0.06833  1.0000 0.1105733955
H   H162      1.0  0.21876  0.75881  0.64822  1.0000 0.1105733955
H   H163      1.0  0.21245  0.74087  0.57547  1.0000 0.12961923
H   H164      1.0  0.02067  0.84189  0.55892  1.0000 0.12961923
H   H165      1.0  0.03473  0.86098  0.63170  1.0000 0.1181987408
H   H166      1.0  0.05537  0.84369  0.49075  1.0000 0.1181987408
H   H167      1.0  0.03900  0.81988  0.41902  1.0000 0.1105733955
H   H168      1.0  0.14990  0.69487  0.51965  1.0000 0.1181987408
H   H169      1.0  0.14190  0.62769  0.14653  1.0000 0.1105733955
H   H170      1.0  0.13123  0.62622  0.07320  1.0000 0.12961923
H   H171      1.0  0.89818  0.66969  0.07657  1.0000 0.12961923
H   H172      1.0  0.91622  0.67216  0.14980  1.0000 0.1181987408
H   H173      1.0  0.11945  0.62507  0.00796  1.0000 0.1105733955
H   H174      1.0  0.11094  0.63315  0.93381  1.0000 0.1105733955
H   H175      1.0  0.88381  0.68745  0.93435  1.0000 0.1181987408
H   H176      1.0  0.89401  0.68240  0.00870  1.0000 0.1105733955
H   H177      1.0  0.08344  0.61773  0.86599  1.0000 0.12961923
H   H178      1.0  0.91441  0.73524  0.87378  1.0000 0.12961923
H   H179      1.0  0.91089  0.74496  0.79930  1.0000 0.1011632672
H   H180      1.0  0.07430  0.63172  0.79195  1.0000 0.1105733955
H   H181      1.0  0.21718  0.22173  0.28135  1.0000 0.12961923
H   H182      1.0  0.09152  0.08210  0.29923  1.0000 0.1585370144
H   H183      1.0  0.33223  0.07421  0.29940  1.0000 0.1363082248
H   H184      1.0  0.30290  0.99742  0.37421  1.0000 0.12961923
H   H185      1.0  0.41432  0.93786  0.38077  1.0000 0.1105733955
H   H186      1.0  0.44610  0.88248  0.32365  1.0000 0.1105733955
H   H187      1.0  0.31463  0.50590  0.14530  1.0000 0.12961923
H   H188      1.0  0.21261  0.44501  0.12514  1.0000 0.1105733955
H   H189      1.0  0.15869  0.38823  0.17668  1.0000 0.1105733955
H   H190      1.0  0.36387  0.72733  0.21533  1.0000 0.12961923
H   H191      1.0  0.26104  0.57615  0.22045  1.0000 0.1363082248
H   H192      1.0  0.50379  0.58953  0.22329  1.0000 0.1585370144
H   H193      1.0  0.34942  0.14944  0.69442  1.0000 0.1105733955
H   H194      1.0  0.34035  0.16755  0.62131  1.0000 0.12961923
H   H195      1.0  0.51920  0.27726  0.64037  1.0000 0.12961923
H   H196      1.0  0.52819  0.25303  0.71157  1.0000 0.1011632672
H   H197      1.0  0.36254  0.16906  0.55168  1.0000 0.1181987408
H   H198      1.0  0.29776  0.75177  0.29602  1.0000 0.1011632672
H   H199      1.0  0.33083  0.75367  0.36813  1.0000 0.1181987408
H   H200      1.0  0.16995  0.87555  0.38048  1.0000 0.12961923
H   H201      1.0  0.14158  0.87122  0.30638  1.0000 0.1105733955
H   H202      1.0  0.24366  0.89794  0.44056  1.0000 0.1105733955
H   H203      1.0  0.28296  0.90364  0.51251  1.0000 0.1181987408
H   H204      1.0  0.37399  0.74952  0.50854  1.0000 0.1105733955
H   H205      1.0  0.32501  0.74269  0.43504  1.0000 0.1105733955
H   H206      1.0  0.12394  0.76182  0.14497  1.0000 0.1105733955
H   H207      1.0  0.10003  0.76703  0.07210  1.0000 0.1181987408
H   H208      1.0  0.25134  0.89722  0.07290  1.0000 0.12961923
H   H209      1.0  0.26640  0.89238  0.14648  1.0000 0.1181987408
H   H210      1.0  0.16270  0.91682  0.00600  1.0000 0.1181987408
H   H211      1.0  0.14540  0.91472  0.93061  1.0000 0.1181987408
H   H212      1.0  0.16627  0.74760  0.00638  1.0000 0.1105733955
H   H213      1.0  0.49538  0.77319  0.63416  1.0000 0.1011632672
H   H214      1.0  0.45179  0.77342  0.56107  1.0000 0.1181987408
H   H215      1.0  0.29576  0.89368  0.58437  1.0000 0.12961923
H   H216      1.0  0.33881  0.88970  0.65609  1.0000 0.1181987408
H   H217      1.0  0.04198  0.88497  0.79093  1.0000 0.1105733955
H   H218      1.0  0.05270  0.89280  0.86428  1.0000 0.12961923
H   H219      1.0  0.20802  0.76388  0.86791  1.0000 0.12961923
H   H220      1.0  0.19189  0.76002  0.79445  1.0000 0.1011632672
H   H221      1.0  0.14908  0.74989  0.93167  1.0000 0.1105733955
H   H222      1.0  0.28124  0.25881  0.35178  1.0000 0.1105733955
H   H223      1.0  0.28755  0.24087  0.42453  1.0000 0.12961923
H   H224      1.0  0.47933  0.34189  0.44108  1.0000 0.12961923
H   H225      1.0  0.46527  0.36098  0.36830  1.0000 0.1181987408
H   H226      1.0  0.44463  0.34369  0.50925  1.0000 0.1181987408
H   H227      1.0  0.46100  0.31988  0.58098  1.0000 0.1105733955
H   H228      1.0  0.35010  0.19487  0.48035  1.0000 0.1181987408
H   H229      1.0  0.35810  0.12769  0.85347  1.0000 0.1105733955
H   H230      1.0  0.36877  0.12622  0.92680  1.0000 0.12961923
H   H231      1.0  0.60182  0.16969  0.92343  1.0000 0.12961923
H   H232      1.0  0.58378  0.17216  0.85020  1.0000 0.1181987408
H   H233      1.0  0.38055  0.12507  0.99204  1.0000 0.1105733955
H   H234      1.0  0.38906  0.13315  0.06619  1.0000 0.1105733955
H   H235      1.0  0.61619  0.18745  0.06565  1.0000 0.1181987408
H   H236      1.0  0.60599  0.18240  0.99130  1.0000 0.1105733955
H   H237      1.0  0.41656  0.11773  0.13401  1.0000 0.12961923
H   H238      1.0  0.58559  0.23524  0.12622  1.0000 0.12961923
H   H239      1.0  0.58911  0.24496  0.20070  1.0000 0.1011632672
H   H240      1.0  0.42570  0.13172  0.20805  1.0000 0.1105733955
C   C1        1.0  0.86880  0.31740  0.28670  1.0000 0.5674769472
C   C2        1.0  0.78900  0.34730  0.29020  1.0000 -0.0090569435
C   C3        1.0  0.71600  0.31670  0.28650  1.0000 -0.1570544401
C   C4        1.0  0.64350  0.34290  0.29050  1.0000 -0.0166310873
C   C5        1.0  0.64100  0.39990  0.29720  1.0000 -0.1887722248
C   C6        1.0  0.71180  0.43040  0.30090  1.0000 0.2560089221
C   C7        1.0  0.78490  0.40460  0.29720  1.0000 -0.2093257212
C   C8        1.0  0.77120  0.52140  0.31210  1.0000 0.2179741608
C   C9        1.0  0.81640  0.52430  0.35090  1.0000 -0.2016506399
C   C10       1.0  0.88260  0.56030  0.35480  1.0000 -0.0865534237
C   C11       1.0  0.90180  0.59340  0.32050  1.0000 -0.1409006807
C   C12       1.0  0.85470  0.59110  0.28040  1.0000 -0.0369008053
C   C13       1.0  0.78690  0.55580  0.27620  1.0000 -0.1483777763
C   C14       1.0  0.73300  0.54960  0.23490  1.0000 0.5896129599
C   C15       1.0  0.82900  0.01730  0.20870  1.0000 0.2179741608
C   C16       1.0  0.79490  0.01820  0.16560  1.0000 -0.2016506399
C   C17       1.0  0.73400  0.05390  0.15370  1.0000 -0.0828702571
C   C18       1.0  0.70310  0.08900  0.18440  1.0000 -0.1483777763
C   C19       1.0  0.73800  0.09050  0.22660  1.0000 -0.0310068848
C   C20       1.0  0.80240  0.05310  0.23880  1.0000 -0.1689380566
C   C21       1.0  0.84150  0.05000  0.28430  1.0000 0.5966100088
C   C22       1.0  0.70590  0.13250  0.25800  1.0000 0.5797499707
C   C23       1.0  0.88420  0.92660  0.22000  1.0000 0.2692446252
C   C24       1.0  0.01850  0.80000  0.21560  1.0000 0.5674769472
C   C25       1.0  0.94400  0.83530  0.21770  1.0000 -0.0090569435
C   C26       1.0  0.86910  0.81150  0.21740  1.0000 -0.1570544401
C   C27       1.0  0.80120  0.84430  0.22010  1.0000 -0.0090569435
C   C28       1.0  0.80730  0.90160  0.22020  1.0000 -0.2198617422
C   C29       1.0  0.95260  0.89410  0.22080  1.0000 -0.2016506399
C   C30       1.0  0.71910  0.81600  0.22090  1.0000 0.5643680235
C   C31       1.0  0.88070  0.62990  0.24460  1.0000 0.5797499707
C   C32       1.0  0.88500  0.32480  0.68350  1.0000 0.1011632672
C   C33       1.0  0.87850  0.31300  0.63910  1.0000 -0.2016506399
C   C34       1.0  0.92560  0.27430  0.62120  1.0000 0.1105733955
C   C35       1.0  0.98370  0.24930  0.65020  1.0000 -0.2093257212
C   C36       1.0  0.98840  0.26390  0.69320  1.0000 0.0672066677
C   C37       1.0  0.91750  0.25910  0.57500  1.0000 0.0607807717
C   C38       1.0  0.88120  0.29590  0.54350  1.0000 -0.1409006807
C   C39       1.0  0.77290  0.72170  0.31270  1.0000 0.0672066677
C   C40       1.0  0.79330  0.72040  0.35640  1.0000 -0.2016506399
C   C41       1.0  0.76040  0.68240  0.38320  1.0000 0.1105733955
C   C42       1.0  0.69900  0.64870  0.36390  1.0000 -0.2016506399
C   C43       1.0  0.68180  0.65220  0.31890  1.0000 0.090970645
C   C44       1.0  0.78690  0.67690  0.42970  1.0000 0.0607807717
C   C45       1.0  0.77200  0.63200  0.45370  1.0000 -0.1409006807
C   C46       1.0  0.79660  0.62800  0.49710  1.0000 -0.1409006807
C   C47       1.0  0.84000  0.66930  0.51730  1.0000 0.0672066677
C   C48       1.0  0.84930  0.71970  0.49460  1.0000 -0.1483777763
C   C49       1.0  0.82080  0.72370  0.45000  1.0000 -0.1483777763
C   C50       1.0  0.64990  0.71010  0.13040  1.0000 0.090970645
C   C51       1.0  0.63630  0.70820  0.08640  1.0000 -0.2016506399
C   C52       1.0  0.67740  0.66870  0.06330  1.0000 0.1105733955
C   C53       1.0  0.72480  0.63100  0.08700  1.0000 -0.2016506399
C   C54       1.0  0.73410  0.63420  0.13150  1.0000 0.1011632672
C   C55       1.0  0.66790  0.66760  0.01490  1.0000 0.0672066677
C   C56       1.0  0.66040  0.61750  0.99160  1.0000 -0.1409006807
C   C57       1.0  0.64910  0.61890  0.94590  1.0000 -0.1483777763
C   C58       1.0  0.66250  0.71820  0.99190  1.0000 -0.1409006807
C   C59       1.0  0.95460  0.70210  0.62420  1.0000 0.090970645
C   C60       1.0  0.92830  0.70180  0.57970  1.0000 -0.2016506399
C   C61       1.0  0.87000  0.66620  0.56370  1.0000 0.1105733955
C   C62       1.0  0.83660  0.63140  0.59350  1.0000 -0.2016506399
C   C63       1.0  0.86340  0.63370  0.63700  1.0000 0.1105733955
C   C64       1.0  0.57640  0.63940  0.80690  1.0000 0.0792027622
C   C65       1.0  0.58220  0.63460  0.85100  1.0000 -0.1887722248
C   C66       1.0  0.63220  0.67080  0.87570  1.0000 0.1181987408
C   C67       1.0  0.67370  0.71060  0.85300  1.0000 -0.2093257212
C   C68       1.0  0.66420  0.71250  0.80870  1.0000 0.1011632672
C   C69       1.0  0.64380  0.66800  0.92420  1.0000 0.0539906053
C   C70       1.0  0.65140  0.71630  0.94680  1.0000 -0.1483777763
C   C71       1.0  0.82160  0.22390  0.36960  1.0000 0.0792027622
C   C72       1.0  0.82610  0.23570  0.41350  1.0000 -0.2016506399
C   C73       1.0  0.88600  0.21340  0.44070  1.0000 0.1011632672
C   C74       1.0  0.93890  0.17570  0.42360  1.0000 -0.2093257212
C   C75       1.0  0.92980  0.16470  0.37930  1.0000 0.1011632672
C   C76       1.0  0.89710  0.23000  0.48710  1.0000 0.0607807717
C   C77       1.0  0.92950  0.19200  0.51790  1.0000 -0.1483777763
C   C78       1.0  0.93940  0.20620  0.56100  1.0000 -0.1483777763
C   C79       1.0  0.87320  0.27990  0.50060  1.0000 -0.1409006807
C   C80       1.0  0.56860  0.30760  0.28820  1.0000 0.5674769472
C   C81       1.0  0.90760  0.36290  0.86780  1.0000 0.0792027622
C   C82       1.0  0.91340  0.36390  0.91190  1.0000 -0.2016506399
C   C83       1.0  0.98610  0.35020  0.93430  1.0000 0.1181987408
C   C84       1.0  0.05100  0.33790  0.90980  1.0000 -0.2016506399
C   C85       1.0  0.03980  0.33710  0.86580  1.0000 0.090970645
C   C86       1.0  0.99350  0.34690  0.98310  1.0000 0.0607807717
C   C87       1.0  0.92790  0.36140  0.00640  1.0000 -0.1409006807
C   C88       1.0  0.93290  0.35570  0.05110  1.0000 -0.1483777763
C   C89       1.0  0.00050  0.33410  0.07370  1.0000 0.0607807717
C   C90       1.0  0.06740  0.32310  0.05110  1.0000 -0.1483777763
C   C91       1.0  0.06150  0.32790  0.00620  1.0000 -0.1409006807
C   C92       1.0  0.00230  0.32540  0.12140  1.0000 0.1105733955
C   C93       1.0  0.95310  0.35620  0.14650  1.0000 -0.2093257212
C   C94       1.0  0.05250  0.28720  0.14200  1.0000 -0.2093257212
C   C95       1.0  0.05440  0.28160  0.18740  1.0000 0.090970645
C   C96       1.0  0.95950  0.34750  0.19150  1.0000 0.1011632672
C   C97       1.0  0.63120  0.81740  0.71330  1.0000 0.5674769472
C   C98       1.0  0.71100  0.84730  0.70980  1.0000 -0.0090569435
C   C99       1.0  0.78400  0.81670  0.71350  1.0000 -0.1570544401
C   C100      1.0  0.85650  0.84290  0.70950  1.0000 -0.0166310873
C   C101      1.0  0.85900  0.89990  0.70280  1.0000 -0.1887722248
C   C102      1.0  0.78820  0.93040  0.69910  1.0000 0.2560089221
C   C103      1.0  0.71510  0.90460  0.70280  1.0000 -0.2093257212
C   C104      1.0  0.72880  0.02140  0.68790  1.0000 0.2179741608
C   C105      1.0  0.68360  0.02430  0.64910  1.0000 -0.2016506399
C   C106      1.0  0.61740  0.06030  0.64520  1.0000 -0.0865534237
C   C107      1.0  0.59820  0.09340  0.67950  1.0000 -0.1409006807
C   C108      1.0  0.64530  0.09110  0.71960  1.0000 -0.0369008053
C   C109      1.0  0.71310  0.05580  0.72380  1.0000 -0.1483777763
C   C110      1.0  0.76700  0.04960  0.76510  1.0000 0.5896129599
C   C111      1.0  0.67100  0.51730  0.79130  1.0000 0.2179741608
C   C112      1.0  0.70510  0.51820  0.83440  1.0000 -0.2016506399
C   C113      1.0  0.76600  0.55390  0.84630  1.0000 -0.0828702571
C   C114      1.0  0.79690  0.58900  0.81560  1.0000 -0.1483777763
C   C115      1.0  0.76200  0.59050  0.77340  1.0000 -0.0310068848
C   C116      1.0  0.69760  0.55310  0.76120  1.0000 -0.1689380566
C   C117      1.0  0.65850  0.55000  0.71570  1.0000 0.5966100088
C   C118      1.0  0.79410  0.63250  0.74200  1.0000 0.5797499707
C   C119      1.0  0.61580  0.42660  0.78000  1.0000 0.2692446252
C   C120      1.0  0.48150  0.30000  0.78440  1.0000 0.5674769472
C   C121      1.0  0.55600  0.33530  0.78230  1.0000 -0.0090569435
C   C122      1.0  0.63090  0.31150  0.78260  1.0000 -0.1570544401
C   C123      1.0  0.69880  0.34430  0.77990  1.0000 -0.0090569435
C   C124      1.0  0.69270  0.40160  0.77980  1.0000 -0.2198617422
C   C125      1.0  0.54740  0.39410  0.77920  1.0000 -0.2016506399
C   C126      1.0  0.78090  0.31600  0.77910  1.0000 0.5643680235
C   C127      1.0  0.61930  0.12990  0.75540  1.0000 0.5797499707
C   C128      1.0  0.61500  0.82480  0.31650  1.0000 0.1011632672
C   C129      1.0  0.62150  0.81300  0.36090  1.0000 -0.2016506399
C   C130      1.0  0.57440  0.77430  0.37880  1.0000 0.1105733955
C   C131      1.0  0.51630  0.74930  0.34980  1.0000 -0.2093257212
C   C132      1.0  0.51160  0.76390  0.30680  1.0000 0.0672066677
C   C133      1.0  0.58250  0.75910  0.42500  1.0000 0.0607807717
C   C134      1.0  0.61880  0.79590  0.45650  1.0000 -0.1409006807
C   C135      1.0  0.72710  0.22170  0.68730  1.0000 0.0672066677
C   C136      1.0  0.70670  0.22040  0.64360  1.0000 -0.2016506399
C   C137      1.0  0.73960  0.18240  0.61680  1.0000 0.1105733955
C   C138      1.0  0.80100  0.14870  0.63610  1.0000 -0.2016506399
C   C139      1.0  0.81820  0.15220  0.68110  1.0000 0.090970645
C   C140      1.0  0.71310  0.17690  0.57030  1.0000 0.0607807717
C   C141      1.0  0.72800  0.13200  0.54630  1.0000 -0.1409006807
C   C142      1.0  0.70340  0.12800  0.50290  1.0000 -0.1409006807
C   C143      1.0  0.66000  0.16930  0.48270  1.0000 0.0672066677
C   C144      1.0  0.65070  0.21970  0.50540  1.0000 -0.1483777763
C   C145      1.0  0.67920  0.22370  0.55000  1.0000 -0.1483777763
C   C146      1.0  0.85010  0.21010  0.86960  1.0000 0.090970645
C   C147      1.0  0.86370  0.20820  0.91360  1.0000 -0.2016506399
C   C148      1.0  0.82260  0.16870  0.93670  1.0000 0.1105733955
C   C149      1.0  0.77520  0.13100  0.91300  1.0000 -0.2016506399
C   C150      1.0  0.76590  0.13420  0.86850  1.0000 0.090970645
C   C151      1.0  0.83210  0.16760  0.98510  1.0000 0.0672066677
C   C152      1.0  0.83960  0.11750  0.00840  1.0000 -0.1409006807
C   C153      1.0  0.85090  0.11890  0.05410  1.0000 -0.1483777763
C   C154      1.0  0.83750  0.21820  0.00810  1.0000 -0.1409006807
C   C155      1.0  0.54540  0.20210  0.37580  1.0000 0.090970645
C   C156      1.0  0.57170  0.20180  0.42030  1.0000 -0.2016506399
C   C157      1.0  0.63000  0.16620  0.43630  1.0000 0.1105733955
C   C158      1.0  0.66340  0.13140  0.40650  1.0000 -0.2016506399
C   C159      1.0  0.63660  0.13370  0.36300  1.0000 0.1105733955
C   C160      1.0  0.92360  0.13940  0.19310  1.0000 0.0792027622
C   C161      1.0  0.91780  0.13460  0.14900  1.0000 -0.1887722248
C   C162      1.0  0.86780  0.17080  0.12430  1.0000 0.1181987408
C   C163      1.0  0.82630  0.21060  0.14700  1.0000 -0.2093257212
C   C164      1.0  0.83580  0.21250  0.19130  1.0000 0.1011632672
C   C165      1.0  0.85620  0.16800  0.07580  1.0000 0.0539906053
C   C166      1.0  0.84860  0.21630  0.05320  1.0000 -0.1483777763
C   C167      1.0  0.67840  0.72390  0.63040  1.0000 0.0792027622
C   C168      1.0  0.67390  0.73570  0.58650  1.0000 -0.2016506399
C   C169      1.0  0.61400  0.71340  0.55930  1.0000 0.1011632672
C   C170      1.0  0.56110  0.67570  0.57640  1.0000 -0.2198617422
C   C171      1.0  0.57020  0.66470  0.62070  1.0000 0.1011632672
C   C172      1.0  0.60290  0.73000  0.51290  1.0000 0.0607807717
C   C173      1.0  0.57050  0.69200  0.48210  1.0000 -0.1483777763
C   C174      1.0  0.56060  0.70620  0.43900  1.0000 -0.1483777763
C   C175      1.0  0.62680  0.77990  0.49940  1.0000 -0.1409006807
C   C176      1.0  0.93140  0.80760  0.71180  1.0000 0.5674769472
C   C177      1.0  0.59240  0.86290  0.13220  1.0000 0.0792027622
C   C178      1.0  0.58660  0.86390  0.08810  1.0000 -0.2016506399
C   C179      1.0  0.51390  0.85020  0.06570  1.0000 0.1181987408
C   C180      1.0  0.44900  0.83790  0.09020  1.0000 -0.2016506399
C   C181      1.0  0.46020  0.83710  0.13420  1.0000 0.090970645
C   C182      1.0  0.50650  0.84690  0.01690  1.0000 0.0607807717
C   C183      1.0  0.57210  0.86140  0.99360  1.0000 -0.1483777763
C   C184      1.0  0.56710  0.85570  0.94890  1.0000 -0.1483777763
C   C185      1.0  0.49950  0.83410  0.92630  1.0000 0.0607807717
C   C186      1.0  0.43260  0.82310  0.94890  1.0000 -0.1483777763
C   C187      1.0  0.43850  0.82790  0.99380  1.0000 -0.1409006807
C   C188      1.0  0.49770  0.82540  0.87860  1.0000 0.1105733955
C   C189      1.0  0.54690  0.85620  0.85350  1.0000 -0.2093257212
C   C190      1.0  0.44750  0.78720  0.85800  1.0000 -0.2093257212
C   C191      1.0  0.44560  0.78160  0.81260  1.0000 0.090970645
C   C192      1.0  0.54050  0.84750  0.80850  1.0000 0.1011632672
C   C193      1.0  0.13120  0.68260  0.71330  1.0000 0.5674769472
C   C194      1.0  0.21100  0.65270  0.70980  1.0000 -0.0090569435
C   C195      1.0  0.28400  0.68330  0.71350  1.0000 -0.1570544401
C   C196      1.0  0.35650  0.65710  0.70950  1.0000 -0.0166310873
C   C197      1.0  0.35900  0.60010  0.70280  1.0000 -0.1887722248
C   C198      1.0  0.28820  0.56960  0.69910  1.0000 0.2560089221
C   C199      1.0  0.21510  0.59540  0.70280  1.0000 -0.2093257212
C   C200      1.0  0.22880  0.47860  0.68790  1.0000 0.2179741608
C   C201      1.0  0.18360  0.47570  0.64910  1.0000 -0.2016506399
C   C202      1.0  0.11740  0.43970  0.64520  1.0000 -0.0865534237
C   C203      1.0  0.09820  0.40660  0.67950  1.0000 -0.1409006807
C   C204      1.0  0.14530  0.40890  0.71960  1.0000 -0.0369008053
C   C205      1.0  0.21310  0.44420  0.72380  1.0000 -0.1483777763
C   C206      1.0  0.26700  0.45040  0.76510  1.0000 0.5896129599
C   C207      1.0  0.17100  0.98270  0.79130  1.0000 0.2179741608
C   C208      1.0  0.20510  0.98180  0.83440  1.0000 -0.2016506399
C   C209      1.0  0.26600  0.94610  0.84630  1.0000 -0.0828702571
C   C210      1.0  0.29690  0.91100  0.81560  1.0000 -0.1483777763
C   C211      1.0  0.26200  0.90950  0.77340  1.0000 -0.0310068848
C   C212      1.0  0.19760  0.94690  0.76120  1.0000 -0.1689380566
C   C213      1.0  0.15850  0.95000  0.71570  1.0000 0.5966100088
C   C214      1.0  0.29410  0.86750  0.74200  1.0000 0.5797499707
C   C215      1.0  0.11580  0.07340  0.78000  1.0000 0.2692446252
C   C216      1.0  0.98150  0.20000  0.78440  1.0000 0.5674769472
C   C217      1.0  0.05600  0.16470  0.78230  1.0000 -0.0090569435
C   C218      1.0  0.13090  0.18850  0.78260  1.0000 -0.1570544401
C   C219      1.0  0.19880  0.15570  0.77990  1.0000 -0.0090569435
C   C220      1.0  0.19270  0.09840  0.77980  1.0000 -0.2093257212
C   C221      1.0  0.04740  0.10590  0.77920  1.0000 -0.2016506399
C   C222      1.0  0.28090  0.18400  0.77910  1.0000 0.5643680235
C   C223      1.0  0.11930  0.37010  0.75540  1.0000 0.5797499707
C   C224      1.0  0.11500  0.67520  0.31650  1.0000 0.1011632672
C   C225      1.0  0.12150  0.68700  0.36090  1.0000 -0.2016506399
C   C226      1.0  0.07440  0.72570  0.37880  1.0000 0.1105733955
C   C227      1.0  0.01630  0.75070  0.34980  1.0000 -0.2093257212
C   C228      1.0  0.01160  0.73610  0.30680  1.0000 0.0672066677
C   C229      1.0  0.08250  0.74090  0.42500  1.0000 0.0607807717
C   C230      1.0  0.11880  0.70410  0.45650  1.0000 -0.1409006807
C   C231      1.0  0.22710  0.27830  0.68730  1.0000 0.0672066677
C   C232      1.0  0.20670  0.27960  0.64360  1.0000 -0.2016506399
C   C233      1.0  0.23960  0.31760  0.61680  1.0000 0.1105733955
C   C234      1.0  0.30100  0.35130  0.63610  1.0000 -0.2016506399
C   C235      1.0  0.31820  0.34780  0.68110  1.0000 0.090970645
C   C236      1.0  0.21310  0.32310  0.57030  1.0000 0.0607807717
C   C237      1.0  0.22800  0.36800  0.54630  1.0000 -0.1409006807
C   C238      1.0  0.20340  0.37200  0.50290  1.0000 -0.1409006807
C   C239      1.0  0.16000  0.33070  0.48270  1.0000 0.0672066677
C   C240      1.0  0.15070  0.28030  0.50540  1.0000 -0.1483777763
C   C241      1.0  0.17920  0.27630  0.55000  1.0000 -0.1483777763
C   C242      1.0  0.35010  0.28990  0.86960  1.0000 0.090970645
C   C243      1.0  0.36370  0.29180  0.91360  1.0000 -0.2016506399
C   C244      1.0  0.32260  0.33130  0.93670  1.0000 0.1105733955
C   C245      1.0  0.27520  0.36900  0.91300  1.0000 -0.2016506399
C   C246      1.0  0.26590  0.36580  0.86850  1.0000 0.090970645
C   C247      1.0  0.33210  0.33240  0.98510  1.0000 0.0672066677
C   C248      1.0  0.33960  0.38250  0.00840  1.0000 -0.1409006807
C   C249      1.0  0.35090  0.38110  0.05410  1.0000 -0.1483777763
C   C250      1.0  0.33750  0.28180  0.00810  1.0000 -0.1409006807
C   C251      1.0  0.04540  0.29790  0.37580  1.0000 0.090970645
C   C252      1.0  0.07170  0.29820  0.42030  1.0000 -0.2016506399
C   C253      1.0  0.13000  0.33380  0.43630  1.0000 0.1105733955
C   C254      1.0  0.16340  0.36860  0.40650  1.0000 -0.2016506399
C   C255      1.0  0.13660  0.36630  0.36300  1.0000 0.1105733955
C   C256      1.0  0.42360  0.36060  0.19310  1.0000 0.0792027622
C   C257      1.0  0.41780  0.36540  0.14900  1.0000 -0.1887722248
C   C258      1.0  0.36780  0.32920  0.12430  1.0000 0.1181987408
C   C259      1.0  0.32630  0.28940  0.14700  1.0000 -0.2093257212
C   C260      1.0  0.33580  0.28750  0.19130  1.0000 0.1011632672
C   C261      1.0  0.35620  0.33200  0.07580  1.0000 0.0539906053
C   C262      1.0  0.34860  0.28370  0.05320  1.0000 -0.1483777763
C   C263      1.0  0.17840  0.77610  0.63040  1.0000 0.0792027622
C   C264      1.0  0.17390  0.76430  0.58650  1.0000 -0.2016506399
C   C265      1.0  0.11400  0.78660  0.55930  1.0000 0.1011632672
C   C266      1.0  0.06110  0.82430  0.57640  1.0000 -0.2198617422
C   C267      1.0  0.07020  0.83530  0.62070  1.0000 0.1011632672
C   C268      1.0  0.10290  0.77000  0.51290  1.0000 0.0607807717
C   C269      1.0  0.07050  0.80800  0.48210  1.0000 -0.1483777763
C   C270      1.0  0.06060  0.79380  0.43900  1.0000 -0.1483777763
C   C271      1.0  0.12680  0.72010  0.49940  1.0000 -0.1409006807
C   C272      1.0  0.43140  0.69240  0.71180  1.0000 0.5674769472
C   C273      1.0  0.09240  0.63710  0.13220  1.0000 0.0792027622
C   C274      1.0  0.08660  0.63610  0.08810  1.0000 -0.2016506399
C   C275      1.0  0.01390  0.64980  0.06570  1.0000 0.1181987408
C   C276      1.0  0.94900  0.66210  0.09020  1.0000 -0.2016506399
C   C277      1.0  0.96020  0.66290  0.13420  1.0000 0.090970645
C   C278      1.0  0.00650  0.65310  0.01690  1.0000 0.0607807717
C   C279      1.0  0.07210  0.63860  0.99360  1.0000 -0.1483777763
C   C280      1.0  0.06710  0.64430  0.94890  1.0000 -0.1483777763
C   C281      1.0  0.99950  0.66590  0.92630  1.0000 0.0607807717
C   C282      1.0  0.93260  0.67690  0.94890  1.0000 -0.1483777763
C   C283      1.0  0.93850  0.67210  0.99380  1.0000 -0.1409006807
C   C284      1.0  0.99770  0.67460  0.87860  1.0000 0.1105733955
C   C285      1.0  0.04690  0.64380  0.85350  1.0000 -0.2093257212
C   C286      1.0  0.94750  0.71280  0.85800  1.0000 -0.2093257212
C   C287      1.0  0.94560  0.71840  0.81260  1.0000 0.090970645
C   C288      1.0  0.04050  0.65250  0.80850  1.0000 0.1011632672
C   C289      1.0  0.36880  0.18260  0.28670  1.0000 0.5674769472
C   C290      1.0  0.28900  0.15270  0.29020  1.0000 -0.0090569435
C   C291      1.0  0.21600  0.18330  0.28650  1.0000 -0.1570544401
C   C292      1.0  0.14350  0.15710  0.29050  1.0000 -0.0166310873
C   C293      1.0  0.14100  0.10010  0.29720  1.0000 -0.1887722248
C   C294      1.0  0.21180  0.06960  0.30090  1.0000 0.2560089221
C   C295      1.0  0.28490  0.09540  0.29720  1.0000 -0.2093257212
C   C296      1.0  0.27120  0.97860  0.31210  1.0000 0.2179741608
C   C297      1.0  0.31640  0.97570  0.35090  1.0000 -0.2016506399
C   C298      1.0  0.38260  0.93970  0.35480  1.0000 -0.0865534237
C   C299      1.0  0.40180  0.90660  0.32050  1.0000 -0.1409006807
C   C300      1.0  0.35470  0.90890  0.28040  1.0000 -0.0369008053
C   C301      1.0  0.28690  0.94420  0.27620  1.0000 -0.1483777763
C   C302      1.0  0.23300  0.95040  0.23490  1.0000 0.5896129599
C   C303      1.0  0.32900  0.48270  0.20870  1.0000 0.2179741608
C   C304      1.0  0.29490  0.48180  0.16560  1.0000 -0.2016506399
C   C305      1.0  0.23400  0.44610  0.15370  1.0000 -0.0828702571
C   C306      1.0  0.20310  0.41100  0.18440  1.0000 -0.1483777763
C   C307      1.0  0.23800  0.40950  0.22660  1.0000 -0.0310068848
C   C308      1.0  0.30240  0.44690  0.23880  1.0000 -0.1689380566
C   C309      1.0  0.34150  0.45000  0.28430  1.0000 0.5966100088
C   C310      1.0  0.20590  0.36750  0.25800  1.0000 0.5797499707
C   C311      1.0  0.38420  0.57340  0.22000  1.0000 0.2692446252
C   C312      1.0  0.51850  0.70000  0.21560  1.0000 0.5674769472
C   C313      1.0  0.44400  0.66470  0.21770  1.0000 -0.0090569435
C   C314      1.0  0.36910  0.68850  0.21740  1.0000 -0.1570544401
C   C315      1.0  0.30120  0.65570  0.22010  1.0000 -0.0090569435
C   C316      1.0  0.30730  0.59840  0.22020  1.0000 -0.2093257212
C   C317      1.0  0.45260  0.60590  0.22080  1.0000 -0.2016506399
C   C318      1.0  0.21910  0.68400  0.22090  1.0000 0.5643680235
C   C319      1.0  0.38070  0.87010  0.24460  1.0000 0.5797499707
C   C320      1.0  0.38500  0.17520  0.68350  1.0000 0.1011632672
C   C321      1.0  0.37850  0.18700  0.63910  1.0000 -0.2016506399
C   C322      1.0  0.42560  0.22570  0.62120  1.0000 0.1105733955
C   C323      1.0  0.48370  0.25070  0.65020  1.0000 -0.2093257212
C   C324      1.0  0.48840  0.23610  0.69320  1.0000 0.0672066677
C   C325      1.0  0.41750  0.24090  0.57500  1.0000 0.0607807717
C   C326      1.0  0.38120  0.20410  0.54350  1.0000 -0.1409006807
C   C327      1.0  0.27290  0.77830  0.31270  1.0000 0.0672066677
C   C328      1.0  0.29330  0.77960  0.35640  1.0000 -0.2016506399
C   C329      1.0  0.26040  0.81760  0.38320  1.0000 0.1105733955
C   C330      1.0  0.19900  0.85130  0.36390  1.0000 -0.2016506399
C   C331      1.0  0.18180  0.84780  0.31890  1.0000 0.090970645
C   C332      1.0  0.28690  0.82310  0.42970  1.0000 0.0607807717
C   C333      1.0  0.27200  0.86800  0.45370  1.0000 -0.1409006807
C   C334      1.0  0.29660  0.87200  0.49710  1.0000 -0.1409006807
C   C335      1.0  0.34000  0.83070  0.51730  1.0000 0.0672066677
C   C336      1.0  0.34930  0.78030  0.49460  1.0000 -0.1483777763
C   C337      1.0  0.32080  0.77630  0.45000  1.0000 -0.1483777763
C   C338      1.0  0.14990  0.78990  0.13040  1.0000 0.090970645
C   C339      1.0  0.13630  0.79180  0.08640  1.0000 -0.2016506399
C   C340      1.0  0.17740  0.83130  0.06330  1.0000 0.1105733955
C   C341      1.0  0.22480  0.86900  0.08700  1.0000 -0.2016506399
C   C342      1.0  0.23410  0.86580  0.13150  1.0000 0.1011632672
C   C343      1.0  0.16790  0.83240  0.01490  1.0000 0.0672066677
C   C344      1.0  0.16040  0.88250  0.99160  1.0000 -0.1409006807
C   C345      1.0  0.14910  0.88110  0.94590  1.0000 -0.1483777763
C   C346      1.0  0.16250  0.78180  0.99190  1.0000 -0.1409006807
C   C347      1.0  0.45460  0.79790  0.62420  1.0000 0.090970645
C   C348      1.0  0.42830  0.79820  0.57970  1.0000 -0.2016506399
C   C349      1.0  0.37000  0.83380  0.56370  1.0000 0.1105733955
C   C350      1.0  0.33660  0.86860  0.59350  1.0000 -0.2016506399
C   C351      1.0  0.36340  0.86630  0.63700  1.0000 0.1105733955
C   C352      1.0  0.07640  0.86060  0.80690  1.0000 0.0792027622
C   C353      1.0  0.08220  0.86540  0.85100  1.0000 -0.1887722248
C   C354      1.0  0.13220  0.82920  0.87570  1.0000 0.1181987408
C   C355      1.0  0.17370  0.78940  0.85300  1.0000 -0.2198617422
C   C356      1.0  0.16420  0.78750  0.80870  1.0000 0.1011632672
C   C357      1.0  0.14380  0.83200  0.92420  1.0000 0.0539906053
C   C358      1.0  0.15140  0.78370  0.94680  1.0000 -0.1483777763
C   C359      1.0  0.32160  0.27610  0.36960  1.0000 0.0792027622
C   C360      1.0  0.32610  0.26430  0.41350  1.0000 -0.2016506399
C   C361      1.0  0.38600  0.28660  0.44070  1.0000 0.1011632672
C   C362      1.0  0.43890  0.32430  0.42360  1.0000 -0.2093257212
C   C363      1.0  0.42980  0.33530  0.37930  1.0000 0.1011632672
C   C364      1.0  0.39710  0.27000  0.48710  1.0000 0.0607807717
C   C365      1.0  0.42950  0.30800  0.51790  1.0000 -0.1483777763
C   C366      1.0  0.43940  0.29380  0.56100  1.0000 -0.1483777763
C   C367      1.0  0.37320  0.22010  0.50060  1.0000 -0.1409006807
C   C368      1.0  0.06860  0.19240  0.28820  1.0000 0.5674769472
C   C369      1.0  0.40760  0.13710  0.86780  1.0000 0.0792027622
C   C370      1.0  0.41340  0.13610  0.91190  1.0000 -0.2016506399
C   C371      1.0  0.48610  0.14980  0.93430  1.0000 0.1181987408
C   C372      1.0  0.55100  0.16210  0.90980  1.0000 -0.2016506399
C   C373      1.0  0.53980  0.16290  0.86580  1.0000 0.090970645
C   C374      1.0  0.49350  0.15310  0.98310  1.0000 0.0607807717
C   C375      1.0  0.42790  0.13860  0.00640  1.0000 -0.1409006807
C   C376      1.0  0.43290  0.14430  0.05110  1.0000 -0.1483777763
C   C377      1.0  0.50050  0.16590  0.07370  1.0000 0.0607807717
C   C378      1.0  0.56740  0.17690  0.05110  1.0000 -0.1483777763
C   C379      1.0  0.56150  0.17210  0.00620  1.0000 -0.1409006807
C   C380      1.0  0.50230  0.17460  0.12140  1.0000 0.1105733955
C   C381      1.0  0.45310  0.14380  0.14650  1.0000 -0.2093257212
C   C382      1.0  0.55250  0.21280  0.14200  1.0000 -0.2093257212
C   C383      1.0  0.55440  0.21840  0.18740  1.0000 0.090970645
C   C384      1.0  0.45950  0.15250  0.19150  1.0000 0.1011632672
N   N1        1.0  0.93950  0.30080  0.70990  1.0000 -0.2198617422
N   N2        1.0  0.71910  0.68680  0.29304  1.0000 -0.2564649293
N   N3        1.0  0.69820  0.67420  0.15420  1.0000 -0.2371865148
N   N4        1.0  0.92170  0.66730  0.65250  1.0000 -0.2371865148
N   N5        1.0  0.87380  0.18830  0.35130  1.0000 -0.2493257737
N   N6        1.0  0.61820  0.67760  0.78575  1.0000 -0.2493257737
N   N7        1.0  0.96870  0.34910  0.84380  1.0000 -0.2318625199
N   N8        1.0  0.00970  0.31210  0.21150  1.0000 -0.2198617422
N   N9        1.0  0.56050  0.80080  0.29010  1.0000 -0.2198617422
N   N10       1.0  0.78090  0.18680  0.70696  1.0000 -0.2564649293
N   N11       1.0  0.80180  0.17420  0.84580  1.0000 -0.2371865148
N   N12       1.0  0.57830  0.16730  0.34750  1.0000 -0.2371865148
N   N13       1.0  0.62620  0.68830  0.64870  1.0000 -0.2493257737
N   N14       1.0  0.88180  0.17760  0.21425  1.0000 -0.2493257737
N   N15       1.0  0.53130  0.84910  0.15620  1.0000 -0.2318625199
N   N16       1.0  0.49030  0.81210  0.78850  1.0000 -0.2198617422
N   N17       1.0  0.06050  0.69920  0.29010  1.0000 -0.2198617422
N   N18       1.0  0.28090  0.31320  0.70696  1.0000 -0.2564649293
N   N19       1.0  0.30180  0.32580  0.84580  1.0000 -0.2371865148
N   N20       1.0  0.07830  0.33270  0.34750  1.0000 -0.2371865148
N   N21       1.0  0.12620  0.81170  0.64870  1.0000 -0.2493257737
N   N22       1.0  0.38180  0.32240  0.21425  1.0000 -0.2493257737
N   N23       1.0  0.03130  0.65090  0.15620  1.0000 -0.2318625199
N   N24       1.0  0.99030  0.68790  0.78850  1.0000 -0.2198617422
N   N25       1.0  0.43950  0.19920  0.70990  1.0000 -0.2198617422
N   N26       1.0  0.21910  0.81320  0.29304  1.0000 -0.2564649293
N   N27       1.0  0.19820  0.82580  0.15420  1.0000 -0.2371865148
N   N28       1.0  0.42170  0.83270  0.65250  1.0000 -0.2371865148
N   N29       1.0  0.37380  0.31170  0.35130  1.0000 -0.2493257737
N   N30       1.0  0.11820  0.82240  0.78575  1.0000 -0.2493257737
N   N31       1.0  0.46870  0.15090  0.84380  1.0000 -0.2318625199
N   N32       1.0  0.50970  0.18790  0.21150  1.0000 -0.2198617422
O   O1        1.0  0.08550  0.82290  0.22473  1.0000 -0.5402572561
O   O2        1.0  0.00730  0.74970  0.20370  1.0000 -0.569059765
O   O3        1.0  0.65940  0.84940  0.22443  1.0000 -0.569059765
O   O4        1.0  0.71330  0.76450  0.21805  1.0000 -0.5594237158
O   O5        1.0  0.95520  0.62700  0.23934  1.0000 -0.5493333945
O   O6        1.0  0.69190  0.59110  0.22251  1.0000 -0.5594237158
O   O7        1.0  0.73090  0.50290  0.21730  1.0000 -0.5264982193
O   O8        1.0  0.70310  0.48690  0.30808  1.0000 -0.2093257212
O   O9        1.0  0.93240  0.34880  0.29034  1.0000 -0.569059765
O   O10       1.0  0.87000  0.26620  0.28029  1.0000 -0.569059765
O   O11       1.0  0.88340  0.09140  0.29756  1.0000 -0.569059765
O   O12       1.0  0.83120  0.00660  0.30500  1.0000 -0.5116471061
O   O13       1.0  0.75060  0.16770  0.27646  1.0000 -0.5402572561
O   O14       1.0  0.57600  0.25730  0.28320  1.0000 -0.5264982193
O   O15       1.0  0.50200  0.33150  0.29150  1.0000 -0.5402572561
O   O16       1.0  0.62990  0.12920  0.25982  1.0000 -0.5493333945
O   O17       1.0  0.83200  0.66170  0.22460  1.0000 -0.5594237158
O   O18       1.0  0.89500  0.98350  0.22010  1.0000 -0.2016506399
O   O19       1.0  0.41450  0.32290  0.77527  1.0000 -0.5402572561
O   O20       1.0  0.49270  0.24970  0.79630  1.0000 -0.569059765
O   O21       1.0  0.84060  0.34940  0.77557  1.0000 -0.569059765
O   O22       1.0  0.78670  0.26450  0.78195  1.0000 -0.5594237158
O   O23       1.0  0.54480  0.12700  0.76066  1.0000 -0.5493333945
O   O24       1.0  0.80810  0.09110  0.77749  1.0000 -0.5594237158
O   O25       1.0  0.76910  0.00290  0.78270  1.0000 -0.5241075167
O   O26       1.0  0.79690  0.98690  0.69192  1.0000 -0.2093257212
O   O27       1.0  0.56760  0.84880  0.70966  1.0000 -0.569059765
O   O28       1.0  0.63000  0.76620  0.71971  1.0000 -0.5750644216
O   O29       1.0  0.61660  0.59140  0.70244  1.0000 -0.569059765
O   O30       1.0  0.66880  0.50660  0.69500  1.0000 -0.5116471061
O   O31       1.0  0.74940  0.66770  0.72354  1.0000 -0.5402572561
O   O32       1.0  0.92400  0.75730  0.71680  1.0000 -0.5264982193
O   O33       1.0  0.99800  0.83150  0.70850  1.0000 -0.5402572561
O   O34       1.0  0.87010  0.62920  0.74018  1.0000 -0.5493333945
O   O35       1.0  0.66800  0.16170  0.77540  1.0000 -0.5594237158
O   O36       1.0  0.60500  0.48350  0.77990  1.0000 -0.2016506399
O   O37       1.0  0.91450  0.17710  0.77527  1.0000 -0.5402572561
O   O38       1.0  0.99270  0.25030  0.79630  1.0000 -0.569059765
O   O39       1.0  0.34060  0.15060  0.77557  1.0000 -0.569059765
O   O40       1.0  0.28670  0.23550  0.78195  1.0000 -0.5594237158
O   O41       1.0  0.04480  0.37300  0.76066  1.0000 -0.5493333945
O   O42       1.0  0.30810  0.40890  0.77749  1.0000 -0.5594237158
O   O43       1.0  0.26910  0.49710  0.78270  1.0000 -0.5241075167
O   O44       1.0  0.29690  0.51310  0.69192  1.0000 -0.2093257212
O   O45       1.0  0.06760  0.65120  0.70966  1.0000 -0.569059765
O   O46       1.0  0.13000  0.73380  0.71971  1.0000 -0.569059765
O   O47       1.0  0.11660  0.90860  0.70244  1.0000 -0.569059765
O   O48       1.0  0.16880  0.99340  0.69500  1.0000 -0.5116471061
O   O49       1.0  0.24940  0.83230  0.72354  1.0000 -0.5402572561
O   O50       1.0  0.42400  0.74270  0.71680  1.0000 -0.5264982193
O   O51       1.0  0.49800  0.66850  0.70850  1.0000 -0.5402572561
O   O52       1.0  0.37010  0.87080  0.74018  1.0000 -0.5493333945
O   O53       1.0  0.16800  0.33830  0.77540  1.0000 -0.5594237158
O   O54       1.0  0.10500  0.01650  0.77990  1.0000 -0.2016506399
O   O55       1.0  0.58550  0.67710  0.22473  1.0000 -0.5402572561
O   O56       1.0  0.50730  0.75030  0.20370  1.0000 -0.569059765
O   O57       1.0  0.15940  0.65060  0.22443  1.0000 -0.569059765
O   O58       1.0  0.21330  0.73550  0.21805  1.0000 -0.5594237158
O   O59       1.0  0.45520  0.87300  0.23934  1.0000 -0.5493333945
O   O60       1.0  0.19190  0.90890  0.22251  1.0000 -0.5594237158
O   O61       1.0  0.23090  0.99710  0.21730  1.0000 -0.5264982193
O   O62       1.0  0.20310  0.01310  0.30808  1.0000 -0.2093257212
O   O63       1.0  0.43240  0.15120  0.29034  1.0000 -0.569059765
O   O64       1.0  0.37000  0.23380  0.28029  1.0000 -0.569059765
O   O65       1.0  0.38340  0.40860  0.29756  1.0000 -0.569059765
O   O66       1.0  0.33120  0.49340  0.30500  1.0000 -0.5116471061
O   O67       1.0  0.25060  0.33230  0.27646  1.0000 -0.5402572561
O   O68       1.0  0.07600  0.24270  0.28320  1.0000 -0.5264982193
O   O69       1.0  0.00200  0.16850  0.29150  1.0000 -0.5402572561
O   O70       1.0  0.12990  0.37080  0.25982  1.0000 -0.5493333945
O   O71       1.0  0.33200  0.83830  0.22460  1.0000 -0.5594237158
O   O72       1.0  0.39500  0.51650  0.22010  1.0000 -0.2016506399
