# DDEC6 charges by PACMAN v1.1 (https://github.com/mtap-research/PACMAN-charge/)
data_2020[Zn][nts]3[ASR]1
_chemical_formula_sum              "Zn24 H96 C216 N48 O96"
_cell_length_a       27.0894
_cell_length_b       27.0894
_cell_length_c       27.0894
_cell_angle_alpha    120.235
_cell_angle_beta     120.235
_cell_angle_gamma    89.5942

_symmetry_space_group_name_H-M    "P 1"
_symmetry_Int_Tables_number       1

loop_
  _symmetry_equiv_pos_as_xyz
  'x, y, z'

loop_
  _atom_site_type_symbol
  _atom_site_label
  _atom_site_symmetry_multiplicity
  _atom_site_fract_x
  _atom_site_fract_y
  _atom_site_fract_z
  _atom_site_occupancy
  _atom_site_charge
Zn  Zn1       1.0  0.26593  0.97736  0.95333  1.0000 0.9485262753
Zn  Zn2       1.0  0.36540  0.96856  0.93462  1.0000 0.9393911085
Zn  Zn3       1.0  0.02403  0.31260  0.04667  1.0000 0.9485262753
Zn  Zn4       1.0  0.03394  0.43078  0.06538  1.0000 0.9393911085
Zn  Zn5       1.0  0.97736  0.02403  0.71143  1.0000 0.9485262753
Zn  Zn6       1.0  0.96856  0.03394  0.60316  1.0000 0.9393911085
Zn  Zn7       1.0  0.31260  0.26593  0.28857  1.0000 0.9485262753
Zn  Zn8       1.0  0.43078  0.36540  0.39684  1.0000 0.9393911085
Zn  Zn9       1.0  0.73407  0.02264  0.04667  1.0000 0.9485262753
Zn  Zn10      1.0  0.63460  0.03144  0.06538  1.0000 0.9393911085
Zn  Zn11      1.0  0.97597  0.68740  0.95333  1.0000 0.9485262753
Zn  Zn12      1.0  0.96606  0.56922  0.93462  1.0000 0.9393911085
Zn  Zn13      1.0  0.02264  0.97597  0.28857  1.0000 0.9485262753
Zn  Zn14      1.0  0.03144  0.96606  0.39684  1.0000 0.9393911085
Zn  Zn15      1.0  0.68740  0.73407  0.71143  1.0000 0.9485262753
Zn  Zn16      1.0  0.56922  0.63460  0.60316  1.0000 0.9393911085
Zn  Zn17      1.0  0.93939  0.60242  0.54181  1.0000 0.9322628698
Zn  Zn18      1.0  0.95611  0.71075  0.66686  1.0000 0.9485262753
Zn  Zn19      1.0  0.06061  0.39758  0.45819  1.0000 0.9322628698
Zn  Zn20      1.0  0.04389  0.28925  0.33314  1.0000 0.9485262753
Zn  Zn21      1.0  0.60242  0.06061  0.66303  1.0000 0.9322628698
Zn  Zn22      1.0  0.71075  0.04389  0.75464  1.0000 0.9485262753
Zn  Zn23      1.0  0.39758  0.93939  0.33697  1.0000 0.9322628698
Zn  Zn24      1.0  0.28925  0.95611  0.24536  1.0000 0.9485262753
H   H1        1.0  0.29160  0.77000  0.77180  1.0000 0.1296809416
H   H2        1.0  0.12990  0.63810  0.62740  1.0000 0.1296809416
H   H3        1.0  0.14730  0.80210  0.77360  1.0000 0.1296809416
H   H4        1.0  0.64560  0.83610  0.85530  1.0000 0.1296809416
H   H5        1.0  0.52110  0.85150  0.89560  1.0000 0.1296809416
H   H6        1.0  0.48570  0.70280  0.71890  1.0000 0.1296809416
H   H7        1.0  0.24880  0.49420  0.56000  1.0000 0.1296809416
H   H8        1.0  0.22450  0.33730  0.39760  1.0000 0.1363863873
H   H9        1.0  0.38030  0.47520  0.53010  1.0000 0.1296809416
H   H10       1.0  0.43050  0.78230  0.81840  1.0000 0.2841450394
H   H11       1.0  0.20900  0.61650  0.62810  1.0000 0.2863888712
H   H12       1.0  0.39740  0.55860  0.62680  1.0000 0.2841450394
H   H13       1.0  0.99820  0.51980  0.22820  1.0000 0.1296809416
H   H14       1.0  0.01070  0.50250  0.37260  1.0000 0.1296809416
H   H15       1.0  0.02850  0.37370  0.22640  1.0000 0.1296809416
H   H16       1.0  0.98080  0.79030  0.14470  1.0000 0.1296809416
H   H17       1.0  0.95590  0.62550  0.10440  1.0000 0.1296809416
H   H18       1.0  0.98390  0.76680  0.28110  1.0000 0.1296809416
H   H19       1.0  0.93420  0.68880  0.44000  1.0000 0.1296809416
H   H20       1.0  0.93970  0.82690  0.60240  1.0000 0.1363863873
H   H21       1.0  0.94510  0.85020  0.46990  1.0000 0.1296809416
H   H22       1.0  0.96390  0.61210  0.18160  1.0000 0.2841450394
H   H23       1.0  0.98840  0.58090  0.37190  1.0000 0.2863888712
H   H24       1.0  0.93180  0.77060  0.37320  1.0000 0.2841450394
H   H25       1.0  0.77000  0.99820  0.47840  1.0000 0.1296809416
H   H26       1.0  0.63810  0.01070  0.50820  1.0000 0.1296809416
H   H27       1.0  0.80210  0.02850  0.65480  1.0000 0.1296809416
H   H28       1.0  0.83610  0.98080  0.19050  1.0000 0.1296809416
H   H29       1.0  0.85150  0.95590  0.33040  1.0000 0.1296809416
H   H30       1.0  0.70280  0.98390  0.21710  1.0000 0.1296809416
H   H31       1.0  0.49420  0.93420  0.24540  1.0000 0.1296809416
H   H32       1.0  0.33730  0.93970  0.11280  1.0000 0.1363863873
H   H33       1.0  0.47520  0.94510  0.09490  1.0000 0.1296809416
H   H34       1.0  0.78230  0.96390  0.35180  1.0000 0.2863888712
H   H35       1.0  0.61650  0.98840  0.40750  1.0000 0.2863888712
H   H36       1.0  0.55860  0.93180  0.16120  1.0000 0.2841450394
H   H37       1.0  0.51980  0.29160  0.52160  1.0000 0.1296809416
H   H38       1.0  0.50250  0.12990  0.49180  1.0000 0.1296809416
H   H39       1.0  0.37370  0.14730  0.34520  1.0000 0.1296809416
H   H40       1.0  0.79030  0.64560  0.80950  1.0000 0.1296809416
H   H41       1.0  0.62550  0.52110  0.66960  1.0000 0.1296809416
H   H42       1.0  0.76680  0.48570  0.78290  1.0000 0.1296809416
H   H43       1.0  0.68880  0.24880  0.75460  1.0000 0.1296809416
H   H44       1.0  0.82690  0.22450  0.88720  1.0000 0.1363863873
H   H45       1.0  0.85020  0.38030  0.90510  1.0000 0.1296809416
H   H46       1.0  0.61210  0.43050  0.64820  1.0000 0.2863888712
H   H47       1.0  0.58090  0.20900  0.59250  1.0000 0.2863888712
H   H48       1.0  0.77060  0.39740  0.83880  1.0000 0.2841450394
H   H49       1.0  0.70840  0.23000  0.22820  1.0000 0.1296809416
H   H50       1.0  0.87010  0.36190  0.37260  1.0000 0.1296809416
H   H51       1.0  0.85270  0.19790  0.22640  1.0000 0.1296809416
H   H52       1.0  0.35440  0.16390  0.14470  1.0000 0.1296809416
H   H53       1.0  0.47890  0.14850  0.10440  1.0000 0.1296809416
H   H54       1.0  0.51430  0.29720  0.28110  1.0000 0.1296809416
H   H55       1.0  0.75120  0.50580  0.44000  1.0000 0.1296809416
H   H56       1.0  0.77550  0.66270  0.60240  1.0000 0.1363863873
H   H57       1.0  0.61970  0.52480  0.46990  1.0000 0.1296809416
H   H58       1.0  0.56950  0.21770  0.18160  1.0000 0.2841450394
H   H59       1.0  0.79100  0.38350  0.37190  1.0000 0.2863888712
H   H60       1.0  0.60260  0.44140  0.37320  1.0000 0.2841450394
H   H61       1.0  0.00180  0.48020  0.77180  1.0000 0.1296809416
H   H62       1.0  0.98930  0.49750  0.62740  1.0000 0.1296809416
H   H63       1.0  0.97150  0.62630  0.77360  1.0000 0.1296809416
H   H64       1.0  0.01920  0.20970  0.85530  1.0000 0.1296809416
H   H65       1.0  0.04410  0.37450  0.89560  1.0000 0.1296809416
H   H66       1.0  0.01610  0.23320  0.71890  1.0000 0.1296809416
H   H67       1.0  0.06580  0.31120  0.56000  1.0000 0.1296809416
H   H68       1.0  0.06030  0.17310  0.39760  1.0000 0.1363863873
H   H69       1.0  0.05490  0.14980  0.53010  1.0000 0.1296809416
H   H70       1.0  0.03610  0.38790  0.81840  1.0000 0.2841450394
H   H71       1.0  0.01160  0.41910  0.62810  1.0000 0.2863888712
H   H72       1.0  0.06820  0.22940  0.62680  1.0000 0.2841450394
H   H73       1.0  0.23000  0.00180  0.52160  1.0000 0.1296809416
H   H74       1.0  0.36190  0.98930  0.49180  1.0000 0.1296809416
H   H75       1.0  0.19790  0.97150  0.34520  1.0000 0.1296809416
H   H76       1.0  0.16390  0.01920  0.80950  1.0000 0.1296809416
H   H77       1.0  0.14850  0.04410  0.66960  1.0000 0.1296809416
H   H78       1.0  0.29720  0.01610  0.78290  1.0000 0.1296809416
H   H79       1.0  0.50580  0.06580  0.75460  1.0000 0.1296809416
H   H80       1.0  0.66270  0.06030  0.88720  1.0000 0.1363863873
H   H81       1.0  0.52480  0.05490  0.90510  1.0000 0.1296809416
H   H82       1.0  0.21770  0.03610  0.64820  1.0000 0.2841450394
H   H83       1.0  0.38350  0.01160  0.59250  1.0000 0.2863888712
H   H84       1.0  0.44140  0.06820  0.83880  1.0000 0.2863888712
H   H85       1.0  0.48020  0.70840  0.47840  1.0000 0.1296809416
H   H86       1.0  0.49750  0.87010  0.50820  1.0000 0.1296809416
H   H87       1.0  0.62630  0.85270  0.65480  1.0000 0.1296809416
H   H88       1.0  0.20970  0.35440  0.19050  1.0000 0.1296809416
H   H89       1.0  0.37450  0.47890  0.33040  1.0000 0.1296809416
H   H90       1.0  0.23320  0.51430  0.21710  1.0000 0.1296809416
H   H91       1.0  0.31120  0.75120  0.24540  1.0000 0.1296809416
H   H92       1.0  0.17310  0.77550  0.11280  1.0000 0.1363863873
H   H93       1.0  0.14980  0.61970  0.09490  1.0000 0.1296809416
H   H94       1.0  0.38790  0.56950  0.35180  1.0000 0.2841450394
H   H95       1.0  0.41910  0.79100  0.40750  1.0000 0.2863888712
H   H96       1.0  0.22940  0.60260  0.16120  1.0000 0.2863888712
C   C1        1.0  0.26202  0.86025  0.84089  1.0000 0.5967205337
C   C2        1.0  0.22482  0.79541  0.78061  1.0000 -0.021406862
C   C3        1.0  0.25054  0.75640  0.75182  1.0000 -0.1606243157
C   C4        1.0  0.21456  0.69620  0.69356  1.0000 0.2064540088
C   C5        1.0  0.15400  0.67773  0.66617  1.0000 -0.1960426358
C   C6        1.0  0.12816  0.71644  0.69512  1.0000 -0.021406862
C   C7        1.0  0.06211  0.69491  0.66258  1.0000 0.5925283304
C   C8        1.0  0.16395  0.77561  0.75352  1.0000 -0.0988917504
C   C9        1.0  0.29218  0.65464  0.67778  1.0000 0.528539872
C   C10       1.0  0.34985  0.60413  0.64894  1.0000 0.528539872
C   C11       1.0  0.39031  0.70230  0.73663  1.0000 0.5234648755
C   C12       1.0  0.60740  0.82068  0.84266  1.0000 -0.0988917504
C   C13       1.0  0.56894  0.76398  0.78096  1.0000 -0.021406862
C   C14       1.0  0.49552  0.77329  0.80667  1.0000 0.2038241672
C   C15       1.0  0.53337  0.82923  0.86680  1.0000 -0.1925323264
C   C16       1.0  0.59005  0.85354  0.88633  1.0000 -0.021406862
C   C17       1.0  0.51234  0.74002  0.76144  1.0000 -0.1606243157
C   C18       1.0  0.62920  0.91622  0.95112  1.0000 0.5925283304
C   C19       1.0  0.58757  0.73074  0.73249  1.0000 0.5925283304
C   C20       1.0  0.32001  0.49457  0.55384  1.0000 0.2038241672
C   C21       1.0  0.26320  0.47088  0.53420  1.0000 -0.1685427555
C   C22       1.0  0.24890  0.37647  0.43733  1.0000 -0.0988917504
C   C23       1.0  0.22772  0.41149  0.47539  1.0000 -0.021406862
C   C24       1.0  0.30620  0.39986  0.45750  1.0000 -0.021406862
C   C25       1.0  0.34164  0.45935  0.51607  1.0000 -0.1925323264
C   C26       1.0  0.16474  0.38606  0.45100  1.0000 0.5967205337
C   C27       1.0  0.32979  0.36438  0.41553  1.0000 0.5925283304
C   C28       1.0  0.01936  0.42113  0.15911  1.0000 0.5967205337
C   C29       1.0  0.01480  0.44421  0.21939  1.0000 -0.021406862
C   C30       1.0  0.00458  0.49872  0.24818  1.0000 -0.1606243157
C   C31       1.0  0.00264  0.52100  0.30644  1.0000 0.2038241672
C   C32       1.0  0.01156  0.48783  0.33383  1.0000 -0.1960426358
C   C33       1.0  0.02132  0.43304  0.30488  1.0000 -0.021406862
C   C34       1.0  0.03233  0.39953  0.33742  1.0000 0.5925283304
C   C35       1.0  0.02209  0.41043  0.24648  1.0000 -0.0988917504
C   C36       1.0  0.97686  0.61440  0.32222  1.0000 0.528539872
C   C37       1.0  0.95519  0.70091  0.35106  1.0000 0.528539872
C   C38       1.0  0.96567  0.65368  0.26337  1.0000 0.5234648755
C   C39       1.0  0.97802  0.76474  0.15734  1.0000 -0.0988917504
C   C40       1.0  0.98302  0.78798  0.21904  1.0000 -0.021406862
C   C41       1.0  0.96662  0.68885  0.19333  1.0000 0.2038241672
C   C42       1.0  0.96243  0.66657  0.13320  1.0000 -0.1925323264
C   C43       1.0  0.96721  0.70372  0.11367  1.0000 -0.0251645965
C   C44       1.0  0.97858  0.75090  0.23856  1.0000 -0.1606243157
C   C45       1.0  0.96510  0.67808  0.04888  1.0000 0.5925283304
C   C46       1.0  0.99825  0.85508  0.26751  1.0000 0.5925283304
C   C47       1.0  0.94073  0.76617  0.44616  1.0000 0.2038241672
C   C48       1.0  0.93668  0.72900  0.46580  1.0000 -0.1685427555
C   C49       1.0  0.93914  0.81157  0.56267  1.0000 -0.0988917504
C   C50       1.0  0.93610  0.75233  0.52461  1.0000 -0.021406862
C   C51       1.0  0.94236  0.84870  0.54250  1.0000 -0.021406862
C   C52       1.0  0.94328  0.82557  0.48393  1.0000 -0.1925323264
C   C53       1.0  0.93506  0.71374  0.54900  1.0000 0.5967205337
C   C54       1.0  0.94885  0.91426  0.58447  1.0000 0.5925283304
C   C55       1.0  0.86025  0.01936  0.59823  1.0000 0.5967205337
C   C56       1.0  0.79541  0.01480  0.57059  1.0000 -0.021406862
C   C57       1.0  0.75640  0.00458  0.50586  1.0000 -0.1606243157
C   C58       1.0  0.69620  0.00264  0.48164  1.0000 0.2064540088
C   C59       1.0  0.67773  0.01156  0.52373  1.0000 -0.1960426358
C   C60       1.0  0.71644  0.02132  0.58828  1.0000 -0.021406862
C   C61       1.0  0.69491  0.03233  0.63280  1.0000 0.5925283304
C   C62       1.0  0.77561  0.02209  0.61166  1.0000 -0.0988917504
C   C63       1.0  0.65464  0.97686  0.36246  1.0000 0.528539872
C   C64       1.0  0.60413  0.95519  0.25428  1.0000 0.528539872
C   C65       1.0  0.70230  0.96567  0.31199  1.0000 0.5234648755
C   C66       1.0  0.82068  0.97802  0.21328  1.0000 -0.0988917504
C   C67       1.0  0.76398  0.98302  0.19504  1.0000 -0.021406862
C   C68       1.0  0.77329  0.96662  0.27777  1.0000 0.2038241672
C   C69       1.0  0.82923  0.96243  0.29586  1.0000 -0.1925323264
C   C70       1.0  0.85354  0.96721  0.26349  1.0000 -0.021406862
C   C71       1.0  0.74002  0.97858  0.22768  1.0000 -0.1606243157
C   C72       1.0  0.91622  0.96510  0.28702  1.0000 0.5925283304
C   C73       1.0  0.73074  0.99825  0.14317  1.0000 0.5925283304
C   C74       1.0  0.49457  0.94073  0.17456  1.0000 0.2038241672
C   C75       1.0  0.47088  0.93668  0.20768  1.0000 -0.1685427555
C   C76       1.0  0.37647  0.93914  0.12757  1.0000 -0.0988917504
C   C77       1.0  0.41149  0.93610  0.18377  1.0000 -0.021406862
C   C78       1.0  0.39986  0.94236  0.09366  1.0000 -0.021406862
C   C79       1.0  0.45935  0.94328  0.11771  1.0000 -0.1960426358
C   C80       1.0  0.38606  0.93506  0.22132  1.0000 0.5967205337
C   C81       1.0  0.36438  0.94885  0.03459  1.0000 0.5925283304
C   C82       1.0  0.42113  0.26202  0.40177  1.0000 0.5967205337
C   C83       1.0  0.44421  0.22482  0.42941  1.0000 -0.021406862
C   C84       1.0  0.49872  0.25054  0.49414  1.0000 -0.1606243157
C   C85       1.0  0.52100  0.21456  0.51836  1.0000 0.2064540088
C   C86       1.0  0.48783  0.15400  0.47627  1.0000 -0.1960426358
C   C87       1.0  0.43304  0.12816  0.41172  1.0000 -0.021406862
C   C88       1.0  0.39953  0.06211  0.36720  1.0000 0.5925283304
C   C89       1.0  0.41043  0.16395  0.38834  1.0000 -0.0988917504
C   C90       1.0  0.61440  0.29218  0.63754  1.0000 0.528539872
C   C91       1.0  0.70091  0.34985  0.74572  1.0000 0.528539872
C   C92       1.0  0.65368  0.39031  0.68801  1.0000 0.5234648755
C   C93       1.0  0.76474  0.60740  0.78672  1.0000 -0.0988917504
C   C94       1.0  0.78798  0.56894  0.80496  1.0000 -0.021406862
C   C95       1.0  0.68885  0.49552  0.72223  1.0000 0.2038241672
C   C96       1.0  0.66657  0.53337  0.70414  1.0000 -0.1925323264
C   C97       1.0  0.70372  0.59005  0.73651  1.0000 -0.0251645965
C   C98       1.0  0.75090  0.51234  0.77232  1.0000 -0.1606243157
C   C99       1.0  0.67808  0.62920  0.71298  1.0000 0.5925283304
C   C100      1.0  0.85508  0.58757  0.85683  1.0000 0.5925283304
C   C101      1.0  0.76617  0.32001  0.82544  1.0000 0.2038241672
C   C102      1.0  0.72900  0.26320  0.79232  1.0000 -0.1685427555
C   C103      1.0  0.81157  0.24890  0.87243  1.0000 -0.0988917504
C   C104      1.0  0.75233  0.22772  0.81623  1.0000 -0.021406862
C   C105      1.0  0.84870  0.30620  0.90634  1.0000 -0.021406862
C   C106      1.0  0.82557  0.34164  0.88229  1.0000 -0.1925323264
C   C107      1.0  0.71374  0.16474  0.77868  1.0000 0.5967205337
C   C108      1.0  0.91426  0.32979  0.96541  1.0000 0.5925283304
C   C109      1.0  0.73798  0.13975  0.15911  1.0000 0.5967205337
C   C110      1.0  0.77518  0.20459  0.21939  1.0000 -0.021406862
C   C111      1.0  0.74946  0.24360  0.24818  1.0000 -0.1606243157
C   C112      1.0  0.78544  0.30380  0.30644  1.0000 0.2064540088
C   C113      1.0  0.84600  0.32227  0.33383  1.0000 -0.1960426358
C   C114      1.0  0.87184  0.28356  0.30488  1.0000 -0.021406862
C   C115      1.0  0.93789  0.30509  0.33742  1.0000 0.5925283304
C   C116      1.0  0.83605  0.22439  0.24648  1.0000 -0.0988917504
C   C117      1.0  0.70782  0.34536  0.32222  1.0000 0.528539872
C   C118      1.0  0.65015  0.39587  0.35106  1.0000 0.528539872
C   C119      1.0  0.60969  0.29770  0.26337  1.0000 0.5234648755
C   C120      1.0  0.39260  0.17932  0.15734  1.0000 -0.0988917504
C   C121      1.0  0.43106  0.23602  0.21904  1.0000 -0.021406862
C   C122      1.0  0.50448  0.22671  0.19333  1.0000 0.2038241672
C   C123      1.0  0.46663  0.17077  0.13320  1.0000 -0.1925323264
C   C124      1.0  0.40995  0.14646  0.11367  1.0000 -0.0251645965
C   C125      1.0  0.48766  0.25998  0.23856  1.0000 -0.1606243157
C   C126      1.0  0.37080  0.08378  0.04888  1.0000 0.5925283304
C   C127      1.0  0.41243  0.26926  0.26751  1.0000 0.5925283304
C   C128      1.0  0.67999  0.50543  0.44616  1.0000 0.2038241672
C   C129      1.0  0.73680  0.52912  0.46580  1.0000 -0.1685427555
C   C130      1.0  0.75110  0.62353  0.56267  1.0000 -0.0988917504
C   C131      1.0  0.77228  0.58851  0.52461  1.0000 -0.021406862
C   C132      1.0  0.69380  0.60014  0.54250  1.0000 -0.021406862
C   C133      1.0  0.65836  0.54065  0.48393  1.0000 -0.1925323264
C   C134      1.0  0.83526  0.61394  0.54900  1.0000 0.5967205337
C   C135      1.0  0.67021  0.63562  0.58447  1.0000 0.5925283304
C   C136      1.0  0.98064  0.57887  0.84089  1.0000 0.5967205337
C   C137      1.0  0.98520  0.55579  0.78061  1.0000 -0.021406862
C   C138      1.0  0.99542  0.50128  0.75182  1.0000 -0.1606243157
C   C139      1.0  0.99736  0.47900  0.69356  1.0000 0.2064540088
C   C140      1.0  0.98844  0.51217  0.66617  1.0000 -0.1960426358
C   C141      1.0  0.97868  0.56696  0.69512  1.0000 -0.021406862
C   C142      1.0  0.96767  0.60047  0.66258  1.0000 0.5925283304
C   C143      1.0  0.97791  0.58957  0.75352  1.0000 -0.0988917504
C   C144      1.0  0.02314  0.38560  0.67778  1.0000 0.528539872
C   C145      1.0  0.04481  0.29909  0.64894  1.0000 0.528539872
C   C146      1.0  0.03433  0.34632  0.73663  1.0000 0.5234648755
C   C147      1.0  0.02198  0.23526  0.84266  1.0000 -0.0988917504
C   C148      1.0  0.01698  0.21202  0.78096  1.0000 -0.021406862
C   C149      1.0  0.03338  0.31115  0.80667  1.0000 0.2038241672
C   C150      1.0  0.03757  0.33343  0.86680  1.0000 -0.1925323264
C   C151      1.0  0.03279  0.29628  0.88633  1.0000 -0.021406862
C   C152      1.0  0.02142  0.24910  0.76144  1.0000 -0.1606243157
C   C153      1.0  0.03490  0.32192  0.95112  1.0000 0.5925283304
C   C154      1.0  0.00175  0.14492  0.73249  1.0000 0.5925283304
C   C155      1.0  0.05927  0.23383  0.55384  1.0000 0.2038241672
C   C156      1.0  0.06332  0.27100  0.53420  1.0000 -0.1685427555
C   C157      1.0  0.06086  0.18843  0.43733  1.0000 -0.0988917504
C   C158      1.0  0.06390  0.24767  0.47539  1.0000 -0.021406862
C   C159      1.0  0.05764  0.15130  0.45750  1.0000 -0.021406862
C   C160      1.0  0.05672  0.17443  0.51607  1.0000 -0.1960426358
C   C161      1.0  0.06494  0.28626  0.45100  1.0000 0.5967205337
C   C162      1.0  0.05115  0.08574  0.41553  1.0000 0.5925283304
C   C163      1.0  0.13975  0.98064  0.40177  1.0000 0.5967205337
C   C164      1.0  0.20459  0.98520  0.42941  1.0000 -0.021406862
C   C165      1.0  0.24360  0.99542  0.49414  1.0000 -0.1606243157
C   C166      1.0  0.30380  0.99736  0.51836  1.0000 0.2064540088
C   C167      1.0  0.32227  0.98844  0.47627  1.0000 -0.1960426358
C   C168      1.0  0.28356  0.97868  0.41172  1.0000 -0.021406862
C   C169      1.0  0.30509  0.96767  0.36720  1.0000 0.5925283304
C   C170      1.0  0.22439  0.97791  0.38834  1.0000 -0.0988917504
C   C171      1.0  0.34536  0.02314  0.63754  1.0000 0.528539872
C   C172      1.0  0.39587  0.04481  0.74572  1.0000 0.528539872
C   C173      1.0  0.29770  0.03433  0.68801  1.0000 0.5234648755
C   C174      1.0  0.17932  0.02198  0.78672  1.0000 -0.0988917504
C   C175      1.0  0.23602  0.01698  0.80496  1.0000 -0.021406862
C   C176      1.0  0.22671  0.03338  0.72223  1.0000 0.2038241672
C   C177      1.0  0.17077  0.03757  0.70414  1.0000 -0.1925323264
C   C178      1.0  0.14646  0.03279  0.73651  1.0000 -0.0251645965
C   C179      1.0  0.25998  0.02142  0.77232  1.0000 -0.1606243157
C   C180      1.0  0.08378  0.03490  0.71298  1.0000 0.5925283304
C   C181      1.0  0.26926  0.00175  0.85683  1.0000 0.5925283304
C   C182      1.0  0.50543  0.05927  0.82544  1.0000 0.2038241672
C   C183      1.0  0.52912  0.06332  0.79232  1.0000 -0.1685427555
C   C184      1.0  0.62353  0.06086  0.87243  1.0000 -0.0988917504
C   C185      1.0  0.58851  0.06390  0.81623  1.0000 -0.021406862
C   C186      1.0  0.60014  0.05764  0.90634  1.0000 -0.021406862
C   C187      1.0  0.54065  0.05672  0.88229  1.0000 -0.1925323264
C   C188      1.0  0.61394  0.06494  0.77868  1.0000 0.5967205337
C   C189      1.0  0.63562  0.05115  0.96541  1.0000 0.5925283304
C   C190      1.0  0.57887  0.73798  0.59823  1.0000 0.5967205337
C   C191      1.0  0.55579  0.77518  0.57059  1.0000 -0.021406862
C   C192      1.0  0.50128  0.74946  0.50586  1.0000 -0.1606243157
C   C193      1.0  0.47900  0.78544  0.48164  1.0000 0.2064540088
C   C194      1.0  0.51217  0.84600  0.52373  1.0000 -0.1960426358
C   C195      1.0  0.56696  0.87184  0.58828  1.0000 -0.021406862
C   C196      1.0  0.60047  0.93789  0.63280  1.0000 0.5925283304
C   C197      1.0  0.58957  0.83605  0.61166  1.0000 -0.0988917504
C   C198      1.0  0.38560  0.70782  0.36246  1.0000 0.528539872
C   C199      1.0  0.29909  0.65015  0.25428  1.0000 0.528539872
C   C200      1.0  0.34632  0.60969  0.31199  1.0000 0.5234648755
C   C201      1.0  0.23526  0.39260  0.21328  1.0000 -0.0988917504
C   C202      1.0  0.21202  0.43106  0.19504  1.0000 -0.021406862
C   C203      1.0  0.31115  0.50448  0.27777  1.0000 0.2038241672
C   C204      1.0  0.33343  0.46663  0.29586  1.0000 -0.1925323264
C   C205      1.0  0.29628  0.40995  0.26349  1.0000 -0.0251645965
C   C206      1.0  0.24910  0.48766  0.22768  1.0000 -0.1606243157
C   C207      1.0  0.32192  0.37080  0.28702  1.0000 0.5925283304
C   C208      1.0  0.14492  0.41243  0.14317  1.0000 0.5925283304
C   C209      1.0  0.23383  0.67999  0.17456  1.0000 0.2038241672
C   C210      1.0  0.27100  0.73680  0.20768  1.0000 -0.1685427555
C   C211      1.0  0.18843  0.75110  0.12757  1.0000 -0.0988917504
C   C212      1.0  0.24767  0.77228  0.18377  1.0000 -0.021406862
C   C213      1.0  0.15130  0.69380  0.09366  1.0000 -0.021406862
C   C214      1.0  0.17443  0.65836  0.11771  1.0000 -0.1960426358
C   C215      1.0  0.28626  0.83526  0.22132  1.0000 0.5967205337
C   C216      1.0  0.08574  0.67021  0.03459  1.0000 0.5925283304
N   N1        1.0  0.33847  0.70592  0.73057  1.0000 -0.523236064
N   N2        1.0  0.29506  0.60064  0.63508  1.0000 -0.5303886299
N   N3        1.0  0.39937  0.65366  0.69817  1.0000 -0.523236064
N   N4        1.0  0.43704  0.75567  0.78927  1.0000 -0.3405937978
N   N5        1.0  0.23591  0.65178  0.66187  1.0000 -0.3288181105
N   N6        1.0  0.36013  0.55379  0.61200  1.0000 -0.3405937978
N   N7        1.0  0.97535  0.60790  0.26943  1.0000 -0.5303886299
N   N8        1.0  0.96556  0.65998  0.36492  1.0000 -0.5396403519
N   N9        1.0  0.95549  0.70120  0.30183  1.0000 -0.5303886299
N   N10       1.0  0.96640  0.64777  0.21073  1.0000 -0.3405937978
N   N11       1.0  0.98991  0.57404  0.33813  1.0000 -0.3288181105
N   N12       1.0  0.94179  0.74813  0.38800  1.0000 -0.3405937978
N   N13       1.0  0.70592  0.97535  0.36745  1.0000 -0.523236064
N   N14       1.0  0.60064  0.96556  0.30558  1.0000 -0.5303886299
N   N15       1.0  0.65366  0.95549  0.25429  1.0000 -0.523236064
N   N16       1.0  0.75567  0.96640  0.31863  1.0000 -0.3405937978
N   N17       1.0  0.65178  0.98991  0.41587  1.0000 -0.3288181105
N   N18       1.0  0.55379  0.94179  0.19366  1.0000 -0.3405937978
N   N19       1.0  0.60790  0.33847  0.63255  1.0000 -0.523236064
N   N20       1.0  0.65998  0.29506  0.69442  1.0000 -0.5396403519
N   N21       1.0  0.70120  0.39937  0.74571  1.0000 -0.5303886299
N   N22       1.0  0.64777  0.43704  0.68137  1.0000 -0.3405937978
N   N23       1.0  0.57404  0.23591  0.58413  1.0000 -0.3288181105
N   N24       1.0  0.74813  0.36013  0.80634  1.0000 -0.3405937978
N   N25       1.0  0.66153  0.29408  0.26943  1.0000 -0.5303886299
N   N26       1.0  0.70494  0.39936  0.36492  1.0000 -0.5396403519
N   N27       1.0  0.60063  0.34634  0.30183  1.0000 -0.5303886299
N   N28       1.0  0.56296  0.24433  0.21073  1.0000 -0.3405937978
N   N29       1.0  0.76409  0.34822  0.33813  1.0000 -0.3288181105
N   N30       1.0  0.63987  0.44621  0.38800  1.0000 -0.3405937978
N   N31       1.0  0.02465  0.39210  0.73057  1.0000 -0.523236064
N   N32       1.0  0.03444  0.34002  0.63508  1.0000 -0.5303886299
N   N33       1.0  0.04451  0.29880  0.69817  1.0000 -0.523236064
N   N34       1.0  0.03360  0.35223  0.78927  1.0000 -0.3405937978
N   N35       1.0  0.01009  0.42596  0.66187  1.0000 -0.3288181105
N   N36       1.0  0.05821  0.25187  0.61200  1.0000 -0.3405937978
N   N37       1.0  0.29408  0.02465  0.63255  1.0000 -0.523236064
N   N38       1.0  0.39936  0.03444  0.69442  1.0000 -0.5396403519
N   N39       1.0  0.34634  0.04451  0.74571  1.0000 -0.5303886299
N   N40       1.0  0.24433  0.03360  0.68137  1.0000 -0.3405937978
N   N41       1.0  0.34822  0.01009  0.58413  1.0000 -0.3288181105
N   N42       1.0  0.44621  0.05821  0.80634  1.0000 -0.3405937978
N   N43       1.0  0.39210  0.66153  0.36745  1.0000 -0.523236064
N   N44       1.0  0.34002  0.70494  0.30558  1.0000 -0.5396403519
N   N45       1.0  0.29880  0.60063  0.25429  1.0000 -0.523236064
N   N46       1.0  0.35223  0.56296  0.31863  1.0000 -0.3405937978
N   N47       1.0  0.42596  0.76409  0.41587  1.0000 -0.3288181105
N   N48       1.0  0.25187  0.63987  0.19366  1.0000 -0.3405937978
O   O1        1.0  0.23827  0.89077  0.87044  1.0000 -0.5495324962
O   O2        1.0  0.31338  0.88005  0.85777  1.0000 -0.5396403519
O   O3        1.0  0.04316  0.72738  0.69714  1.0000 -0.5396403519
O   O4        1.0  0.03059  0.64614  0.60377  1.0000 -0.5495324962
O   O5        1.0  0.14714  0.41715  0.48793  1.0000 -0.5396403519
O   O6        1.0  0.13347  0.33489  0.39468  1.0000 -0.5396403519
O   O7        1.0  0.29420  0.31279  0.35971  1.0000 -0.5396403519
O   O8        1.0  0.38203  0.38823  0.43818  1.0000 -0.5495324962
O   O9        1.0  0.60911  0.94330  0.98629  1.0000 -0.5495324962
O   O10       1.0  0.67942  0.93675  0.96501  1.0000 -0.5396403519
O   O11       1.0  0.64073  0.75338  0.75525  1.0000 -0.5495324962
O   O12       1.0  0.54914  0.68322  0.67330  1.0000 -0.5396403519
O   O13       1.0  0.02033  0.36783  0.12956  1.0000 -0.5495324962
O   O14       1.0  0.02228  0.45561  0.14223  1.0000 -0.5396403519
O   O15       1.0  0.03024  0.34602  0.30286  1.0000 -0.5396403519
O   O16       1.0  0.04237  0.42682  0.39623  1.0000 -0.5495324962
O   O17       1.0  0.92922  0.65921  0.51207  1.0000 -0.5396403519
O   O18       1.0  0.94021  0.73879  0.60532  1.0000 -0.5303886299
O   O19       1.0  0.95308  0.93449  0.64029  1.0000 -0.5396403519
O   O20       1.0  0.95005  0.94385  0.56182  1.0000 -0.5495324962
O   O21       1.0  0.95701  0.62282  0.01371  1.0000 -0.5495324962
O   O22       1.0  0.97174  0.71441  0.03499  1.0000 -0.5396403519
O   O23       1.0  0.99813  0.88548  0.24475  1.0000 -0.5495324962
O   O24       1.0  0.00992  0.87584  0.32670  1.0000 -0.5396403519
O   O25       1.0  0.89077  0.02033  0.65250  1.0000 -0.5495324962
O   O26       1.0  0.88005  0.02228  0.56667  1.0000 -0.5396403519
O   O27       1.0  0.72738  0.03024  0.68422  1.0000 -0.5396403519
O   O28       1.0  0.64614  0.04237  0.61555  1.0000 -0.5495324962
O   O29       1.0  0.41715  0.92922  0.27001  1.0000 -0.5396403519
O   O30       1.0  0.33489  0.94021  0.20142  1.0000 -0.5396403519
O   O31       1.0  0.31279  0.95308  0.01859  1.0000 -0.5396403519
O   O32       1.0  0.38823  0.95005  0.00620  1.0000 -0.5495324962
O   O33       1.0  0.94330  0.95701  0.33419  1.0000 -0.5495324962
O   O34       1.0  0.93675  0.97174  0.25733  1.0000 -0.5396403519
O   O35       1.0  0.75338  0.99813  0.11265  1.0000 -0.5396403519
O   O36       1.0  0.68322  0.00992  0.13408  1.0000 -0.5396403519
O   O37       1.0  0.36783  0.23827  0.34750  1.0000 -0.5495324962
O   O38       1.0  0.45561  0.31338  0.43333  1.0000 -0.5396403519
O   O39       1.0  0.34602  0.04316  0.31578  1.0000 -0.5396403519
O   O40       1.0  0.42682  0.03059  0.38445  1.0000 -0.5495324962
O   O41       1.0  0.65921  0.14714  0.72999  1.0000 -0.5396403519
O   O42       1.0  0.73879  0.13347  0.79858  1.0000 -0.5396403519
O   O43       1.0  0.93449  0.29420  0.98141  1.0000 -0.5396403519
O   O44       1.0  0.94385  0.38203  0.99380  1.0000 -0.5495324962
O   O45       1.0  0.62282  0.60911  0.66581  1.0000 -0.5495324962
O   O46       1.0  0.71441  0.67942  0.74267  1.0000 -0.5396403519
O   O47       1.0  0.88548  0.64073  0.88735  1.0000 -0.5495324962
O   O48       1.0  0.87584  0.54914  0.86592  1.0000 -0.5396403519
O   O49       1.0  0.76173  0.10923  0.12956  1.0000 -0.5495324962
O   O50       1.0  0.68662  0.11995  0.14223  1.0000 -0.5396403519
O   O51       1.0  0.95684  0.27262  0.30286  1.0000 -0.5396403519
O   O52       1.0  0.96941  0.35386  0.39623  1.0000 -0.5495324962
O   O53       1.0  0.85286  0.58285  0.51207  1.0000 -0.5396403519
O   O54       1.0  0.86653  0.66511  0.60532  1.0000 -0.5303886299
O   O55       1.0  0.70580  0.68721  0.64029  1.0000 -0.5396403519
O   O56       1.0  0.61797  0.61177  0.56182  1.0000 -0.5495324962
O   O57       1.0  0.39089  0.05670  0.01371  1.0000 -0.5495324962
O   O58       1.0  0.32058  0.06325  0.03499  1.0000 -0.5396403519
O   O59       1.0  0.35927  0.24662  0.24475  1.0000 -0.5495324962
O   O60       1.0  0.45086  0.31678  0.32670  1.0000 -0.5396403519
O   O61       1.0  0.97967  0.63217  0.87044  1.0000 -0.5495324962
O   O62       1.0  0.97772  0.54439  0.85777  1.0000 -0.5396403519
O   O63       1.0  0.96976  0.65398  0.69714  1.0000 -0.5396403519
O   O64       1.0  0.95763  0.57318  0.60377  1.0000 -0.5495324962
O   O65       1.0  0.07078  0.34079  0.48793  1.0000 -0.5396403519
O   O66       1.0  0.05979  0.26121  0.39468  1.0000 -0.5303886299
O   O67       1.0  0.04692  0.06551  0.35971  1.0000 -0.5396403519
O   O68       1.0  0.04995  0.05615  0.43818  1.0000 -0.5495324962
O   O69       1.0  0.04299  0.37718  0.98629  1.0000 -0.5495324962
O   O70       1.0  0.02826  0.28559  0.96501  1.0000 -0.5396403519
O   O71       1.0  0.00187  0.11452  0.75525  1.0000 -0.5495324962
O   O72       1.0  0.99008  0.12416  0.67330  1.0000 -0.5396403519
O   O73       1.0  0.10923  0.97967  0.34750  1.0000 -0.5495324962
O   O74       1.0  0.11995  0.97772  0.43333  1.0000 -0.5396403519
O   O75       1.0  0.27262  0.96976  0.31578  1.0000 -0.5303886299
O   O76       1.0  0.35386  0.95763  0.38445  1.0000 -0.5495324962
O   O77       1.0  0.58285  0.07078  0.72999  1.0000 -0.5396403519
O   O78       1.0  0.66511  0.05979  0.79858  1.0000 -0.5396403519
O   O79       1.0  0.68721  0.04692  0.98141  1.0000 -0.5396403519
O   O80       1.0  0.61177  0.04995  0.99380  1.0000 -0.5495324962
O   O81       1.0  0.05670  0.04299  0.66581  1.0000 -0.5495324962
O   O82       1.0  0.06325  0.02826  0.74267  1.0000 -0.5396403519
O   O83       1.0  0.24662  0.00187  0.88735  1.0000 -0.5495324962
O   O84       1.0  0.31678  0.99008  0.86592  1.0000 -0.5396403519
O   O85       1.0  0.63217  0.76173  0.65250  1.0000 -0.5495324962
O   O86       1.0  0.54439  0.68662  0.56667  1.0000 -0.5396403519
O   O87       1.0  0.65398  0.95684  0.68422  1.0000 -0.5396403519
O   O88       1.0  0.57318  0.96941  0.61555  1.0000 -0.5495324962
O   O89       1.0  0.34079  0.85286  0.27001  1.0000 -0.5396403519
O   O90       1.0  0.26121  0.86653  0.20142  1.0000 -0.5303886299
O   O91       1.0  0.06551  0.70580  0.01859  1.0000 -0.5396403519
O   O92       1.0  0.05615  0.61797  0.00620  1.0000 -0.5495324962
O   O93       1.0  0.37718  0.39089  0.33419  1.0000 -0.5495324962
O   O94       1.0  0.28559  0.32058  0.25733  1.0000 -0.5396403519
O   O95       1.0  0.11452  0.35927  0.11265  1.0000 -0.5495324962
O   O96       1.0  0.12416  0.45086  0.13408  1.0000 -0.5396403519
