# DDEC6 charges by PACMAN v1.1 (https://github.com/mtap-research/PACMAN-charge/)
data_2021[Co][sit]3[ASR]1
_chemical_formula_sum              "Co12 H140 C236 N4 O52"
_cell_length_a       17.474
_cell_length_b       17.883
_cell_length_c       28.053
_cell_angle_alpha    90
_cell_angle_beta     90
_cell_angle_gamma    90

_symmetry_space_group_name_H-M    "P 1"
_symmetry_Int_Tables_number       1

loop_
  _symmetry_equiv_pos_as_xyz
  'x, y, z'

loop_
  _atom_site_type_symbol
  _atom_site_label
  _atom_site_symmetry_multiplicity
  _atom_site_fract_x
  _atom_site_fract_y
  _atom_site_fract_z
  _atom_site_occupancy
  _atom_site_charge
Co  Co1       1.0  0.50825  0.97466  0.18423  1.0000 1.0750453263
Co  Co2       1.0  0.99175  0.47466  0.81577  1.0000 1.0750453263
Co  Co3       1.0  0.50825  0.97466  0.31577  1.0000 1.0750453263
Co  Co4       1.0  0.99175  0.47466  0.68423  1.0000 1.0750453263
Co  Co5       1.0  0.62252  0.85215  0.25000  1.0000 1.0190766841
Co  Co6       1.0  0.87748  0.35215  0.75000  1.0000 1.0190766841
Co  Co7       1.0  0.49175  0.02534  0.68423  1.0000 1.0750453263
Co  Co8       1.0  0.00825  0.52534  0.31577  1.0000 1.0750453263
Co  Co9       1.0  0.49175  0.02534  0.81577  1.0000 1.0750453263
Co  Co10      1.0  0.00825  0.52534  0.18423  1.0000 1.0750453263
Co  Co11      1.0  0.37748  0.14785  0.75000  1.0000 1.0190766841
Co  Co12      1.0  0.12252  0.64785  0.25000  1.0000 1.0190766841
H   H1        1.0  0.59716  0.68359  0.14244  1.0000 0.119655977
H   H2        1.0  0.58884  0.61058  0.07427  1.0000 0.1118382985
H   H3        1.0  0.41484  0.74011  0.02622  1.0000 0.119655977
H   H4        1.0  0.42536  0.81484  0.09351  1.0000 0.1290840589
H   H5        1.0  0.60774  0.60039  0.99167  1.0000 0.1118382985
H   H6        1.0  0.47836  0.50865  0.88775  1.0000 0.1118382985
H   H7        1.0  0.37757  0.62317  0.99481  1.0000 0.119655977
H   H8        1.0  0.37336  0.54139  0.84851  1.0000 0.119655977
H   H9        1.0  0.25514  0.51298  0.81549  1.0000 0.119655977
H   H10       1.0  0.15970  0.52427  0.94537  1.0000 0.1290840589
H   H11       1.0  0.27943  0.54357  0.97862  1.0000 0.119655977
H   H12       1.0  0.69837  0.59861  0.93917  1.0000 0.119655977
H   H13       1.0  0.80711  0.55785  0.89970  1.0000 0.119655977
H   H14       1.0  0.68202  0.39951  0.83382  1.0000 0.119655977
H   H15       1.0  0.57688  0.43069  0.88072  1.0000 0.1118382985
H   H16       1.0  0.90284  0.18359  0.85756  1.0000 0.119655977
H   H17       1.0  0.91116  0.11058  0.92573  1.0000 0.1118382985
H   H18       1.0  0.08516  0.24011  0.97378  1.0000 0.119655977
H   H19       1.0  0.07464  0.31484  0.90649  1.0000 0.1290840589
H   H20       1.0  0.89226  0.10039  0.00833  1.0000 0.1118382985
H   H21       1.0  0.02164  0.00865  0.11225  1.0000 0.1118382985
H   H22       1.0  0.12243  0.12317  0.00519  1.0000 0.119655977
H   H23       1.0  0.12664  0.04139  0.15149  1.0000 0.119655977
H   H24       1.0  0.24486  0.01298  0.18451  1.0000 0.119655977
H   H25       1.0  0.34030  0.02427  0.05463  1.0000 0.1290840589
H   H26       1.0  0.22057  0.04357  0.02138  1.0000 0.119655977
H   H27       1.0  0.80163  0.09861  0.06083  1.0000 0.119655977
H   H28       1.0  0.69289  0.05785  0.10030  1.0000 0.119655977
H   H29       1.0  0.81798  0.89951  0.16618  1.0000 0.119655977
H   H30       1.0  0.92312  0.93069  0.11928  1.0000 0.1118382985
H   H31       1.0  0.59716  0.68359  0.35756  1.0000 0.119655977
H   H32       1.0  0.58884  0.61058  0.42573  1.0000 0.1118382985
H   H33       1.0  0.41484  0.74011  0.47378  1.0000 0.119655977
H   H34       1.0  0.42536  0.81484  0.40649  1.0000 0.1290840589
H   H35       1.0  0.60774  0.60039  0.50833  1.0000 0.1118382985
H   H36       1.0  0.47836  0.50865  0.61225  1.0000 0.1118382985
H   H37       1.0  0.37757  0.62317  0.50519  1.0000 0.119655977
H   H38       1.0  0.37336  0.54139  0.65149  1.0000 0.119655977
H   H39       1.0  0.25514  0.51298  0.68451  1.0000 0.119655977
H   H40       1.0  0.15970  0.52427  0.55463  1.0000 0.1290840589
H   H41       1.0  0.27943  0.54357  0.52138  1.0000 0.119655977
H   H42       1.0  0.69837  0.59861  0.56083  1.0000 0.119655977
H   H43       1.0  0.80711  0.55785  0.60030  1.0000 0.119655977
H   H44       1.0  0.68202  0.39951  0.66618  1.0000 0.119655977
H   H45       1.0  0.57688  0.43069  0.61928  1.0000 0.1118382985
H   H46       1.0  0.90284  0.18359  0.64244  1.0000 0.119655977
H   H47       1.0  0.91116  0.11058  0.57427  1.0000 0.1118382985
H   H48       1.0  0.08516  0.24011  0.52622  1.0000 0.119655977
H   H49       1.0  0.07464  0.31484  0.59351  1.0000 0.1290840589
H   H50       1.0  0.89226  0.10039  0.49167  1.0000 0.1118382985
H   H51       1.0  0.02164  0.00865  0.38775  1.0000 0.1118382985
H   H52       1.0  0.12243  0.12317  0.49481  1.0000 0.119655977
H   H53       1.0  0.12664  0.04139  0.34851  1.0000 0.119655977
H   H54       1.0  0.24486  0.01298  0.31549  1.0000 0.119655977
H   H55       1.0  0.34030  0.02427  0.44537  1.0000 0.1290840589
H   H56       1.0  0.22057  0.04357  0.47862  1.0000 0.119655977
H   H57       1.0  0.80163  0.09861  0.43917  1.0000 0.119655977
H   H58       1.0  0.69289  0.05785  0.39970  1.0000 0.119655977
H   H59       1.0  0.81798  0.89951  0.33382  1.0000 0.119655977
H   H60       1.0  0.92312  0.93069  0.38072  1.0000 0.1118382985
H   H61       1.0  0.63487  0.68321  0.25000  1.0000 0.1118382985
H   H62       1.0  0.72533  0.58899  0.25000  1.0000 0.1290840589
H   H63       1.0  0.85516  0.61298  0.25000  1.0000 0.1569753676
H   H64       1.0  0.89246  0.74901  0.25000  1.0000 0.1382518053
H   H65       1.0  0.79742  0.83617  0.25000  1.0000 0.1118382985
H   H66       1.0  0.86513  0.18321  0.75000  1.0000 0.1118382985
H   H67       1.0  0.77467  0.08899  0.75000  1.0000 0.1290840589
H   H68       1.0  0.64484  0.11298  0.75000  1.0000 0.1569753676
H   H69       1.0  0.60754  0.24901  0.75000  1.0000 0.1382518053
H   H70       1.0  0.70258  0.33617  0.75000  1.0000 0.1118382985
H   H71       1.0  0.40284  0.31641  0.64244  1.0000 0.119655977
H   H72       1.0  0.41116  0.38942  0.57427  1.0000 0.1118382985
H   H73       1.0  0.58516  0.25989  0.52622  1.0000 0.119655977
H   H74       1.0  0.57464  0.18516  0.59351  1.0000 0.1290840589
H   H75       1.0  0.39226  0.39961  0.49167  1.0000 0.1118382985
H   H76       1.0  0.52164  0.49135  0.38775  1.0000 0.1118382985
H   H77       1.0  0.62243  0.37683  0.49481  1.0000 0.119655977
H   H78       1.0  0.62664  0.45861  0.34851  1.0000 0.119655977
H   H79       1.0  0.74486  0.48702  0.31549  1.0000 0.119655977
H   H80       1.0  0.84030  0.47573  0.44537  1.0000 0.1290840589
H   H81       1.0  0.72057  0.45643  0.47862  1.0000 0.119655977
H   H82       1.0  0.30163  0.40139  0.43917  1.0000 0.119655977
H   H83       1.0  0.19289  0.44215  0.39970  1.0000 0.119655977
H   H84       1.0  0.31798  0.60049  0.33382  1.0000 0.119655977
H   H85       1.0  0.42312  0.56931  0.38072  1.0000 0.1118382985
H   H86       1.0  0.09716  0.81641  0.35756  1.0000 0.119655977
H   H87       1.0  0.08884  0.88942  0.42573  1.0000 0.1118382985
H   H88       1.0  0.91484  0.75989  0.47378  1.0000 0.119655977
H   H89       1.0  0.92536  0.68516  0.40649  1.0000 0.1290840589
H   H90       1.0  0.10774  0.89961  0.50833  1.0000 0.1118382985
H   H91       1.0  0.97836  0.99135  0.61225  1.0000 0.1118382985
H   H92       1.0  0.87757  0.87683  0.50519  1.0000 0.119655977
H   H93       1.0  0.87336  0.95861  0.65149  1.0000 0.119655977
H   H94       1.0  0.75514  0.98702  0.68451  1.0000 0.119655977
H   H95       1.0  0.65970  0.97573  0.55463  1.0000 0.1290840589
H   H96       1.0  0.77943  0.95643  0.52138  1.0000 0.119655977
H   H97       1.0  0.19837  0.90139  0.56083  1.0000 0.119655977
H   H98       1.0  0.30711  0.94215  0.60030  1.0000 0.119655977
H   H99       1.0  0.18202  0.10049  0.66618  1.0000 0.119655977
H   H100      1.0  0.07688  0.06931  0.61928  1.0000 0.1118382985
H   H101      1.0  0.40284  0.31641  0.85756  1.0000 0.119655977
H   H102      1.0  0.41116  0.38942  0.92573  1.0000 0.1118382985
H   H103      1.0  0.58516  0.25989  0.97378  1.0000 0.119655977
H   H104      1.0  0.57464  0.18516  0.90649  1.0000 0.1290840589
H   H105      1.0  0.39226  0.39961  0.00833  1.0000 0.1118382985
H   H106      1.0  0.52164  0.49135  0.11225  1.0000 0.1118382985
H   H107      1.0  0.62243  0.37683  0.00519  1.0000 0.119655977
H   H108      1.0  0.62664  0.45861  0.15149  1.0000 0.119655977
H   H109      1.0  0.74486  0.48702  0.18451  1.0000 0.119655977
H   H110      1.0  0.84030  0.47573  0.05463  1.0000 0.1290840589
H   H111      1.0  0.72057  0.45643  0.02138  1.0000 0.119655977
H   H112      1.0  0.30163  0.40139  0.06083  1.0000 0.119655977
H   H113      1.0  0.19289  0.44215  0.10030  1.0000 0.1290840589
H   H114      1.0  0.31798  0.60049  0.16618  1.0000 0.119655977
H   H115      1.0  0.42312  0.56931  0.11928  1.0000 0.1118382985
H   H116      1.0  0.09716  0.81641  0.14244  1.0000 0.119655977
H   H117      1.0  0.08884  0.88942  0.07427  1.0000 0.1118382985
H   H118      1.0  0.91484  0.75989  0.02622  1.0000 0.119655977
H   H119      1.0  0.92536  0.68516  0.09351  1.0000 0.1290840589
H   H120      1.0  0.10774  0.89961  0.99167  1.0000 0.1118382985
H   H121      1.0  0.97836  0.99135  0.88775  1.0000 0.1118382985
H   H122      1.0  0.87757  0.87683  0.99481  1.0000 0.119655977
H   H123      1.0  0.87336  0.95861  0.84851  1.0000 0.119655977
H   H124      1.0  0.75514  0.98702  0.81549  1.0000 0.119655977
H   H125      1.0  0.65970  0.97573  0.94537  1.0000 0.1290840589
H   H126      1.0  0.77943  0.95643  0.97862  1.0000 0.119655977
H   H127      1.0  0.19837  0.90139  0.93917  1.0000 0.119655977
H   H128      1.0  0.30711  0.94215  0.89970  1.0000 0.119655977
H   H129      1.0  0.18202  0.10049  0.83382  1.0000 0.119655977
H   H130      1.0  0.07688  0.06931  0.88072  1.0000 0.1118382985
H   H131      1.0  0.36513  0.31679  0.75000  1.0000 0.1118382985
H   H132      1.0  0.27467  0.41101  0.75000  1.0000 0.1290840589
H   H133      1.0  0.14484  0.38702  0.75000  1.0000 0.1569753676
H   H134      1.0  0.10754  0.25099  0.75000  1.0000 0.1382518053
H   H135      1.0  0.20258  0.16383  0.75000  1.0000 0.1118382985
H   H136      1.0  0.13487  0.81679  0.25000  1.0000 0.1118382985
H   H137      1.0  0.22533  0.91101  0.25000  1.0000 0.1290840589
H   H138      1.0  0.35516  0.88702  0.25000  1.0000 0.1569753676
H   H139      1.0  0.39246  0.75099  0.25000  1.0000 0.1382518053
H   H140      1.0  0.29742  0.66383  0.25000  1.0000 0.1118382985
C   C1        1.0  0.52210  0.80810  0.16591  1.0000 0.5854051501
C   C2        1.0  0.51228  0.75650  0.12486  1.0000 -0.0211613396
C   C3        1.0  0.56023  0.69530  0.11874  1.0000 -0.0968125243
C   C4        1.0  0.55460  0.65130  0.07832  1.0000 -0.1589038026
C   C5        1.0  0.50030  0.66540  0.04378  1.0000 0.0755751557
C   C6        1.0  0.45190  0.72840  0.04989  1.0000 -0.148560068
C   C7        1.0  0.45810  0.77280  0.08980  1.0000 -0.089490621
C   C8        1.0  0.49420  0.61920  0.99972  1.0000 0.0879011856
C   C9        1.0  0.55900  0.59140  0.97782  1.0000 -0.1938842148
C   C10       1.0  0.55400  0.55030  0.93573  1.0000 0.0879011856
C   C11       1.0  0.48230  0.53660  0.91644  1.0000 -0.197056523
C   C12       1.0  0.41590  0.56290  0.93819  1.0000 0.0879011856
C   C13       1.0  0.42240  0.60450  0.97976  1.0000 -0.197056523
C   C14       1.0  0.33950  0.54630  0.91707  1.0000 0.0718460321
C   C15       1.0  0.33010  0.53710  0.86880  1.0000 -0.1589038026
C   C16       1.0  0.25900  0.52190  0.84880  1.0000 -0.0968125243
C   C17       1.0  0.19470  0.51960  0.87623  1.0000 0.0001565128
C   C18       1.0  0.20330  0.52740  0.92520  1.0000 -0.089490621
C   C19       1.0  0.27480  0.53960  0.94500  1.0000 -0.1589038026
C   C20       1.0  0.11730  0.50640  0.85400  1.0000 0.541909495
C   C21       1.0  0.62450  0.52350  0.91142  1.0000 0.0755751557
C   C22       1.0  0.69460  0.55750  0.91780  1.0000 -0.1589038026
C   C23       1.0  0.75960  0.53370  0.89410  1.0000 -0.089490621
C   C24       1.0  0.75560  0.47490  0.86232  1.0000 -0.0211613396
C   C25       1.0  0.68610  0.43900  0.85629  1.0000 -0.089490621
C   C26       1.0  0.62230  0.45980  0.88240  1.0000 -0.1589038026
C   C27       1.0  0.82400  0.45040  0.83384  1.0000 0.5969721466
C   C28       1.0  0.97790  0.30810  0.83409  1.0000 0.5854051501
C   C29       1.0  0.98772  0.25650  0.87514  1.0000 -0.0211613396
C   C30       1.0  0.93977  0.19530  0.88126  1.0000 -0.0968125243
C   C31       1.0  0.94540  0.15130  0.92168  1.0000 -0.1589038026
C   C32       1.0  0.99970  0.16540  0.95622  1.0000 0.0755751557
C   C33       1.0  0.04810  0.22840  0.95011  1.0000 -0.148560068
C   C34       1.0  0.04190  0.27280  0.91020  1.0000 -0.089490621
C   C35       1.0  0.00580  0.11920  0.00028  1.0000 0.0879011856
C   C36       1.0  0.94100  0.09140  0.02218  1.0000 -0.1938842148
C   C37       1.0  0.94600  0.05030  0.06427  1.0000 0.0879011856
C   C38       1.0  0.01770  0.03660  0.08356  1.0000 -0.197056523
C   C39       1.0  0.08410  0.06290  0.06181  1.0000 0.0879011856
C   C40       1.0  0.07760  0.10450  0.02024  1.0000 -0.197056523
C   C41       1.0  0.16050  0.04630  0.08293  1.0000 0.0718460321
C   C42       1.0  0.16990  0.03710  0.13120  1.0000 -0.1589038026
C   C43       1.0  0.24100  0.02190  0.15120  1.0000 -0.0968125243
C   C44       1.0  0.30530  0.01960  0.12377  1.0000 0.0001565128
C   C45       1.0  0.29670  0.02740  0.07480  1.0000 -0.089490621
C   C46       1.0  0.22520  0.03960  0.05500  1.0000 -0.1589038026
C   C47       1.0  0.38270  0.00640  0.14600  1.0000 0.541909495
C   C48       1.0  0.87550  0.02350  0.08858  1.0000 0.0755751557
C   C49       1.0  0.80540  0.05750  0.08220  1.0000 -0.1589038026
C   C50       1.0  0.74040  0.03370  0.10590  1.0000 -0.089490621
C   C51       1.0  0.74440  0.97490  0.13768  1.0000 -0.0211613396
C   C52       1.0  0.81390  0.93900  0.14371  1.0000 -0.089490621
C   C53       1.0  0.87770  0.95980  0.11760  1.0000 -0.1589038026
C   C54       1.0  0.67600  0.95040  0.16616  1.0000 0.5969721466
C   C55       1.0  0.52210  0.80810  0.33409  1.0000 0.5854051501
C   C56       1.0  0.51228  0.75650  0.37514  1.0000 -0.0211613396
C   C57       1.0  0.56023  0.69530  0.38126  1.0000 -0.0968125243
C   C58       1.0  0.55460  0.65130  0.42168  1.0000 -0.1589038026
C   C59       1.0  0.50030  0.66540  0.45622  1.0000 0.0755751557
C   C60       1.0  0.45190  0.72840  0.45011  1.0000 -0.148560068
C   C61       1.0  0.45810  0.77280  0.41020  1.0000 -0.089490621
C   C62       1.0  0.49420  0.61920  0.50028  1.0000 0.0879011856
C   C63       1.0  0.55900  0.59140  0.52218  1.0000 -0.1938842148
C   C64       1.0  0.55400  0.55030  0.56427  1.0000 0.0879011856
C   C65       1.0  0.48230  0.53660  0.58356  1.0000 -0.197056523
C   C66       1.0  0.41590  0.56290  0.56181  1.0000 0.0879011856
C   C67       1.0  0.42240  0.60450  0.52024  1.0000 -0.197056523
C   C68       1.0  0.33950  0.54630  0.58293  1.0000 0.0718460321
C   C69       1.0  0.33010  0.53710  0.63120  1.0000 -0.1589038026
C   C70       1.0  0.25900  0.52190  0.65120  1.0000 -0.0968125243
C   C71       1.0  0.19470  0.51960  0.62377  1.0000 0.0001565128
C   C72       1.0  0.20330  0.52740  0.57480  1.0000 -0.089490621
C   C73       1.0  0.27480  0.53960  0.55500  1.0000 -0.1589038026
C   C74       1.0  0.11730  0.50640  0.64600  1.0000 0.541909495
C   C75       1.0  0.62450  0.52350  0.58858  1.0000 0.0755751557
C   C76       1.0  0.69460  0.55750  0.58220  1.0000 -0.1589038026
C   C77       1.0  0.75960  0.53370  0.60590  1.0000 -0.089490621
C   C78       1.0  0.75560  0.47490  0.63768  1.0000 -0.0211613396
C   C79       1.0  0.68610  0.43900  0.64371  1.0000 -0.089490621
C   C80       1.0  0.62230  0.45980  0.61760  1.0000 -0.1589038026
C   C81       1.0  0.82400  0.45040  0.66616  1.0000 0.5969721466
C   C82       1.0  0.97790  0.30810  0.66591  1.0000 0.5854051501
C   C83       1.0  0.98772  0.25650  0.62486  1.0000 -0.0211613396
C   C84       1.0  0.93977  0.19530  0.61874  1.0000 -0.0968125243
C   C85       1.0  0.94540  0.15130  0.57832  1.0000 -0.1589038026
C   C86       1.0  0.99970  0.16540  0.54378  1.0000 0.0755751557
C   C87       1.0  0.04810  0.22840  0.54989  1.0000 -0.148560068
C   C88       1.0  0.04190  0.27280  0.58980  1.0000 -0.089490621
C   C89       1.0  0.00580  0.11920  0.49972  1.0000 0.0879011856
C   C90       1.0  0.94100  0.09140  0.47782  1.0000 -0.1938842148
C   C91       1.0  0.94600  0.05030  0.43573  1.0000 0.0879011856
C   C92       1.0  0.01770  0.03660  0.41644  1.0000 -0.197056523
C   C93       1.0  0.08410  0.06290  0.43819  1.0000 0.0879011856
C   C94       1.0  0.07760  0.10450  0.47976  1.0000 -0.197056523
C   C95       1.0  0.16050  0.04630  0.41707  1.0000 0.0718460321
C   C96       1.0  0.16990  0.03710  0.36880  1.0000 -0.1589038026
C   C97       1.0  0.24100  0.02190  0.34880  1.0000 -0.0968125243
C   C98       1.0  0.30530  0.01960  0.37623  1.0000 0.0001565128
C   C99       1.0  0.29670  0.02740  0.42520  1.0000 -0.089490621
C   C100      1.0  0.22520  0.03960  0.44500  1.0000 -0.1589038026
C   C101      1.0  0.38270  0.00640  0.35400  1.0000 0.541909495
C   C102      1.0  0.87550  0.02350  0.41142  1.0000 0.0755751557
C   C103      1.0  0.80540  0.05750  0.41780  1.0000 -0.1589038026
C   C104      1.0  0.74040  0.03370  0.39410  1.0000 -0.089490621
C   C105      1.0  0.74440  0.97490  0.36232  1.0000 -0.0211613396
C   C106      1.0  0.81390  0.93900  0.35629  1.0000 -0.089490621
C   C107      1.0  0.87770  0.95980  0.38240  1.0000 -0.1589038026
C   C108      1.0  0.67600  0.95040  0.33384  1.0000 0.5969721466
C   C109      1.0  0.68770  0.69580  0.25000  1.0000 0.0879011856
C   C110      1.0  0.74250  0.63940  0.25000  1.0000 -0.148560068
C   C111      1.0  0.81840  0.65210  0.25000  1.0000 0.0053573615
C   C112      1.0  0.84030  0.73400  0.25000  1.0000 -0.1163297504
C   C113      1.0  0.78380  0.78470  0.25000  1.0000 0.0629171073
C   C114      1.0  0.81230  0.19580  0.75000  1.0000 0.0879011856
C   C115      1.0  0.75750  0.13940  0.75000  1.0000 -0.148560068
C   C116      1.0  0.68160  0.15210  0.75000  1.0000 0.0053573615
C   C117      1.0  0.65970  0.23400  0.75000  1.0000 -0.1163297504
C   C118      1.0  0.71620  0.28470  0.75000  1.0000 0.0629171073
C   C119      1.0  0.47790  0.19190  0.66591  1.0000 0.5854051501
C   C120      1.0  0.48772  0.24350  0.62486  1.0000 -0.0211613396
C   C121      1.0  0.43977  0.30470  0.61874  1.0000 -0.0968125243
C   C122      1.0  0.44540  0.34870  0.57832  1.0000 -0.1589038026
C   C123      1.0  0.49970  0.33460  0.54378  1.0000 0.0755751557
C   C124      1.0  0.54810  0.27160  0.54989  1.0000 -0.148560068
C   C125      1.0  0.54190  0.22720  0.58980  1.0000 -0.089490621
C   C126      1.0  0.50580  0.38080  0.49972  1.0000 0.0879011856
C   C127      1.0  0.44100  0.40860  0.47782  1.0000 -0.1938842148
C   C128      1.0  0.44600  0.44970  0.43573  1.0000 0.0879011856
C   C129      1.0  0.51770  0.46340  0.41644  1.0000 -0.197056523
C   C130      1.0  0.58410  0.43710  0.43819  1.0000 0.0879011856
C   C131      1.0  0.57760  0.39550  0.47976  1.0000 -0.197056523
C   C132      1.0  0.66050  0.45370  0.41707  1.0000 0.0718460321
C   C133      1.0  0.66990  0.46290  0.36880  1.0000 -0.1589038026
C   C134      1.0  0.74100  0.47810  0.34880  1.0000 -0.0968125243
C   C135      1.0  0.80530  0.48040  0.37623  1.0000 0.0001565128
C   C136      1.0  0.79670  0.47260  0.42520  1.0000 -0.089490621
C   C137      1.0  0.72520  0.46040  0.44500  1.0000 -0.1589038026
C   C138      1.0  0.88270  0.49360  0.35400  1.0000 0.541909495
C   C139      1.0  0.37550  0.47650  0.41142  1.0000 0.0755751557
C   C140      1.0  0.30540  0.44250  0.41780  1.0000 -0.1589038026
C   C141      1.0  0.24040  0.46630  0.39410  1.0000 -0.089490621
C   C142      1.0  0.24440  0.52510  0.36232  1.0000 -0.0211613396
C   C143      1.0  0.31390  0.56100  0.35629  1.0000 -0.089490621
C   C144      1.0  0.37770  0.54020  0.38240  1.0000 -0.1589038026
C   C145      1.0  0.17600  0.54960  0.33384  1.0000 0.5969721466
C   C146      1.0  0.02210  0.69190  0.33409  1.0000 0.5854051501
C   C147      1.0  0.01228  0.74350  0.37514  1.0000 -0.0211613396
C   C148      1.0  0.06023  0.80470  0.38126  1.0000 -0.0968125243
C   C149      1.0  0.05460  0.84870  0.42168  1.0000 -0.1589038026
C   C150      1.0  0.00030  0.83460  0.45622  1.0000 0.0755751557
C   C151      1.0  0.95190  0.77160  0.45011  1.0000 -0.148560068
C   C152      1.0  0.95810  0.72720  0.41020  1.0000 -0.089490621
C   C153      1.0  0.99420  0.88080  0.50028  1.0000 0.0879011856
C   C154      1.0  0.05900  0.90860  0.52218  1.0000 -0.1938842148
C   C155      1.0  0.05400  0.94970  0.56427  1.0000 0.0879011856
C   C156      1.0  0.98230  0.96340  0.58356  1.0000 -0.197056523
C   C157      1.0  0.91590  0.93710  0.56181  1.0000 0.0879011856
C   C158      1.0  0.92240  0.89550  0.52024  1.0000 -0.197056523
C   C159      1.0  0.83950  0.95370  0.58293  1.0000 0.0718460321
C   C160      1.0  0.83010  0.96290  0.63120  1.0000 -0.1589038026
C   C161      1.0  0.75900  0.97810  0.65120  1.0000 -0.0968125243
C   C162      1.0  0.69470  0.98040  0.62377  1.0000 0.0001565128
C   C163      1.0  0.70330  0.97260  0.57480  1.0000 -0.089490621
C   C164      1.0  0.77480  0.96040  0.55500  1.0000 -0.1589038026
C   C165      1.0  0.61730  0.99360  0.64600  1.0000 0.541909495
C   C166      1.0  0.12450  0.97650  0.58858  1.0000 0.0755751557
C   C167      1.0  0.19460  0.94250  0.58220  1.0000 -0.1589038026
C   C168      1.0  0.25960  0.96630  0.60590  1.0000 -0.089490621
C   C169      1.0  0.25560  0.02510  0.63768  1.0000 -0.0211613396
C   C170      1.0  0.18610  0.06100  0.64371  1.0000 -0.089490621
C   C171      1.0  0.12230  0.04020  0.61760  1.0000 -0.1589038026
C   C172      1.0  0.32400  0.04960  0.66616  1.0000 0.5969721466
C   C173      1.0  0.47790  0.19190  0.83409  1.0000 0.5854051501
C   C174      1.0  0.48772  0.24350  0.87514  1.0000 -0.0211613396
C   C175      1.0  0.43977  0.30470  0.88126  1.0000 -0.0968125243
C   C176      1.0  0.44540  0.34870  0.92168  1.0000 -0.1589038026
C   C177      1.0  0.49970  0.33460  0.95622  1.0000 0.0755751557
C   C178      1.0  0.54810  0.27160  0.95011  1.0000 -0.148560068
C   C179      1.0  0.54190  0.22720  0.91020  1.0000 -0.089490621
C   C180      1.0  0.50580  0.38080  0.00028  1.0000 0.0879011856
C   C181      1.0  0.44100  0.40860  0.02218  1.0000 -0.1938842148
C   C182      1.0  0.44600  0.44970  0.06427  1.0000 0.0879011856
C   C183      1.0  0.51770  0.46340  0.08356  1.0000 -0.197056523
C   C184      1.0  0.58410  0.43710  0.06181  1.0000 0.0879011856
C   C185      1.0  0.57760  0.39550  0.02024  1.0000 -0.197056523
C   C186      1.0  0.66050  0.45370  0.08293  1.0000 0.0718460321
C   C187      1.0  0.66990  0.46290  0.13120  1.0000 -0.1589038026
C   C188      1.0  0.74100  0.47810  0.15120  1.0000 -0.0968125243
C   C189      1.0  0.80530  0.48040  0.12377  1.0000 0.0001565128
C   C190      1.0  0.79670  0.47260  0.07480  1.0000 -0.089490621
C   C191      1.0  0.72520  0.46040  0.05500  1.0000 -0.1589038026
C   C192      1.0  0.88270  0.49360  0.14600  1.0000 0.541909495
C   C193      1.0  0.37550  0.47650  0.08858  1.0000 0.0755751557
C   C194      1.0  0.30540  0.44250  0.08220  1.0000 -0.1589038026
C   C195      1.0  0.24040  0.46630  0.10590  1.0000 -0.089490621
C   C196      1.0  0.24440  0.52510  0.13768  1.0000 -0.0211613396
C   C197      1.0  0.31390  0.56100  0.14371  1.0000 -0.089490621
C   C198      1.0  0.37770  0.54020  0.11760  1.0000 -0.1589038026
C   C199      1.0  0.17600  0.54960  0.16616  1.0000 0.5969721466
C   C200      1.0  0.02210  0.69190  0.16591  1.0000 0.5854051501
C   C201      1.0  0.01228  0.74350  0.12486  1.0000 -0.0211613396
C   C202      1.0  0.06023  0.80470  0.11874  1.0000 -0.0968125243
C   C203      1.0  0.05460  0.84870  0.07832  1.0000 -0.1589038026
C   C204      1.0  0.00030  0.83460  0.04378  1.0000 0.0755751557
C   C205      1.0  0.95190  0.77160  0.04989  1.0000 -0.148560068
C   C206      1.0  0.95810  0.72720  0.08980  1.0000 -0.089490621
C   C207      1.0  0.99420  0.88080  0.99972  1.0000 0.0879011856
C   C208      1.0  0.05900  0.90860  0.97782  1.0000 -0.1938842148
C   C209      1.0  0.05400  0.94970  0.93573  1.0000 0.0879011856
C   C210      1.0  0.98230  0.96340  0.91644  1.0000 -0.197056523
C   C211      1.0  0.91590  0.93710  0.93819  1.0000 0.0879011856
C   C212      1.0  0.92240  0.89550  0.97976  1.0000 -0.197056523
C   C213      1.0  0.83950  0.95370  0.91707  1.0000 0.0718460321
C   C214      1.0  0.83010  0.96290  0.86880  1.0000 -0.1589038026
C   C215      1.0  0.75900  0.97810  0.84880  1.0000 -0.0968125243
C   C216      1.0  0.69470  0.98040  0.87623  1.0000 0.0001565128
C   C217      1.0  0.70330  0.97260  0.92520  1.0000 -0.089490621
C   C218      1.0  0.77480  0.96040  0.94500  1.0000 -0.1589038026
C   C219      1.0  0.61730  0.99360  0.85400  1.0000 0.541909495
C   C220      1.0  0.12450  0.97650  0.91142  1.0000 0.0755751557
C   C221      1.0  0.19460  0.94250  0.91780  1.0000 -0.1589038026
C   C222      1.0  0.25960  0.96630  0.89410  1.0000 -0.089490621
C   C223      1.0  0.25560  0.02510  0.86232  1.0000 -0.0211613396
C   C224      1.0  0.18610  0.06100  0.85629  1.0000 -0.089490621
C   C225      1.0  0.12230  0.04020  0.88240  1.0000 -0.1589038026
C   C226      1.0  0.32400  0.04960  0.83384  1.0000 0.5969721466
C   C227      1.0  0.31230  0.30420  0.75000  1.0000 0.0879011856
C   C228      1.0  0.25750  0.36060  0.75000  1.0000 -0.148560068
C   C229      1.0  0.18160  0.34790  0.75000  1.0000 0.0053573615
C   C230      1.0  0.15970  0.26600  0.75000  1.0000 -0.1163297504
C   C231      1.0  0.21620  0.21530  0.75000  1.0000 0.0629171073
C   C232      1.0  0.18770  0.80420  0.25000  1.0000 0.0879011856
C   C233      1.0  0.24250  0.86060  0.25000  1.0000 -0.148560068
C   C234      1.0  0.31840  0.84790  0.25000  1.0000 0.0053573615
C   C235      1.0  0.34030  0.76600  0.25000  1.0000 -0.1163297504
C   C236      1.0  0.28380  0.71530  0.25000  1.0000 0.0629171073
N   N1        1.0  0.70890  0.76700  0.25000  1.0000 -0.2134494692
N   N2        1.0  0.79110  0.26700  0.75000  1.0000 -0.2134494692
N   N3        1.0  0.29110  0.23300  0.75000  1.0000 -0.2134494692
N   N4        1.0  0.20890  0.73300  0.25000  1.0000 -0.2134494692
O   O1        1.0  0.56899  0.78983  0.19773  1.0000 -0.5402611405
O   O2        1.0  0.48070  0.86480  0.16709  1.0000 -0.5115339332
O   O3        1.0  0.81277  0.40620  0.80146  1.0000 -0.5196896255
O   O4        1.0  0.88820  0.47360  0.84804  1.0000 -0.5483063296
O   O5        1.0  0.11251  0.49440  0.81058  1.0000 -0.5115339332
O   O6        1.0  0.05766  0.51140  0.87907  1.0000 -0.5402611405
O   O7        1.0  0.93101  0.28983  0.80227  1.0000 -0.5402611405
O   O8        1.0  0.01930  0.36480  0.83291  1.0000 -0.5115339332
O   O9        1.0  0.68723  0.90620  0.19854  1.0000 -0.5196896255
O   O10       1.0  0.61180  0.97360  0.15196  1.0000 -0.5483063296
O   O11       1.0  0.38749  0.99440  0.18942  1.0000 -0.5115339332
O   O12       1.0  0.44234  0.01140  0.12093  1.0000 -0.5402611405
O   O13       1.0  0.56899  0.78983  0.30227  1.0000 -0.5402611405
O   O14       1.0  0.48070  0.86480  0.33291  1.0000 -0.5115339332
O   O15       1.0  0.81277  0.40620  0.69854  1.0000 -0.5196896255
O   O16       1.0  0.88820  0.47360  0.65196  1.0000 -0.5483063296
O   O17       1.0  0.11251  0.49440  0.68942  1.0000 -0.5115339332
O   O18       1.0  0.05766  0.51140  0.62093  1.0000 -0.5402611405
O   O19       1.0  0.93101  0.28983  0.69773  1.0000 -0.5402611405
O   O20       1.0  0.01930  0.36480  0.66709  1.0000 -0.5115339332
O   O21       1.0  0.68723  0.90620  0.30146  1.0000 -0.5196896255
O   O22       1.0  0.61180  0.97360  0.34804  1.0000 -0.5483063296
O   O23       1.0  0.38749  0.99440  0.31058  1.0000 -0.5115339332
O   O24       1.0  0.44234  0.01140  0.37907  1.0000 -0.5402611405
O   O25       1.0  0.53660  0.93750  0.25000  1.0000 -0.8913398594
O   O26       1.0  0.96340  0.43750  0.75000  1.0000 -0.8913398594
O   O27       1.0  0.43101  0.21017  0.69773  1.0000 -0.5402611405
O   O28       1.0  0.51930  0.13520  0.66709  1.0000 -0.5115339332
O   O29       1.0  0.18723  0.59380  0.30146  1.0000 -0.5196896255
O   O30       1.0  0.11180  0.52640  0.34804  1.0000 -0.5483063296
O   O31       1.0  0.88749  0.50560  0.31058  1.0000 -0.5115339332
O   O32       1.0  0.94234  0.48860  0.37907  1.0000 -0.5402611405
O   O33       1.0  0.06899  0.71017  0.30227  1.0000 -0.5402611405
O   O34       1.0  0.98070  0.63520  0.33291  1.0000 -0.5115339332
O   O35       1.0  0.31277  0.09380  0.69854  1.0000 -0.5196896255
O   O36       1.0  0.38820  0.02640  0.65196  1.0000 -0.5483063296
O   O37       1.0  0.61251  0.00560  0.68942  1.0000 -0.5115339332
O   O38       1.0  0.55766  0.98860  0.62093  1.0000 -0.5402611405
O   O39       1.0  0.43101  0.21017  0.80227  1.0000 -0.5402611405
O   O40       1.0  0.51930  0.13520  0.83291  1.0000 -0.5115339332
O   O41       1.0  0.18723  0.59380  0.19854  1.0000 -0.5196896255
O   O42       1.0  0.11180  0.52640  0.15196  1.0000 -0.5483063296
O   O43       1.0  0.88749  0.50560  0.18942  1.0000 -0.5115339332
O   O44       1.0  0.94234  0.48860  0.12093  1.0000 -0.5402611405
O   O45       1.0  0.06899  0.71017  0.19773  1.0000 -0.5402611405
O   O46       1.0  0.98070  0.63520  0.16709  1.0000 -0.5115339332
O   O47       1.0  0.31277  0.09380  0.80146  1.0000 -0.5196896255
O   O48       1.0  0.38820  0.02640  0.84804  1.0000 -0.5483063296
O   O49       1.0  0.61251  0.00560  0.81058  1.0000 -0.5115339332
O   O50       1.0  0.55766  0.98860  0.87907  1.0000 -0.5402611405
O   O51       1.0  0.46340  0.06250  0.75000  1.0000 -0.8913398594
O   O52       1.0  0.03660  0.56250  0.25000  1.0000 -0.8913398594
