# DDEC6 charges by PACMAN v1.1 (https://github.com/mtap-research/PACMAN-charge/)
data_2021[ZnIn][nan]3[ASR]1
_chemical_formula_sum              "Zn6 In6 H66 C180 N6 O78"
_cell_length_a       28.0517
_cell_length_b       28.0517
_cell_length_c       28.0517
_cell_angle_alpha    117.553
_cell_angle_beta     117.553
_cell_angle_gamma    117.553

_symmetry_space_group_name_H-M    "P 1"
_symmetry_Int_Tables_number       1

loop_
  _symmetry_equiv_pos_as_xyz
  'x, y, z'

loop_
  _atom_site_type_symbol
  _atom_site_label
  _atom_site_symmetry_multiplicity
  _atom_site_fract_x
  _atom_site_fract_y
  _atom_site_fract_z
  _atom_site_occupancy
  _atom_site_charge
Zn  Zn1       1.0  0.59732  0.94679  0.94679  1.0000 0.8957893484
Zn  Zn2       1.0  0.94679  0.94679  0.59732  1.0000 0.8957893484
Zn  Zn3       1.0  0.94679  0.59732  0.94679  1.0000 0.8957893484
Zn  Zn4       1.0  0.05321  0.40268  0.05321  1.0000 0.8957893484
Zn  Zn5       1.0  0.05321  0.05321  0.40268  1.0000 0.8957893484
Zn  Zn6       1.0  0.40268  0.05321  0.05321  1.0000 0.8957893484
In  In1       1.0  0.65153  0.36142  0.65153  1.0000 1.4667284323
In  In2       1.0  0.36142  0.65153  0.65153  1.0000 1.4667284323
In  In3       1.0  0.65153  0.65153  0.36142  1.0000 1.4667284323
In  In4       1.0  0.63858  0.34847  0.34847  1.0000 1.4667284323
In  In5       1.0  0.34847  0.63858  0.34847  1.0000 1.4667284323
In  In6       1.0  0.34847  0.34847  0.63858  1.0000 1.4667284323
H   H1        1.0  0.65366  0.08716  0.73715  1.0000 0.1430319481
H   H2        1.0  0.45867  0.77314  0.62874  1.0000 0.1430319481
H   H3        1.0  0.71292  0.08447  0.92192  1.0000 0.1219490651
H   H4        1.0  0.74288  0.12321  0.87312  1.0000 0.1290155815
H   H5        1.0  0.08716  0.73715  0.65366  1.0000 0.1430319481
H   H6        1.0  0.77314  0.62874  0.45867  1.0000 0.1430319481
H   H7        1.0  0.08447  0.92192  0.71292  1.0000 0.1219490651
H   H8        1.0  0.12321  0.87312  0.74288  1.0000 0.1290155815
H   H9        1.0  0.73715  0.65366  0.08716  1.0000 0.1430319481
H   H10       1.0  0.62874  0.45867  0.77314  1.0000 0.1430319481
H   H11       1.0  0.92192  0.71292  0.08447  1.0000 0.1219490651
H   H12       1.0  0.87312  0.74288  0.12321  1.0000 0.1290155815
H   H13       1.0  0.91284  0.34634  0.26285  1.0000 0.1430319481
H   H14       1.0  0.22686  0.54133  0.37126  1.0000 0.1430319481
H   H15       1.0  0.91553  0.28708  0.07808  1.0000 0.1219490651
H   H16       1.0  0.87679  0.25712  0.12688  1.0000 0.1290155815
H   H17       1.0  0.26285  0.91284  0.34634  1.0000 0.1430319481
H   H18       1.0  0.37126  0.22686  0.54133  1.0000 0.1430319481
H   H19       1.0  0.07808  0.91553  0.28708  1.0000 0.1219490651
H   H20       1.0  0.12688  0.87679  0.25712  1.0000 0.1290155815
H   H21       1.0  0.34634  0.26285  0.91284  1.0000 0.1430319481
H   H22       1.0  0.54133  0.37126  0.22686  1.0000 0.1430319481
H   H23       1.0  0.28708  0.07808  0.91553  1.0000 0.1219490651
H   H24       1.0  0.25712  0.12688  0.87679  1.0000 0.1290155815
H   H25       1.0  0.34634  0.91284  0.26285  1.0000 0.1430319481
H   H26       1.0  0.54133  0.22686  0.37126  1.0000 0.1430319481
H   H27       1.0  0.28708  0.91553  0.07808  1.0000 0.1219490651
H   H28       1.0  0.25712  0.87679  0.12688  1.0000 0.1290155815
H   H29       1.0  0.91284  0.26285  0.34634  1.0000 0.1430319481
H   H30       1.0  0.22686  0.37126  0.54133  1.0000 0.1430319481
H   H31       1.0  0.91553  0.07808  0.28708  1.0000 0.1219490651
H   H32       1.0  0.87679  0.12688  0.25712  1.0000 0.1290155815
H   H33       1.0  0.26285  0.34634  0.91284  1.0000 0.1430319481
H   H34       1.0  0.37126  0.54133  0.22686  1.0000 0.1430319481
H   H35       1.0  0.07808  0.28708  0.91553  1.0000 0.1219490651
H   H36       1.0  0.12688  0.25712  0.87679  1.0000 0.1290155815
H   H37       1.0  0.08716  0.65366  0.73715  1.0000 0.1430319481
H   H38       1.0  0.77314  0.45867  0.62874  1.0000 0.1430319481
H   H39       1.0  0.08447  0.71292  0.92192  1.0000 0.1219490651
H   H40       1.0  0.12321  0.74288  0.87312  1.0000 0.1290155815
H   H41       1.0  0.73715  0.08716  0.65366  1.0000 0.1430319481
H   H42       1.0  0.62874  0.77314  0.45867  1.0000 0.1430319481
H   H43       1.0  0.92192  0.08447  0.71292  1.0000 0.1219490651
H   H44       1.0  0.87312  0.12321  0.74288  1.0000 0.1290155815
H   H45       1.0  0.65366  0.73715  0.08716  1.0000 0.1430319481
H   H46       1.0  0.45867  0.62874  0.77314  1.0000 0.1430319481
H   H47       1.0  0.71292  0.92192  0.08447  1.0000 0.1219490651
H   H48       1.0  0.74288  0.87312  0.12321  1.0000 0.1290155815
H   H49       1.0  0.60153  0.16131  0.60153  1.0000 0.1430319481
H   H50       1.0  0.89269  0.40537  0.89269  1.0000 0.1480687543
H   H51       1.0  0.57581  0.05507  0.57582  1.0000 0.1290155815
H   H52       1.0  0.16131  0.60153  0.60153  1.0000 0.1430319481
H   H53       1.0  0.40537  0.89269  0.89269  1.0000 0.1480687543
H   H54       1.0  0.05507  0.57581  0.57581  1.0000 0.1290155815
H   H55       1.0  0.60153  0.60153  0.16131  1.0000 0.1430319481
H   H56       1.0  0.89269  0.89269  0.40537  1.0000 0.1480687543
H   H57       1.0  0.57581  0.57581  0.05507  1.0000 0.1290155815
H   H58       1.0  0.83869  0.39847  0.39847  1.0000 0.1430319481
H   H59       1.0  0.59463  0.10731  0.10731  1.0000 0.1480687543
H   H60       1.0  0.94493  0.42418  0.42418  1.0000 0.1290155815
H   H61       1.0  0.39847  0.83869  0.39847  1.0000 0.1430319481
H   H62       1.0  0.10731  0.59463  0.10731  1.0000 0.1480687543
H   H63       1.0  0.42418  0.94493  0.42418  1.0000 0.1290155815
H   H64       1.0  0.39847  0.39847  0.83869  1.0000 0.1430319481
H   H65       1.0  0.10731  0.10731  0.59463  1.0000 0.1480687543
H   H66       1.0  0.42419  0.42419  0.94493  1.0000 0.1290155815
C   C1        1.0  0.66613  0.06593  0.71544  1.0000 -0.1905199417
C   C2        1.0  0.51631  0.84447  0.67842  1.0000 -0.0910672334
C   C3        1.0  0.65036  0.00343  0.69951  1.0000 0.2072655778
C   C4        1.0  0.58100  0.92454  0.77936  1.0000 -0.0208016779
C   C5        1.0  0.53539  0.86803  0.65048  1.0000 -0.0208016779
C   C6        1.0  0.55841  0.89776  0.80803  1.0000 0.6124974324
C   C7        1.0  0.66690  0.02897  0.85213  1.0000 -0.0910672334
C   C8        1.0  0.62076  0.97291  0.72303  1.0000 0.0528200793
C   C9        1.0  0.46089  0.77922  0.53869  1.0000 0.5438544167
C   C10       1.0  0.68510  0.05190  0.82330  1.0000 -0.1520167274
C   C11       1.0  0.91520  0.32010  0.88180  1.0000 0.4001344575
C   C12       1.0  0.06593  0.71544  0.66613  1.0000 -0.1905199417
C   C13       1.0  0.84447  0.67842  0.51631  1.0000 -0.0910672334
C   C14       1.0  0.00343  0.69951  0.65036  1.0000 0.2072655778
C   C15       1.0  0.92454  0.77936  0.58100  1.0000 -0.0208016779
C   C16       1.0  0.86803  0.65048  0.53539  1.0000 -0.0208016779
C   C17       1.0  0.89776  0.80803  0.55841  1.0000 0.6124974324
C   C18       1.0  0.02897  0.85213  0.66690  1.0000 -0.0910672334
C   C19       1.0  0.97291  0.72303  0.62076  1.0000 0.0528200793
C   C20       1.0  0.77922  0.53869  0.46089  1.0000 0.545175059
C   C21       1.0  0.05190  0.82330  0.68510  1.0000 -0.1520167274
C   C22       1.0  0.32010  0.88180  0.91520  1.0000 0.4001344575
C   C23       1.0  0.71544  0.66613  0.06593  1.0000 -0.1905199417
C   C24       1.0  0.67842  0.51631  0.84447  1.0000 -0.0910672334
C   C25       1.0  0.69951  0.65036  0.00343  1.0000 0.2072655778
C   C26       1.0  0.77936  0.58100  0.92454  1.0000 -0.0208016779
C   C27       1.0  0.65048  0.53539  0.86803  1.0000 -0.0208016779
C   C28       1.0  0.80803  0.55841  0.89776  1.0000 0.6124974324
C   C29       1.0  0.85213  0.66690  0.02897  1.0000 -0.0910672334
C   C30       1.0  0.72303  0.62076  0.97291  1.0000 0.0528200793
C   C31       1.0  0.53869  0.46089  0.77922  1.0000 0.5438544167
C   C32       1.0  0.82330  0.68510  0.05190  1.0000 -0.1520167274
C   C33       1.0  0.88180  0.91520  0.32010  1.0000 0.4001344575
C   C34       1.0  0.93407  0.33387  0.28456  1.0000 -0.1905199417
C   C35       1.0  0.15553  0.48369  0.32158  1.0000 -0.0910672334
C   C36       1.0  0.99657  0.34964  0.30049  1.0000 0.2072655778
C   C37       1.0  0.07546  0.41900  0.22064  1.0000 -0.0208016779
C   C38       1.0  0.13197  0.46461  0.34952  1.0000 -0.0208016779
C   C39       1.0  0.10224  0.44159  0.19197  1.0000 0.6124974324
C   C40       1.0  0.97103  0.33310  0.14787  1.0000 -0.0910672334
C   C41       1.0  0.02709  0.37924  0.27697  1.0000 0.0528200793
C   C42       1.0  0.22078  0.53911  0.46131  1.0000 0.5438544167
C   C43       1.0  0.94810  0.31490  0.17670  1.0000 -0.1520167274
C   C44       1.0  0.67990  0.08480  0.11820  1.0000 0.4001344575
C   C45       1.0  0.28456  0.93407  0.33387  1.0000 -0.1905199417
C   C46       1.0  0.32158  0.15553  0.48369  1.0000 -0.0910672334
C   C47       1.0  0.30049  0.99657  0.34964  1.0000 0.2072655778
C   C48       1.0  0.22064  0.07546  0.41900  1.0000 -0.0208016779
C   C49       1.0  0.34952  0.13197  0.46461  1.0000 -0.0208016779
C   C50       1.0  0.19197  0.10224  0.44159  1.0000 0.6124974324
C   C51       1.0  0.14787  0.97103  0.33310  1.0000 -0.0910672334
C   C52       1.0  0.27697  0.02709  0.37924  1.0000 0.0528200793
C   C53       1.0  0.46131  0.22078  0.53911  1.0000 0.5438544167
C   C54       1.0  0.17670  0.94810  0.31490  1.0000 -0.1520167274
C   C55       1.0  0.11820  0.67990  0.08480  1.0000 0.4001344575
C   C56       1.0  0.33387  0.28456  0.93407  1.0000 -0.1905199417
C   C57       1.0  0.48369  0.32158  0.15553  1.0000 -0.0910672334
C   C58       1.0  0.34964  0.30049  0.99657  1.0000 0.2072655778
C   C59       1.0  0.41900  0.22064  0.07546  1.0000 -0.0208016779
C   C60       1.0  0.46461  0.34952  0.13197  1.0000 -0.0208016779
C   C61       1.0  0.44159  0.19197  0.10224  1.0000 0.6124974324
C   C62       1.0  0.33310  0.14787  0.97103  1.0000 -0.0910672334
C   C63       1.0  0.37924  0.27697  0.02709  1.0000 0.0528200793
C   C64       1.0  0.53911  0.46131  0.22078  1.0000 0.5438544167
C   C65       1.0  0.31490  0.17670  0.94810  1.0000 -0.1520167274
C   C66       1.0  0.08480  0.11820  0.67990  1.0000 0.4001344575
C   C67       1.0  0.33387  0.93407  0.28456  1.0000 -0.1905199417
C   C68       1.0  0.48369  0.15553  0.32158  1.0000 -0.0910672334
C   C69       1.0  0.34964  0.99657  0.30049  1.0000 0.2072655778
C   C70       1.0  0.41900  0.07546  0.22064  1.0000 -0.0208016779
C   C71       1.0  0.46461  0.13197  0.34952  1.0000 -0.0208016779
C   C72       1.0  0.44159  0.10224  0.19197  1.0000 0.6124974324
C   C73       1.0  0.33310  0.97103  0.14787  1.0000 -0.0910672334
C   C74       1.0  0.37924  0.02709  0.27697  1.0000 0.0528200793
C   C75       1.0  0.53911  0.22078  0.46131  1.0000 0.5438544167
C   C76       1.0  0.31490  0.94810  0.17670  1.0000 -0.1520167274
C   C77       1.0  0.08480  0.67990  0.11820  1.0000 0.4001344575
C   C78       1.0  0.93407  0.28456  0.33387  1.0000 -0.1905199417
C   C79       1.0  0.15553  0.32158  0.48369  1.0000 -0.0910672334
C   C80       1.0  0.99657  0.30049  0.34964  1.0000 0.2072655778
C   C81       1.0  0.07546  0.22064  0.41900  1.0000 -0.0208016779
C   C82       1.0  0.13197  0.34952  0.46461  1.0000 -0.0208016779
C   C83       1.0  0.10224  0.19197  0.44159  1.0000 0.6124974324
C   C84       1.0  0.97103  0.14787  0.33310  1.0000 -0.0910672334
C   C85       1.0  0.02709  0.27697  0.37924  1.0000 0.0528200793
C   C86       1.0  0.22078  0.46131  0.53911  1.0000 0.5438544167
C   C87       1.0  0.94810  0.17670  0.31490  1.0000 -0.1520167274
C   C88       1.0  0.67990  0.11820  0.08480  1.0000 0.4001344575
C   C89       1.0  0.28456  0.33387  0.93407  1.0000 -0.1905199417
C   C90       1.0  0.32158  0.48369  0.15553  1.0000 -0.0910672334
C   C91       1.0  0.30049  0.34964  0.99657  1.0000 0.2072655778
C   C92       1.0  0.22064  0.41900  0.07546  1.0000 -0.0208016779
C   C93       1.0  0.34952  0.46461  0.13197  1.0000 -0.0208016779
C   C94       1.0  0.19197  0.44159  0.10224  1.0000 0.6124974324
C   C95       1.0  0.14787  0.33310  0.97103  1.0000 -0.0910672334
C   C96       1.0  0.27697  0.37924  0.02709  1.0000 0.0528200793
C   C97       1.0  0.46131  0.53911  0.22078  1.0000 0.545175059
C   C98       1.0  0.17670  0.31490  0.94810  1.0000 -0.1520167274
C   C99       1.0  0.11820  0.08480  0.67990  1.0000 0.4001344575
C   C100      1.0  0.06593  0.66613  0.71544  1.0000 -0.1905199417
C   C101      1.0  0.84447  0.51631  0.67842  1.0000 -0.0910672334
C   C102      1.0  0.00343  0.65036  0.69951  1.0000 0.2072655778
C   C103      1.0  0.92454  0.58100  0.77936  1.0000 -0.0208016779
C   C104      1.0  0.86803  0.53539  0.65048  1.0000 -0.0208016779
C   C105      1.0  0.89776  0.55841  0.80803  1.0000 0.6124974324
C   C106      1.0  0.02897  0.66690  0.85213  1.0000 -0.0910672334
C   C107      1.0  0.97291  0.62076  0.72303  1.0000 0.0528200793
C   C108      1.0  0.77922  0.46089  0.53869  1.0000 0.5438544167
C   C109      1.0  0.05190  0.68510  0.82330  1.0000 -0.1520167274
C   C110      1.0  0.32010  0.91520  0.88180  1.0000 0.4001344575
C   C111      1.0  0.71544  0.06593  0.66613  1.0000 -0.1905199417
C   C112      1.0  0.67842  0.84447  0.51631  1.0000 -0.0910672334
C   C113      1.0  0.69951  0.00343  0.65036  1.0000 0.2072655778
C   C114      1.0  0.77936  0.92454  0.58100  1.0000 -0.0208016779
C   C115      1.0  0.65048  0.86803  0.53539  1.0000 -0.0208016779
C   C116      1.0  0.80803  0.89776  0.55841  1.0000 0.6124974324
C   C117      1.0  0.85213  0.02897  0.66690  1.0000 -0.0910672334
C   C118      1.0  0.72303  0.97291  0.62076  1.0000 0.0528200793
C   C119      1.0  0.53869  0.77922  0.46089  1.0000 0.5438544167
C   C120      1.0  0.82330  0.05190  0.68510  1.0000 -0.1520167274
C   C121      1.0  0.88180  0.32010  0.91520  1.0000 0.4001344575
C   C122      1.0  0.66613  0.71544  0.06593  1.0000 -0.1905199417
C   C123      1.0  0.51631  0.67842  0.84447  1.0000 -0.0910672334
C   C124      1.0  0.65036  0.69951  0.00343  1.0000 0.2072655778
C   C125      1.0  0.58100  0.77936  0.92454  1.0000 -0.0208016779
C   C126      1.0  0.53539  0.65048  0.86803  1.0000 -0.0208016779
C   C127      1.0  0.55841  0.80803  0.89776  1.0000 0.6124974324
C   C128      1.0  0.66690  0.85213  0.02897  1.0000 -0.0910672334
C   C129      1.0  0.62076  0.72303  0.97291  1.0000 0.0528200793
C   C130      1.0  0.46089  0.53869  0.77922  1.0000 0.5438544167
C   C131      1.0  0.68510  0.82330  0.05190  1.0000 -0.1520167274
C   C132      1.0  0.91520  0.88180  0.32010  1.0000 0.4001344575
C   C133      1.0  0.75273  0.29723  0.75273  1.0000 0.0135580623
C   C134      1.0  0.71759  0.16652  0.71759  1.0000 0.0214183066
C   C135      1.0  0.69987  0.09755  0.69987  1.0000 0.1123909897
C   C136      1.0  0.77474  0.37022  0.77474  1.0000 0.6268933647
C   C137      1.0  0.65835  0.19290  0.65835  1.0000 -0.0910672334
C   C138      1.0  0.82430  0.33110  0.82430  1.0000 -0.1172548648
C   C139      1.0  0.64380  0.12960  0.64380  1.0000 -0.1520167274
C   C140      1.0  0.81025  0.27040  0.81025  1.0000 -0.0208016779
C   C141      1.0  0.29723  0.75273  0.75273  1.0000 0.0135580623
C   C142      1.0  0.16652  0.71759  0.71759  1.0000 0.0214183066
C   C143      1.0  0.09755  0.69987  0.69987  1.0000 0.1123909897
C   C144      1.0  0.37022  0.77474  0.77474  1.0000 0.6268933647
C   C145      1.0  0.19290  0.65835  0.65835  1.0000 -0.0910672334
C   C146      1.0  0.33110  0.82430  0.82430  1.0000 -0.1172548648
C   C147      1.0  0.12960  0.64380  0.64380  1.0000 -0.1520167274
C   C148      1.0  0.27040  0.81025  0.81025  1.0000 -0.0208016779
C   C149      1.0  0.75273  0.75273  0.29723  1.0000 0.0135580623
C   C150      1.0  0.71759  0.71759  0.16652  1.0000 0.0214183066
C   C151      1.0  0.69987  0.69987  0.09755  1.0000 0.1123909897
C   C152      1.0  0.77474  0.77474  0.37022  1.0000 0.6268933647
C   C153      1.0  0.65835  0.65835  0.19290  1.0000 -0.0910672334
C   C154      1.0  0.82430  0.82430  0.33110  1.0000 -0.1172548648
C   C155      1.0  0.64380  0.64380  0.12960  1.0000 -0.1520167274
C   C156      1.0  0.81025  0.81025  0.27040  1.0000 -0.0208016779
C   C157      1.0  0.70277  0.24727  0.24727  1.0000 0.0135580623
C   C158      1.0  0.83348  0.28241  0.28241  1.0000 0.0214183066
C   C159      1.0  0.90245  0.30013  0.30013  1.0000 0.1123909897
C   C160      1.0  0.62978  0.22526  0.22526  1.0000 0.6268933647
C   C161      1.0  0.80710  0.34165  0.34165  1.0000 -0.0910672334
C   C162      1.0  0.66890  0.17570  0.17570  1.0000 -0.1172548648
C   C163      1.0  0.87040  0.35620  0.35620  1.0000 -0.1520167274
C   C164      1.0  0.72960  0.18975  0.18975  1.0000 -0.0208016779
C   C165      1.0  0.24727  0.70277  0.24727  1.0000 0.0135580623
C   C166      1.0  0.28241  0.83348  0.28241  1.0000 0.0214183066
C   C167      1.0  0.30013  0.90245  0.30013  1.0000 0.1123909897
C   C168      1.0  0.22526  0.62978  0.22526  1.0000 0.6268933647
C   C169      1.0  0.34165  0.80710  0.34165  1.0000 -0.0910672334
C   C170      1.0  0.17570  0.66890  0.17570  1.0000 -0.1172548648
C   C171      1.0  0.35620  0.87040  0.35620  1.0000 -0.1520167274
C   C172      1.0  0.18975  0.72960  0.18975  1.0000 -0.0208016779
C   C173      1.0  0.24727  0.24727  0.70277  1.0000 0.0135580623
C   C174      1.0  0.28241  0.28241  0.83348  1.0000 0.0214183066
C   C175      1.0  0.30013  0.30013  0.90245  1.0000 0.1123909897
C   C176      1.0  0.22526  0.22526  0.62978  1.0000 0.6268933647
C   C177      1.0  0.34165  0.34165  0.80710  1.0000 -0.0910672334
C   C178      1.0  0.17570  0.17570  0.66890  1.0000 -0.1172548648
C   C179      1.0  0.35620  0.35620  0.87040  1.0000 -0.1520167274
C   C180      1.0  0.18975  0.18975  0.72960  1.0000 -0.0208016779
N   N1        1.0  0.66732  0.97065  0.66732  1.0000 -0.2918948696
N   N2        1.0  0.97065  0.66732  0.66732  1.0000 -0.2918948696
N   N3        1.0  0.66732  0.66732  0.97065  1.0000 -0.2918948696
N   N4        1.0  0.02935  0.33268  0.33268  1.0000 -0.2918948696
N   N5        1.0  0.33268  0.02935  0.33268  1.0000 -0.2918948696
N   N6        1.0  0.33268  0.33268  0.02935  1.0000 -0.2918948696
O   O1        1.0  0.47203  0.80227  0.73610  1.0000 -0.582961402
O   O2        1.0  0.62829  0.97329  0.90502  1.0000 -0.5379071054
O   O3        1.0  0.43142  0.70781  0.49647  1.0000 -0.4959872531
O   O4        1.0  0.42775  0.77861  0.48994  1.0000 -0.4866365509
O   O5        1.0  0.98860  0.37790  0.91380  1.0000 -0.4301554403
O   O6        1.0  0.80227  0.73610  0.47203  1.0000 -0.582961402
O   O7        1.0  0.97329  0.90502  0.62829  1.0000 -0.5379071054
O   O8        1.0  0.70781  0.49647  0.43142  1.0000 -0.4959872531
O   O9        1.0  0.77861  0.48994  0.42775  1.0000 -0.4866365509
O   O10       1.0  0.37790  0.91380  0.98860  1.0000 -0.4301554403
O   O11       1.0  0.73610  0.47203  0.80227  1.0000 -0.582961402
O   O12       1.0  0.90502  0.62829  0.97329  1.0000 -0.5379071054
O   O13       1.0  0.49647  0.43142  0.70781  1.0000 -0.4959872531
O   O14       1.0  0.48994  0.42775  0.77861  1.0000 -0.4866365509
O   O15       1.0  0.91380  0.98860  0.37790  1.0000 -0.4301554403
O   O16       1.0  0.19773  0.52797  0.26390  1.0000 -0.582961402
O   O17       1.0  0.02671  0.37171  0.09498  1.0000 -0.5379071054
O   O18       1.0  0.29219  0.56858  0.50353  1.0000 -0.4959872531
O   O19       1.0  0.22139  0.57225  0.51006  1.0000 -0.4866365509
O   O20       1.0  0.62210  0.01140  0.08620  1.0000 -0.4301554403
O   O21       1.0  0.26390  0.19773  0.52797  1.0000 -0.582961402
O   O22       1.0  0.09498  0.02671  0.37171  1.0000 -0.5379071054
O   O23       1.0  0.50353  0.29219  0.56858  1.0000 -0.4959872531
O   O24       1.0  0.51006  0.22139  0.57225  1.0000 -0.4866365509
O   O25       1.0  0.08620  0.62210  0.01140  1.0000 -0.4301554403
O   O26       1.0  0.52797  0.26390  0.19773  1.0000 -0.582961402
O   O27       1.0  0.37171  0.09498  0.02671  1.0000 -0.5379071054
O   O28       1.0  0.56858  0.50353  0.29219  1.0000 -0.4959872531
O   O29       1.0  0.57225  0.51006  0.22139  1.0000 -0.4866365509
O   O30       1.0  0.01140  0.08620  0.62210  1.0000 -0.4301554403
O   O31       1.0  0.52797  0.19773  0.26390  1.0000 -0.582961402
O   O32       1.0  0.37171  0.02671  0.09498  1.0000 -0.5379071054
O   O33       1.0  0.56858  0.29219  0.50353  1.0000 -0.4959872531
O   O34       1.0  0.57225  0.22139  0.51006  1.0000 -0.4866365509
O   O35       1.0  0.01140  0.62210  0.08620  1.0000 -0.4301554403
O   O36       1.0  0.19773  0.26390  0.52797  1.0000 -0.582961402
O   O37       1.0  0.02671  0.09498  0.37171  1.0000 -0.5379071054
O   O38       1.0  0.29219  0.50353  0.56858  1.0000 -0.4959872531
O   O39       1.0  0.22139  0.51006  0.57225  1.0000 -0.4866365509
O   O40       1.0  0.62210  0.08620  0.01140  1.0000 -0.4301554403
O   O41       1.0  0.26390  0.52797  0.19773  1.0000 -0.582961402
O   O42       1.0  0.09498  0.37171  0.02671  1.0000 -0.5379071054
O   O43       1.0  0.50353  0.56858  0.29219  1.0000 -0.4959872531
O   O44       1.0  0.51006  0.57225  0.22139  1.0000 -0.4866365509
O   O45       1.0  0.08620  0.01140  0.62210  1.0000 -0.4301554403
O   O46       1.0  0.80227  0.47203  0.73610  1.0000 -0.582961402
O   O47       1.0  0.97329  0.62829  0.90502  1.0000 -0.5379071054
O   O48       1.0  0.70781  0.43142  0.49647  1.0000 -0.4959872531
O   O49       1.0  0.77861  0.42775  0.48994  1.0000 -0.4866365509
O   O50       1.0  0.37790  0.98860  0.91380  1.0000 -0.4301554403
O   O51       1.0  0.73610  0.80227  0.47203  1.0000 -0.582961402
O   O52       1.0  0.90502  0.97329  0.62829  1.0000 -0.5379071054
O   O53       1.0  0.49647  0.70781  0.43142  1.0000 -0.4959872531
O   O54       1.0  0.48994  0.77861  0.42775  1.0000 -0.4866365509
O   O55       1.0  0.91380  0.37790  0.98860  1.0000 -0.4301554403
O   O56       1.0  0.47203  0.73610  0.80227  1.0000 -0.582961402
O   O57       1.0  0.62829  0.90502  0.97329  1.0000 -0.5379071054
O   O58       1.0  0.43142  0.49647  0.70781  1.0000 -0.4959872531
O   O59       1.0  0.42775  0.48994  0.77861  1.0000 -0.4866365509
O   O60       1.0  0.98860  0.91380  0.37790  1.0000 -0.4301554403
O   O61       1.0  0.91750  0.30370  0.91750  1.0000 -0.3434167024
O   O62       1.0  0.70108  0.32974  0.70108  1.0000 -0.5192633437
O   O63       1.0  0.86638  0.46594  0.86638  1.0000 -0.5289761093
O   O64       1.0  0.30370  0.91750  0.91750  1.0000 -0.3434167024
O   O65       1.0  0.32974  0.70108  0.70108  1.0000 -0.5192633437
O   O66       1.0  0.46594  0.86638  0.86638  1.0000 -0.5289761093
O   O67       1.0  0.91750  0.91750  0.30370  1.0000 -0.3434167024
O   O68       1.0  0.70108  0.70108  0.32974  1.0000 -0.5192633437
O   O69       1.0  0.86638  0.86638  0.46594  1.0000 -0.5289761093
O   O70       1.0  0.69630  0.08250  0.08250  1.0000 -0.3434167024
O   O71       1.0  0.67026  0.29892  0.29892  1.0000 -0.5192633437
O   O72       1.0  0.53406  0.13362  0.13362  1.0000 -0.5289761093
O   O73       1.0  0.08250  0.69630  0.08250  1.0000 -0.3434167024
O   O74       1.0  0.29892  0.67026  0.29892  1.0000 -0.5192633437
O   O75       1.0  0.13362  0.53406  0.13362  1.0000 -0.5289761093
O   O76       1.0  0.08250  0.08250  0.69630  1.0000 -0.3434167024
O   O77       1.0  0.29892  0.29892  0.67026  1.0000 -0.5192633437
O   O78       1.0  0.13362  0.13362  0.53406  1.0000 -0.5289761093
