# DDEC6 charges by PACMAN v1.1 (https://github.com/mtap-research/PACMAN-charge/)
data_2021[Cu][sql]2[ASR]10
_chemical_formula_sum              "Cu8 H16 C32 O32"
_cell_length_a       8.809
_cell_length_b       17.473
_cell_length_c       19.5849
_cell_angle_alpha    90
_cell_angle_beta     109.918
_cell_angle_gamma    90

_symmetry_space_group_name_H-M    "P 1"
_symmetry_Int_Tables_number       1

loop_
  _symmetry_equiv_pos_as_xyz
  'x, y, z'

loop_
  _atom_site_type_symbol
  _atom_site_label
  _atom_site_symmetry_multiplicity
  _atom_site_fract_x
  _atom_site_fract_y
  _atom_site_fract_z
  _atom_site_occupancy
  _atom_site_charge
Cu  Cu1       1.0  0.99774  0.88386  0.29584  1.0000 0.8669750503
Cu  Cu2       1.0  0.07823  0.38851  0.34723  1.0000 0.8669750503
Cu  Cu3       1.0  0.00226  0.38386  0.20416  1.0000 0.8669750503
Cu  Cu4       1.0  0.92177  0.88851  0.15277  1.0000 0.8669750503
Cu  Cu5       1.0  0.00226  0.11614  0.70416  1.0000 0.8669750503
Cu  Cu6       1.0  0.92177  0.61149  0.65277  1.0000 0.8669750503
Cu  Cu7       1.0  0.99774  0.61614  0.79584  1.0000 0.8635474427
Cu  Cu8       1.0  0.07823  0.11149  0.84723  1.0000 0.8669750503
H   H1        1.0  0.41268  0.89136  0.15456  1.0000 0.1514678515
H   H2        1.0  0.51251  0.88386  0.30528  1.0000 0.1514678515
H   H3        1.0  0.93509  0.63238  0.16620  1.0000 0.1514678515
H   H4        1.0  0.05384  0.64038  0.31703  1.0000 0.1514678515
H   H5        1.0  0.58732  0.39136  0.34544  1.0000 0.1514678515
H   H6        1.0  0.48749  0.38386  0.19472  1.0000 0.1514678515
H   H7        1.0  0.06491  0.13238  0.33380  1.0000 0.1514678515
H   H8        1.0  0.94616  0.14038  0.18297  1.0000 0.1514678515
H   H9        1.0  0.58732  0.10864  0.84544  1.0000 0.1514678515
H   H10       1.0  0.48749  0.11614  0.69472  1.0000 0.1514678515
H   H11       1.0  0.06491  0.36762  0.83380  1.0000 0.1514678515
H   H12       1.0  0.94616  0.35962  0.68297  1.0000 0.1514678515
H   H13       1.0  0.41268  0.60864  0.65456  1.0000 0.1514678515
H   H14       1.0  0.51251  0.61614  0.80528  1.0000 0.1514678515
H   H15       1.0  0.93509  0.86762  0.66620  1.0000 0.1514678515
H   H16       1.0  0.05384  0.85962  0.81703  1.0000 0.1514678515
C   C1        1.0  0.03218  0.53040  0.27118  1.0000 0.6232849119
C   C2        1.0  0.66260  0.88697  0.20980  1.0000 0.6232849119
C   C3        1.0  0.49000  0.88836  0.20220  1.0000 -0.1462612854
C   C4        1.0  0.43640  0.88571  0.25740  1.0000 -0.1415573538
C   C5        1.0  0.95930  0.74200  0.21450  1.0000 0.6232849119
C   C6        1.0  0.26120  0.88549  0.24740  1.0000 0.6232849119
C   C7        1.0  0.96842  0.65715  0.21212  1.0000 -0.1415573538
C   C8        1.0  0.02102  0.61498  0.27142  1.0000 -0.1462612854
C   C9        1.0  0.96782  0.03040  0.22882  1.0000 0.6232849119
C   C10       1.0  0.33740  0.38697  0.29020  1.0000 0.6232849119
C   C11       1.0  0.51000  0.38836  0.29780  1.0000 -0.1462612854
C   C12       1.0  0.56360  0.38571  0.24260  1.0000 -0.1415573538
C   C13       1.0  0.04070  0.24200  0.28550  1.0000 0.6232849119
C   C14       1.0  0.73880  0.38549  0.25260  1.0000 0.6232849119
C   C15       1.0  0.03158  0.15715  0.28788  1.0000 -0.1415573538
C   C16       1.0  0.97898  0.11498  0.22858  1.0000 -0.1415573538
C   C17       1.0  0.96782  0.46960  0.72882  1.0000 0.6232849119
C   C18       1.0  0.33740  0.11303  0.79020  1.0000 0.6232849119
C   C19       1.0  0.51000  0.11164  0.79780  1.0000 -0.1415573538
C   C20       1.0  0.56360  0.11429  0.74260  1.0000 -0.1415573538
C   C21       1.0  0.04070  0.25800  0.78550  1.0000 0.6232849119
C   C22       1.0  0.73880  0.11451  0.75260  1.0000 0.6232849119
C   C23       1.0  0.03158  0.34285  0.78788  1.0000 -0.1415573538
C   C24       1.0  0.97898  0.38502  0.72858  1.0000 -0.1415573538
C   C25       1.0  0.03218  0.96960  0.77118  1.0000 0.6232849119
C   C26       1.0  0.66260  0.61303  0.70980  1.0000 0.6232849119
C   C27       1.0  0.49000  0.61164  0.70220  1.0000 -0.1462612854
C   C28       1.0  0.43640  0.61429  0.75740  1.0000 -0.1415573538
C   C29       1.0  0.95930  0.75800  0.71450  1.0000 0.6232849119
C   C30       1.0  0.26120  0.61451  0.74740  1.0000 0.6232849119
C   C31       1.0  0.96842  0.84285  0.71212  1.0000 -0.1415573538
C   C32       1.0  0.02102  0.88502  0.77142  1.0000 -0.1462612854
O   O1        1.0  0.99840  0.49697  0.21090  1.0000 -0.522259401
O   O2        1.0  0.07290  0.49909  0.33270  1.0000 -0.5387155728
O   O3        1.0  0.16307  0.88865  0.18387  1.0000 -0.5320608752
O   O4        1.0  0.76376  0.88598  0.27336  1.0000 -0.5387155728
O   O5        1.0  0.92372  0.77647  0.15412  1.0000 -0.5320608752
O   O6        1.0  0.22627  0.88233  0.30497  1.0000 -0.5320608752
O   O7        1.0  0.98941  0.77268  0.27571  1.0000 -0.5320608752
O   O8        1.0  0.69487  0.88689  0.15167  1.0000 -0.5320608752
O   O9        1.0  0.00160  0.99697  0.28910  1.0000 -0.522259401
O   O10       1.0  0.92710  0.99909  0.16730  1.0000 -0.5387155728
O   O11       1.0  0.83693  0.38865  0.31613  1.0000 -0.5320608752
O   O12       1.0  0.23624  0.38598  0.22664  1.0000 -0.5387155728
O   O13       1.0  0.07628  0.27647  0.34588  1.0000 -0.5320608752
O   O14       1.0  0.77373  0.38233  0.19503  1.0000 -0.5320608752
O   O15       1.0  0.01059  0.27268  0.22429  1.0000 -0.5320608752
O   O16       1.0  0.30513  0.38689  0.34833  1.0000 -0.5320608752
O   O17       1.0  0.00160  0.50303  0.78910  1.0000 -0.522259401
O   O18       1.0  0.92710  0.50091  0.66730  1.0000 -0.5387155728
O   O19       1.0  0.83693  0.11135  0.81613  1.0000 -0.5320608752
O   O20       1.0  0.23624  0.11402  0.72664  1.0000 -0.5387155728
O   O21       1.0  0.07628  0.22353  0.84588  1.0000 -0.5320608752
O   O22       1.0  0.77373  0.11767  0.69503  1.0000 -0.5320608752
O   O23       1.0  0.01059  0.22732  0.72429  1.0000 -0.5320608752
O   O24       1.0  0.30513  0.11311  0.84833  1.0000 -0.5320608752
O   O25       1.0  0.99840  0.00303  0.71090  1.0000 -0.522259401
O   O26       1.0  0.07290  0.00091  0.83270  1.0000 -0.5387155728
O   O27       1.0  0.16307  0.61135  0.68387  1.0000 -0.5320608752
O   O28       1.0  0.76376  0.61402  0.77336  1.0000 -0.5387155728
O   O29       1.0  0.92372  0.72353  0.65412  1.0000 -0.5320608752
O   O30       1.0  0.22627  0.61767  0.80497  1.0000 -0.5320608752
O   O31       1.0  0.98941  0.72732  0.77571  1.0000 -0.5320608752
O   O32       1.0  0.69487  0.61311  0.65167  1.0000 -0.5320608752
