# DDEC6 charges by PACMAN v1.1 (https://github.com/mtap-research/PACMAN-charge/)
data_2021[Zn][pcu]3[ASR]12
_chemical_formula_sum              "Zn8 H144 C216 N24 O80"
_cell_length_a       15.3684
_cell_length_b       15.3684
_cell_length_c       28.0526
_cell_angle_alpha    90
_cell_angle_beta     90
_cell_angle_gamma    90

_symmetry_space_group_name_H-M    "P 1"
_symmetry_Int_Tables_number       1

loop_
  _symmetry_equiv_pos_as_xyz
  'x, y, z'

loop_
  _atom_site_type_symbol
  _atom_site_label
  _atom_site_symmetry_multiplicity
  _atom_site_fract_x
  _atom_site_fract_y
  _atom_site_fract_z
  _atom_site_occupancy
  _atom_site_charge
Zn  Zn1       1.0  0.50000  0.00000  0.19785  1.0000 0.8278083155
Zn  Zn2       1.0  0.50000  0.00000  0.69785  1.0000 0.8278083155
Zn  Zn3       1.0  0.50000  0.00000  0.30215  1.0000 0.8278083155
Zn  Zn4       1.0  0.50000  0.00000  0.80215  1.0000 0.8278083155
Zn  Zn5       1.0  0.00000  0.50000  0.30215  1.0000 0.8278083155
Zn  Zn6       1.0  0.00000  0.50000  0.80215  1.0000 0.8278083155
Zn  Zn7       1.0  0.00000  0.50000  0.19785  1.0000 0.8278083155
Zn  Zn8       1.0  0.00000  0.50000  0.69785  1.0000 0.8278083155
H   H1        1.0  0.35671  0.24346  0.30902  1.0000 0.1285793003
H   H2        1.0  0.35075  0.35602  0.36308  1.0000 0.1126298363
H   H3        1.0  0.25950  0.31175  0.37721  1.0000 0.1126298363
H   H4        1.0  0.22783  0.51878  0.33717  1.0000 0.1285793003
H   H5        1.0  0.18999  0.64169  0.38002  1.0000 0.1165942897
H   H6        1.0  0.20736  0.64545  0.46243  1.0000 0.1126298363
H   H7        1.0  0.25401  0.52070  0.50263  1.0000 0.1285793003
H   H8        1.0  0.56159  0.88754  0.11836  1.0000 0.1126298363
H   H9        1.0  0.56321  0.88460  0.03593  1.0000 0.1285793003
H   H10       1.0  0.64329  0.75654  0.30902  1.0000 0.1285793003
H   H11       1.0  0.64925  0.64398  0.36308  1.0000 0.1126298363
H   H12       1.0  0.74050  0.68825  0.37721  1.0000 0.1126298363
H   H13       1.0  0.77217  0.48122  0.33717  1.0000 0.1285793003
H   H14       1.0  0.81001  0.35831  0.38002  1.0000 0.1165942897
H   H15       1.0  0.79264  0.35455  0.46243  1.0000 0.1126298363
H   H16       1.0  0.74599  0.47930  0.50263  1.0000 0.1285793003
H   H17       1.0  0.43841  0.11246  0.11836  1.0000 0.1126298363
H   H18       1.0  0.43679  0.11540  0.03593  1.0000 0.1285793003
H   H19       1.0  0.25654  0.85671  0.80902  1.0000 0.1285793003
H   H20       1.0  0.14398  0.85075  0.86308  1.0000 0.1126298363
H   H21       1.0  0.18825  0.75950  0.87721  1.0000 0.1126298363
H   H22       1.0  0.98122  0.72783  0.83717  1.0000 0.1285793003
H   H23       1.0  0.85831  0.68999  0.88002  1.0000 0.1165942897
H   H24       1.0  0.85455  0.70736  0.96243  1.0000 0.1126298363
H   H25       1.0  0.97930  0.75401  0.00263  1.0000 0.1285793003
H   H26       1.0  0.61246  0.06159  0.61836  1.0000 0.1165942897
H   H27       1.0  0.61540  0.06321  0.53593  1.0000 0.1285793003
H   H28       1.0  0.74346  0.14329  0.80902  1.0000 0.1285793003
H   H29       1.0  0.85602  0.14925  0.86308  1.0000 0.1126298363
H   H30       1.0  0.81175  0.24050  0.87721  1.0000 0.1126298363
H   H31       1.0  0.01878  0.27217  0.83717  1.0000 0.1285793003
H   H32       1.0  0.14169  0.31001  0.88002  1.0000 0.1165942897
H   H33       1.0  0.14545  0.29264  0.96243  1.0000 0.1126298363
H   H34       1.0  0.02070  0.24599  0.00263  1.0000 0.1285793003
H   H35       1.0  0.38754  0.93841  0.61836  1.0000 0.1165942897
H   H36       1.0  0.38460  0.93679  0.53593  1.0000 0.1285793003
H   H37       1.0  0.64329  0.24346  0.19098  1.0000 0.1285793003
H   H38       1.0  0.64925  0.35602  0.13692  1.0000 0.1126298363
H   H39       1.0  0.74050  0.31175  0.12279  1.0000 0.1126298363
H   H40       1.0  0.77217  0.51878  0.16283  1.0000 0.1285793003
H   H41       1.0  0.81001  0.64169  0.11998  1.0000 0.1165942897
H   H42       1.0  0.79264  0.64545  0.03757  1.0000 0.1126298363
H   H43       1.0  0.74599  0.52070  0.99737  1.0000 0.1285793003
H   H44       1.0  0.43841  0.88754  0.38164  1.0000 0.1126298363
H   H45       1.0  0.43679  0.88460  0.46407  1.0000 0.1285793003
H   H46       1.0  0.35671  0.75654  0.19098  1.0000 0.1285793003
H   H47       1.0  0.35075  0.64398  0.13692  1.0000 0.1126298363
H   H48       1.0  0.25950  0.68825  0.12279  1.0000 0.1126298363
H   H49       1.0  0.22783  0.48122  0.16283  1.0000 0.1285793003
H   H50       1.0  0.18999  0.35831  0.11998  1.0000 0.1165942897
H   H51       1.0  0.20736  0.35455  0.03757  1.0000 0.1126298363
H   H52       1.0  0.25401  0.47930  0.99737  1.0000 0.1285793003
H   H53       1.0  0.56159  0.11246  0.38164  1.0000 0.1126298363
H   H54       1.0  0.56321  0.11540  0.46407  1.0000 0.1285793003
H   H55       1.0  0.74346  0.85671  0.69098  1.0000 0.1285793003
H   H56       1.0  0.85602  0.85075  0.63692  1.0000 0.1126298363
H   H57       1.0  0.81175  0.75950  0.62279  1.0000 0.1126298363
H   H58       1.0  0.01878  0.72783  0.66283  1.0000 0.1285793003
H   H59       1.0  0.14169  0.68999  0.61998  1.0000 0.1165942897
H   H60       1.0  0.14545  0.70736  0.53757  1.0000 0.1126298363
H   H61       1.0  0.02070  0.75401  0.49737  1.0000 0.1285793003
H   H62       1.0  0.38754  0.06159  0.88164  1.0000 0.1165942897
H   H63       1.0  0.38460  0.06321  0.96407  1.0000 0.1285793003
H   H64       1.0  0.25654  0.14329  0.69098  1.0000 0.1285793003
H   H65       1.0  0.14398  0.14925  0.63692  1.0000 0.1126298363
H   H66       1.0  0.18825  0.24050  0.62279  1.0000 0.1126298363
H   H67       1.0  0.98122  0.27217  0.66283  1.0000 0.1285793003
H   H68       1.0  0.85831  0.31001  0.61998  1.0000 0.1165942897
H   H69       1.0  0.85455  0.29264  0.53757  1.0000 0.1126298363
H   H70       1.0  0.97930  0.24599  0.49737  1.0000 0.1285793003
H   H71       1.0  0.61246  0.93841  0.88164  1.0000 0.1165942897
H   H72       1.0  0.61540  0.93679  0.96407  1.0000 0.1285793003
H   H73       1.0  0.14329  0.25654  0.19098  1.0000 0.1285793003
H   H74       1.0  0.14925  0.14398  0.13692  1.0000 0.1126298363
H   H75       1.0  0.24050  0.18825  0.12279  1.0000 0.1126298363
H   H76       1.0  0.27217  0.98122  0.16283  1.0000 0.1285793003
H   H77       1.0  0.31001  0.85831  0.11998  1.0000 0.1165942897
H   H78       1.0  0.29264  0.85455  0.03757  1.0000 0.1126298363
H   H79       1.0  0.24599  0.97930  0.99737  1.0000 0.1285793003
H   H80       1.0  0.93841  0.61246  0.38164  1.0000 0.1126298363
H   H81       1.0  0.93679  0.61540  0.46407  1.0000 0.1285793003
H   H82       1.0  0.85671  0.74346  0.19098  1.0000 0.1285793003
H   H83       1.0  0.85075  0.85602  0.13692  1.0000 0.1126298363
H   H84       1.0  0.75950  0.81175  0.12279  1.0000 0.1126298363
H   H85       1.0  0.72783  0.01878  0.16283  1.0000 0.1285793003
H   H86       1.0  0.68999  0.14169  0.11998  1.0000 0.1165942897
H   H87       1.0  0.70736  0.14545  0.03757  1.0000 0.1126298363
H   H88       1.0  0.75401  0.02070  0.99737  1.0000 0.1285793003
H   H89       1.0  0.06159  0.38754  0.38164  1.0000 0.1126298363
H   H90       1.0  0.06321  0.38460  0.46407  1.0000 0.1285793003
H   H91       1.0  0.24346  0.64329  0.69098  1.0000 0.1285793003
H   H92       1.0  0.35602  0.64925  0.63692  1.0000 0.1126298363
H   H93       1.0  0.31175  0.74050  0.62279  1.0000 0.1126298363
H   H94       1.0  0.51878  0.77217  0.66283  1.0000 0.1285793003
H   H95       1.0  0.64169  0.81001  0.61998  1.0000 0.1165942897
H   H96       1.0  0.64545  0.79264  0.53757  1.0000 0.1126298363
H   H97       1.0  0.52070  0.74599  0.49737  1.0000 0.1285793003
H   H98       1.0  0.88754  0.43841  0.88164  1.0000 0.1165942897
H   H99       1.0  0.88460  0.43679  0.96407  1.0000 0.1285793003
H   H100      1.0  0.75654  0.35671  0.69098  1.0000 0.1285793003
H   H101      1.0  0.64398  0.35075  0.63692  1.0000 0.1126298363
H   H102      1.0  0.68825  0.25950  0.62279  1.0000 0.1126298363
H   H103      1.0  0.48122  0.22783  0.66283  1.0000 0.1285793003
H   H104      1.0  0.35831  0.18999  0.61998  1.0000 0.1165942897
H   H105      1.0  0.35455  0.20736  0.53757  1.0000 0.1126298363
H   H106      1.0  0.47930  0.25401  0.49737  1.0000 0.1285793003
H   H107      1.0  0.11246  0.56159  0.88164  1.0000 0.1165942897
H   H108      1.0  0.11540  0.56321  0.96407  1.0000 0.1285793003
H   H109      1.0  0.85671  0.25654  0.30902  1.0000 0.1285793003
H   H110      1.0  0.85075  0.14398  0.36308  1.0000 0.1126298363
H   H111      1.0  0.75950  0.18825  0.37721  1.0000 0.1126298363
H   H112      1.0  0.72783  0.98122  0.33717  1.0000 0.1285793003
H   H113      1.0  0.68999  0.85831  0.38002  1.0000 0.1165942897
H   H114      1.0  0.70736  0.85455  0.46243  1.0000 0.1126298363
H   H115      1.0  0.75401  0.97930  0.50263  1.0000 0.1285793003
H   H116      1.0  0.06159  0.61246  0.11836  1.0000 0.1126298363
H   H117      1.0  0.06321  0.61540  0.03593  1.0000 0.1285793003
H   H118      1.0  0.14329  0.74346  0.30902  1.0000 0.1285793003
H   H119      1.0  0.14925  0.85602  0.36308  1.0000 0.1126298363
H   H120      1.0  0.24050  0.81175  0.37721  1.0000 0.1126298363
H   H121      1.0  0.27217  0.01878  0.33717  1.0000 0.1285793003
H   H122      1.0  0.31001  0.14169  0.38002  1.0000 0.1165942897
H   H123      1.0  0.29264  0.14545  0.46243  1.0000 0.1126298363
H   H124      1.0  0.24599  0.02070  0.50263  1.0000 0.1285793003
H   H125      1.0  0.93841  0.38754  0.11836  1.0000 0.1126298363
H   H126      1.0  0.93679  0.38460  0.03593  1.0000 0.1285793003
H   H127      1.0  0.75654  0.64329  0.80902  1.0000 0.1285793003
H   H128      1.0  0.64398  0.64925  0.86308  1.0000 0.1126298363
H   H129      1.0  0.68825  0.74050  0.87721  1.0000 0.1126298363
H   H130      1.0  0.48122  0.77217  0.83717  1.0000 0.1285793003
H   H131      1.0  0.35831  0.81001  0.88002  1.0000 0.1165942897
H   H132      1.0  0.35455  0.79264  0.96243  1.0000 0.1126298363
H   H133      1.0  0.47930  0.74599  0.00263  1.0000 0.1285793003
H   H134      1.0  0.11246  0.43841  0.61836  1.0000 0.1165942897
H   H135      1.0  0.11540  0.43679  0.53593  1.0000 0.1285793003
H   H136      1.0  0.24346  0.35671  0.80902  1.0000 0.1285793003
H   H137      1.0  0.35602  0.35075  0.86308  1.0000 0.1126298363
H   H138      1.0  0.31175  0.25950  0.87721  1.0000 0.1126298363
H   H139      1.0  0.51878  0.22783  0.83717  1.0000 0.1285793003
H   H140      1.0  0.64169  0.18999  0.88002  1.0000 0.1165942897
H   H141      1.0  0.64545  0.20736  0.96243  1.0000 0.1126298363
H   H142      1.0  0.52070  0.25401  0.00263  1.0000 0.1285793003
H   H143      1.0  0.88754  0.56159  0.61836  1.0000 0.1165942897
H   H144      1.0  0.88460  0.56321  0.53593  1.0000 0.1285793003
C   C1        1.0  0.38210  0.11670  0.24846  1.0000 0.6067054147
C   C2        1.0  0.31220  0.18430  0.24910  1.0000 -0.0996780296
C   C3        1.0  0.31350  0.24630  0.28485  1.0000 -0.2433016238
C   C4        1.0  0.25240  0.31230  0.28570  1.0000 0.2147294159
C   C5        1.0  0.28690  0.36460  0.36369  1.0000 -0.0707733346
C   C6        1.0  0.26380  0.44340  0.39309  1.0000 0.0505030664
C   C7        1.0  0.23360  0.51830  0.37089  1.0000 -0.120668047
C   C8        1.0  0.21150  0.59200  0.39633  1.0000 -0.0707733346
C   C9        1.0  0.22050  0.59390  0.44520  1.0000 -0.0707733346
C   C10       1.0  0.24860  0.52060  0.46890  1.0000 -0.1412805993
C   C11       1.0  0.26880  0.44670  0.44273  1.0000 0.010600942
C   C12       1.0  0.53600  0.93430  0.10122  1.0000 0.0943780268
C   C13       1.0  0.53710  0.93220  0.05214  1.0000 -0.1916089815
C   C14       1.0  0.61790  0.88330  0.24846  1.0000 0.6067054147
C   C15       1.0  0.68780  0.81570  0.24910  1.0000 -0.0996780296
C   C16       1.0  0.68650  0.75370  0.28485  1.0000 -0.2433016238
C   C17       1.0  0.74760  0.68770  0.28570  1.0000 0.2147294159
C   C18       1.0  0.71310  0.63540  0.36369  1.0000 -0.0707733346
C   C19       1.0  0.73620  0.55660  0.39309  1.0000 0.0505030664
C   C20       1.0  0.76640  0.48170  0.37089  1.0000 -0.120668047
C   C21       1.0  0.78850  0.40800  0.39633  1.0000 -0.0707733346
C   C22       1.0  0.77950  0.40610  0.44520  1.0000 -0.0707733346
C   C23       1.0  0.75140  0.47940  0.46890  1.0000 -0.1412805993
C   C24       1.0  0.73120  0.55330  0.44273  1.0000 0.010600942
C   C25       1.0  0.46400  0.06570  0.10122  1.0000 0.0943780268
C   C26       1.0  0.46290  0.06780  0.05214  1.0000 -0.1916089815
C   C27       1.0  0.38330  0.88210  0.74846  1.0000 0.6067054147
C   C28       1.0  0.31570  0.81220  0.74910  1.0000 -0.0996780296
C   C29       1.0  0.25370  0.81350  0.78485  1.0000 -0.2433016238
C   C30       1.0  0.18770  0.75240  0.78570  1.0000 0.2147294159
C   C31       1.0  0.13540  0.78690  0.86369  1.0000 -0.0707733346
C   C32       1.0  0.05660  0.76380  0.89309  1.0000 0.0505030664
C   C33       1.0  0.98170  0.73360  0.87089  1.0000 -0.120668047
C   C34       1.0  0.90800  0.71150  0.89633  1.0000 -0.0707733346
C   C35       1.0  0.90610  0.72050  0.94520  1.0000 -0.0707733346
C   C36       1.0  0.97940  0.74860  0.96890  1.0000 -0.1412805993
C   C37       1.0  0.05330  0.76880  0.94273  1.0000 0.010600942
C   C38       1.0  0.56570  0.03600  0.60122  1.0000 0.0943780268
C   C39       1.0  0.56780  0.03710  0.55214  1.0000 -0.1916089815
C   C40       1.0  0.61670  0.11790  0.74846  1.0000 0.6067054147
C   C41       1.0  0.68430  0.18780  0.74910  1.0000 -0.0996780296
C   C42       1.0  0.74630  0.18650  0.78485  1.0000 -0.2433016238
C   C43       1.0  0.81230  0.24760  0.78570  1.0000 0.2147294159
C   C44       1.0  0.86460  0.21310  0.86369  1.0000 -0.0707733346
C   C45       1.0  0.94340  0.23620  0.89309  1.0000 0.0505030664
C   C46       1.0  0.01830  0.26640  0.87089  1.0000 -0.120668047
C   C47       1.0  0.09200  0.28850  0.89633  1.0000 -0.0707733346
C   C48       1.0  0.09390  0.27950  0.94520  1.0000 -0.0707733346
C   C49       1.0  0.02060  0.25140  0.96890  1.0000 -0.1412805993
C   C50       1.0  0.94670  0.23120  0.94273  1.0000 0.010600942
C   C51       1.0  0.43430  0.96400  0.60122  1.0000 0.0943780268
C   C52       1.0  0.43220  0.96290  0.55214  1.0000 -0.1916089815
C   C53       1.0  0.61790  0.11670  0.25154  1.0000 0.6067054147
C   C54       1.0  0.68780  0.18430  0.25090  1.0000 -0.0996780296
C   C55       1.0  0.68650  0.24630  0.21515  1.0000 -0.2433016238
C   C56       1.0  0.74760  0.31230  0.21430  1.0000 0.2147294159
C   C57       1.0  0.71310  0.36460  0.13631  1.0000 -0.0707733346
C   C58       1.0  0.73620  0.44340  0.10691  1.0000 0.0505030664
C   C59       1.0  0.76640  0.51830  0.12911  1.0000 -0.120668047
C   C60       1.0  0.78850  0.59200  0.10367  1.0000 -0.0707733346
C   C61       1.0  0.77950  0.59390  0.05480  1.0000 -0.0707733346
C   C62       1.0  0.75140  0.52060  0.03110  1.0000 -0.1412805993
C   C63       1.0  0.73120  0.44670  0.05727  1.0000 0.010600942
C   C64       1.0  0.46400  0.93430  0.39878  1.0000 0.0943780268
C   C65       1.0  0.46290  0.93220  0.44786  1.0000 -0.1916089815
C   C66       1.0  0.38210  0.88330  0.25154  1.0000 0.6067054147
C   C67       1.0  0.31220  0.81570  0.25090  1.0000 -0.0996780296
C   C68       1.0  0.31350  0.75370  0.21515  1.0000 -0.2433016238
C   C69       1.0  0.25240  0.68770  0.21430  1.0000 0.2147294159
C   C70       1.0  0.28690  0.63540  0.13631  1.0000 -0.0707733346
C   C71       1.0  0.26380  0.55660  0.10691  1.0000 0.0505030664
C   C72       1.0  0.23360  0.48170  0.12911  1.0000 -0.120668047
C   C73       1.0  0.21150  0.40800  0.10367  1.0000 -0.0707733346
C   C74       1.0  0.22050  0.40610  0.05480  1.0000 -0.0707733346
C   C75       1.0  0.24860  0.47940  0.03110  1.0000 -0.1412805993
C   C76       1.0  0.26880  0.55330  0.05727  1.0000 0.010600942
C   C77       1.0  0.53600  0.06570  0.39878  1.0000 0.0943780268
C   C78       1.0  0.53710  0.06780  0.44786  1.0000 -0.1916089815
C   C79       1.0  0.61670  0.88210  0.75154  1.0000 0.6067054147
C   C80       1.0  0.68430  0.81220  0.75090  1.0000 -0.0996780296
C   C81       1.0  0.74630  0.81350  0.71515  1.0000 -0.2433016238
C   C82       1.0  0.81230  0.75240  0.71430  1.0000 0.2147294159
C   C83       1.0  0.86460  0.78690  0.63631  1.0000 -0.0707733346
C   C84       1.0  0.94340  0.76380  0.60691  1.0000 0.0505030664
C   C85       1.0  0.01830  0.73360  0.62911  1.0000 -0.120668047
C   C86       1.0  0.09200  0.71150  0.60367  1.0000 -0.0707733346
C   C87       1.0  0.09390  0.72050  0.55480  1.0000 -0.0707733346
C   C88       1.0  0.02060  0.74860  0.53110  1.0000 -0.1412805993
C   C89       1.0  0.94670  0.76880  0.55727  1.0000 0.010600942
C   C90       1.0  0.43430  0.03600  0.89878  1.0000 0.0943780268
C   C91       1.0  0.43220  0.03710  0.94786  1.0000 -0.1916089815
C   C92       1.0  0.38330  0.11790  0.75154  1.0000 0.6067054147
C   C93       1.0  0.31570  0.18780  0.75090  1.0000 -0.0996780296
C   C94       1.0  0.25370  0.18650  0.71515  1.0000 -0.2433016238
C   C95       1.0  0.18770  0.24760  0.71430  1.0000 0.2147294159
C   C96       1.0  0.13540  0.21310  0.63631  1.0000 -0.0707733346
C   C97       1.0  0.05660  0.23620  0.60691  1.0000 0.0505030664
C   C98       1.0  0.98170  0.26640  0.62911  1.0000 -0.120668047
C   C99       1.0  0.90800  0.28850  0.60367  1.0000 -0.0707733346
C   C100      1.0  0.90610  0.27950  0.55480  1.0000 -0.0707733346
C   C101      1.0  0.97940  0.25140  0.53110  1.0000 -0.1412805993
C   C102      1.0  0.05330  0.23120  0.55727  1.0000 0.010600942
C   C103      1.0  0.56570  0.96400  0.89878  1.0000 0.0943780268
C   C104      1.0  0.56780  0.96290  0.94786  1.0000 -0.1916089815
C   C105      1.0  0.11790  0.38330  0.25154  1.0000 0.6067054147
C   C106      1.0  0.18780  0.31570  0.25090  1.0000 -0.0996780296
C   C107      1.0  0.18650  0.25370  0.21515  1.0000 -0.2433016238
C   C108      1.0  0.24760  0.18770  0.21430  1.0000 0.2147294159
C   C109      1.0  0.21310  0.13540  0.13631  1.0000 -0.0707733346
C   C110      1.0  0.23620  0.05660  0.10691  1.0000 0.0505030664
C   C111      1.0  0.26640  0.98170  0.12911  1.0000 -0.120668047
C   C112      1.0  0.28850  0.90800  0.10367  1.0000 -0.0707733346
C   C113      1.0  0.27950  0.90610  0.05480  1.0000 -0.0707733346
C   C114      1.0  0.25140  0.97940  0.03110  1.0000 -0.1412805993
C   C115      1.0  0.23120  0.05330  0.05727  1.0000 0.010600942
C   C116      1.0  0.96400  0.56570  0.39878  1.0000 0.0943780268
C   C117      1.0  0.96290  0.56780  0.44786  1.0000 -0.1916089815
C   C118      1.0  0.88210  0.61670  0.25154  1.0000 0.6067054147
C   C119      1.0  0.81220  0.68430  0.25090  1.0000 -0.0996780296
C   C120      1.0  0.81350  0.74630  0.21515  1.0000 -0.2433016238
C   C121      1.0  0.75240  0.81230  0.21430  1.0000 0.2147294159
C   C122      1.0  0.78690  0.86460  0.13631  1.0000 -0.0707733346
C   C123      1.0  0.76380  0.94340  0.10691  1.0000 0.0505030664
C   C124      1.0  0.73360  0.01830  0.12911  1.0000 -0.120668047
C   C125      1.0  0.71150  0.09200  0.10367  1.0000 -0.0707733346
C   C126      1.0  0.72050  0.09390  0.05480  1.0000 -0.0707733346
C   C127      1.0  0.74860  0.02060  0.03110  1.0000 -0.1412805993
C   C128      1.0  0.76880  0.94670  0.05727  1.0000 0.010600942
C   C129      1.0  0.03600  0.43430  0.39878  1.0000 0.0943780268
C   C130      1.0  0.03710  0.43220  0.44786  1.0000 -0.1916089815
C   C131      1.0  0.11670  0.61790  0.75154  1.0000 0.6067054147
C   C132      1.0  0.18430  0.68780  0.75090  1.0000 -0.0996780296
C   C133      1.0  0.24630  0.68650  0.71515  1.0000 -0.2433016238
C   C134      1.0  0.31230  0.74760  0.71430  1.0000 0.2147294159
C   C135      1.0  0.36460  0.71310  0.63631  1.0000 -0.0707733346
C   C136      1.0  0.44340  0.73620  0.60691  1.0000 0.0505030664
C   C137      1.0  0.51830  0.76640  0.62911  1.0000 -0.120668047
C   C138      1.0  0.59200  0.78850  0.60367  1.0000 -0.0707733346
C   C139      1.0  0.59390  0.77950  0.55480  1.0000 -0.0707733346
C   C140      1.0  0.52060  0.75140  0.53110  1.0000 -0.1412805993
C   C141      1.0  0.44670  0.73120  0.55727  1.0000 0.010600942
C   C142      1.0  0.93430  0.46400  0.89878  1.0000 0.0943780268
C   C143      1.0  0.93220  0.46290  0.94786  1.0000 -0.1916089815
C   C144      1.0  0.88330  0.38210  0.75154  1.0000 0.6067054147
C   C145      1.0  0.81570  0.31220  0.75090  1.0000 -0.0996780296
C   C146      1.0  0.75370  0.31350  0.71515  1.0000 -0.2433016238
C   C147      1.0  0.68770  0.25240  0.71430  1.0000 0.2147294159
C   C148      1.0  0.63540  0.28690  0.63631  1.0000 -0.0707733346
C   C149      1.0  0.55660  0.26380  0.60691  1.0000 0.0505030664
C   C150      1.0  0.48170  0.23360  0.62911  1.0000 -0.120668047
C   C151      1.0  0.40800  0.21150  0.60367  1.0000 -0.0707733346
C   C152      1.0  0.40610  0.22050  0.55480  1.0000 -0.0707733346
C   C153      1.0  0.47940  0.24860  0.53110  1.0000 -0.1412805993
C   C154      1.0  0.55330  0.26880  0.55727  1.0000 0.010600942
C   C155      1.0  0.06570  0.53600  0.89878  1.0000 0.0943780268
C   C156      1.0  0.06780  0.53710  0.94786  1.0000 -0.1916089815
C   C157      1.0  0.88210  0.38330  0.24846  1.0000 0.6067054147
C   C158      1.0  0.81220  0.31570  0.24910  1.0000 -0.0996780296
C   C159      1.0  0.81350  0.25370  0.28485  1.0000 -0.2433016238
C   C160      1.0  0.75240  0.18770  0.28570  1.0000 0.2147294159
C   C161      1.0  0.78690  0.13540  0.36369  1.0000 -0.0707733346
C   C162      1.0  0.76380  0.05660  0.39309  1.0000 0.0505030664
C   C163      1.0  0.73360  0.98170  0.37089  1.0000 -0.120668047
C   C164      1.0  0.71150  0.90800  0.39633  1.0000 -0.0707733346
C   C165      1.0  0.72050  0.90610  0.44520  1.0000 -0.0707733346
C   C166      1.0  0.74860  0.97940  0.46890  1.0000 -0.1412805993
C   C167      1.0  0.76880  0.05330  0.44273  1.0000 0.010600942
C   C168      1.0  0.03600  0.56570  0.10122  1.0000 0.0943780268
C   C169      1.0  0.03710  0.56780  0.05214  1.0000 -0.1916089815
C   C170      1.0  0.11790  0.61670  0.24846  1.0000 0.6067054147
C   C171      1.0  0.18780  0.68430  0.24910  1.0000 -0.0996780296
C   C172      1.0  0.18650  0.74630  0.28485  1.0000 -0.2433016238
C   C173      1.0  0.24760  0.81230  0.28570  1.0000 0.2147294159
C   C174      1.0  0.21310  0.86460  0.36369  1.0000 -0.0707733346
C   C175      1.0  0.23620  0.94340  0.39309  1.0000 0.0505030664
C   C176      1.0  0.26640  0.01830  0.37089  1.0000 -0.120668047
C   C177      1.0  0.28850  0.09200  0.39633  1.0000 -0.0707733346
C   C178      1.0  0.27950  0.09390  0.44520  1.0000 -0.0707733346
C   C179      1.0  0.25140  0.02060  0.46890  1.0000 -0.1412805993
C   C180      1.0  0.23120  0.94670  0.44273  1.0000 0.010600942
C   C181      1.0  0.96400  0.43430  0.10122  1.0000 0.0943780268
C   C182      1.0  0.96290  0.43220  0.05214  1.0000 -0.1916089815
C   C183      1.0  0.88330  0.61790  0.74846  1.0000 0.6067054147
C   C184      1.0  0.81570  0.68780  0.74910  1.0000 -0.0996780296
C   C185      1.0  0.75370  0.68650  0.78485  1.0000 -0.2433016238
C   C186      1.0  0.68770  0.74760  0.78570  1.0000 0.2147294159
C   C187      1.0  0.63540  0.71310  0.86369  1.0000 -0.0707733346
C   C188      1.0  0.55660  0.73620  0.89309  1.0000 0.0505030664
C   C189      1.0  0.48170  0.76640  0.87089  1.0000 -0.120668047
C   C190      1.0  0.40800  0.78850  0.89633  1.0000 -0.0707733346
C   C191      1.0  0.40610  0.77950  0.94520  1.0000 -0.0707733346
C   C192      1.0  0.47940  0.75140  0.96890  1.0000 -0.1412805993
C   C193      1.0  0.55330  0.73120  0.94273  1.0000 0.010600942
C   C194      1.0  0.06570  0.46400  0.60122  1.0000 0.0943780268
C   C195      1.0  0.06780  0.46290  0.55214  1.0000 -0.1916089815
C   C196      1.0  0.11670  0.38210  0.74846  1.0000 0.6067054147
C   C197      1.0  0.18430  0.31220  0.74910  1.0000 -0.0996780296
C   C198      1.0  0.24630  0.31350  0.78485  1.0000 -0.2433016238
C   C199      1.0  0.31230  0.25240  0.78570  1.0000 0.2147294159
C   C200      1.0  0.36460  0.28690  0.86369  1.0000 -0.0707733346
C   C201      1.0  0.44340  0.26380  0.89309  1.0000 0.0505030664
C   C202      1.0  0.51830  0.23360  0.87089  1.0000 -0.120668047
C   C203      1.0  0.59200  0.21150  0.89633  1.0000 -0.0707733346
C   C204      1.0  0.59390  0.22050  0.94520  1.0000 -0.0707733346
C   C205      1.0  0.52060  0.24860  0.96890  1.0000 -0.1412805993
C   C206      1.0  0.44670  0.26880  0.94273  1.0000 0.010600942
C   C207      1.0  0.93430  0.53600  0.60122  1.0000 0.0943780268
C   C208      1.0  0.93220  0.53710  0.55214  1.0000 -0.1916089815
C   C209      1.0  0.50000  0.00000  0.02639  1.0000 0.1126298363
C   C210      1.0  0.50000  0.00000  0.52639  1.0000 0.1126298363
C   C211      1.0  0.50000  0.00000  0.47361  1.0000 0.1126298363
C   C212      1.0  0.50000  0.00000  0.97361  1.0000 0.1126298363
C   C213      1.0  0.00000  0.50000  0.47361  1.0000 0.1126298363
C   C214      1.0  0.00000  0.50000  0.97361  1.0000 0.1126298363
C   C215      1.0  0.00000  0.50000  0.02639  1.0000 0.1126298363
C   C216      1.0  0.00000  0.50000  0.52639  1.0000 0.1126298363
N   N1        1.0  0.29480  0.37070  0.47021  1.0000 0.5073844853
N   N2        1.0  0.70520  0.62930  0.47021  1.0000 0.5073844853
N   N3        1.0  0.12930  0.79480  0.97021  1.0000 0.5073844853
N   N4        1.0  0.87070  0.20520  0.97021  1.0000 0.5073844853
N   N5        1.0  0.70520  0.37070  0.02979  1.0000 0.5073844853
N   N6        1.0  0.29480  0.62930  0.02979  1.0000 0.5073844853
N   N7        1.0  0.87070  0.79480  0.52979  1.0000 0.5073844853
N   N8        1.0  0.12930  0.20520  0.52979  1.0000 0.5073844853
N   N9        1.0  0.20520  0.12930  0.02979  1.0000 0.5073844853
N   N10       1.0  0.79480  0.87070  0.02979  1.0000 0.5073844853
N   N11       1.0  0.37070  0.70520  0.52979  1.0000 0.5073844853
N   N12       1.0  0.62930  0.29480  0.52979  1.0000 0.5073844853
N   N13       1.0  0.79480  0.12930  0.47021  1.0000 0.5073844853
N   N14       1.0  0.20520  0.87070  0.47021  1.0000 0.5073844853
N   N15       1.0  0.62930  0.70520  0.97021  1.0000 0.5073844853
N   N16       1.0  0.37070  0.29480  0.97021  1.0000 0.5073844853
N   N17       1.0  0.50000  0.00000  0.12560  1.0000 -0.2136143048
N   N18       1.0  0.50000  0.00000  0.62560  1.0000 -0.2136143048
N   N19       1.0  0.50000  0.00000  0.37440  1.0000 -0.2136143048
N   N20       1.0  0.50000  0.00000  0.87440  1.0000 -0.2136143048
N   N21       1.0  0.00000  0.50000  0.37440  1.0000 -0.2136143048
N   N22       1.0  0.00000  0.50000  0.87440  1.0000 -0.2136143048
N   N23       1.0  0.00000  0.50000  0.12560  1.0000 -0.2136143048
N   N24       1.0  0.00000  0.50000  0.62560  1.0000 -0.2136143048
O   O1        1.0  0.41948  0.10157  0.20948  1.0000 -0.5338029501
O   O2        1.0  0.39937  0.08130  0.28759  1.0000 -0.5419247871
O   O3        1.0  0.25510  0.38060  0.31719  1.0000 -0.1610988391
O   O4        1.0  0.33780  0.31300  0.45040  1.0000 -0.3468598475
O   O5        1.0  0.27240  0.36610  0.51246  1.0000 -0.3385826287
O   O6        1.0  0.58052  0.89843  0.20948  1.0000 -0.5338029501
O   O7        1.0  0.60063  0.91870  0.28759  1.0000 -0.5419247871
O   O8        1.0  0.74490  0.61940  0.31719  1.0000 -0.1610988391
O   O9        1.0  0.66220  0.68700  0.45040  1.0000 -0.3468598475
O   O10       1.0  0.72760  0.63390  0.51246  1.0000 -0.3385826287
O   O11       1.0  0.39843  0.91948  0.70948  1.0000 -0.5338029501
O   O12       1.0  0.41870  0.89937  0.78759  1.0000 -0.5419247871
O   O13       1.0  0.11940  0.75510  0.81719  1.0000 -0.1610988391
O   O14       1.0  0.18700  0.83780  0.95040  1.0000 -0.3468598475
O   O15       1.0  0.13390  0.77240  0.01246  1.0000 -0.3385826287
O   O16       1.0  0.60157  0.08052  0.70948  1.0000 -0.5338029501
O   O17       1.0  0.58130  0.10063  0.78759  1.0000 -0.5419247871
O   O18       1.0  0.88060  0.24490  0.81719  1.0000 -0.1610988391
O   O19       1.0  0.81300  0.16220  0.95040  1.0000 -0.3468598475
O   O20       1.0  0.86610  0.22760  0.01246  1.0000 -0.3385826287
O   O21       1.0  0.58052  0.10157  0.29052  1.0000 -0.5338029501
O   O22       1.0  0.60063  0.08130  0.21241  1.0000 -0.5419247871
O   O23       1.0  0.74490  0.38060  0.18281  1.0000 -0.1610988391
O   O24       1.0  0.66220  0.31300  0.04960  1.0000 -0.3468598475
O   O25       1.0  0.72760  0.36610  0.98754  1.0000 -0.3385826287
O   O26       1.0  0.41948  0.89843  0.29052  1.0000 -0.5338029501
O   O27       1.0  0.39937  0.91870  0.21241  1.0000 -0.5419247871
O   O28       1.0  0.25510  0.61940  0.18281  1.0000 -0.1610988391
O   O29       1.0  0.33780  0.68700  0.04960  1.0000 -0.3468598475
O   O30       1.0  0.27240  0.63390  0.98754  1.0000 -0.3385826287
O   O31       1.0  0.60157  0.91948  0.79052  1.0000 -0.5338029501
O   O32       1.0  0.58130  0.89937  0.71241  1.0000 -0.5419247871
O   O33       1.0  0.88060  0.75510  0.68281  1.0000 -0.1610988391
O   O34       1.0  0.81300  0.83780  0.54960  1.0000 -0.3468598475
O   O35       1.0  0.86610  0.77240  0.48754  1.0000 -0.3385826287
O   O36       1.0  0.39843  0.08052  0.79052  1.0000 -0.5338029501
O   O37       1.0  0.41870  0.10063  0.71241  1.0000 -0.5419247871
O   O38       1.0  0.11940  0.24490  0.68281  1.0000 -0.1610988391
O   O39       1.0  0.18700  0.16220  0.54960  1.0000 -0.3468598475
O   O40       1.0  0.13390  0.22760  0.48754  1.0000 -0.3385826287
O   O41       1.0  0.08052  0.39843  0.29052  1.0000 -0.5338029501
O   O42       1.0  0.10063  0.41870  0.21241  1.0000 -0.5419247871
O   O43       1.0  0.24490  0.11940  0.18281  1.0000 -0.1610988391
O   O44       1.0  0.16220  0.18700  0.04960  1.0000 -0.3468598475
O   O45       1.0  0.22760  0.13390  0.98754  1.0000 -0.3385826287
O   O46       1.0  0.91948  0.60157  0.29052  1.0000 -0.5338029501
O   O47       1.0  0.89937  0.58130  0.21241  1.0000 -0.5419247871
O   O48       1.0  0.75510  0.88060  0.18281  1.0000 -0.1610988391
O   O49       1.0  0.83780  0.81300  0.04960  1.0000 -0.3468598475
O   O50       1.0  0.77240  0.86610  0.98754  1.0000 -0.3385826287
O   O51       1.0  0.10157  0.58052  0.79052  1.0000 -0.5338029501
O   O52       1.0  0.08130  0.60063  0.71241  1.0000 -0.5419247871
O   O53       1.0  0.38060  0.74490  0.68281  1.0000 -0.1610988391
O   O54       1.0  0.31300  0.66220  0.54960  1.0000 -0.3468598475
O   O55       1.0  0.36610  0.72760  0.48754  1.0000 -0.3385826287
O   O56       1.0  0.89843  0.41948  0.79052  1.0000 -0.5338029501
O   O57       1.0  0.91870  0.39937  0.71241  1.0000 -0.5419247871
O   O58       1.0  0.61940  0.25510  0.68281  1.0000 -0.1610988391
O   O59       1.0  0.68700  0.33780  0.54960  1.0000 -0.3468598475
O   O60       1.0  0.63390  0.27240  0.48754  1.0000 -0.3385826287
O   O61       1.0  0.91948  0.39843  0.20948  1.0000 -0.5338029501
O   O62       1.0  0.89937  0.41870  0.28759  1.0000 -0.5419247871
O   O63       1.0  0.75510  0.11940  0.31719  1.0000 -0.1610988391
O   O64       1.0  0.83780  0.18700  0.45040  1.0000 -0.3468598475
O   O65       1.0  0.77240  0.13390  0.51246  1.0000 -0.3385826287
O   O66       1.0  0.08052  0.60157  0.20948  1.0000 -0.5338029501
O   O67       1.0  0.10063  0.58130  0.28759  1.0000 -0.5419247871
O   O68       1.0  0.24490  0.88060  0.31719  1.0000 -0.1610988391
O   O69       1.0  0.16220  0.81300  0.45040  1.0000 -0.3468598475
O   O70       1.0  0.22760  0.86610  0.51246  1.0000 -0.3385826287
O   O71       1.0  0.89843  0.58052  0.70948  1.0000 -0.5338029501
O   O72       1.0  0.91870  0.60063  0.78759  1.0000 -0.5419247871
O   O73       1.0  0.61940  0.74490  0.81719  1.0000 -0.1610988391
O   O74       1.0  0.68700  0.66220  0.95040  1.0000 -0.3468598475
O   O75       1.0  0.63390  0.72760  0.01246  1.0000 -0.3385826287
O   O76       1.0  0.10157  0.41948  0.70948  1.0000 -0.5338029501
O   O77       1.0  0.08130  0.39937  0.78759  1.0000 -0.5419247871
O   O78       1.0  0.38060  0.25510  0.81719  1.0000 -0.1610988391
O   O79       1.0  0.31300  0.33780  0.95040  1.0000 -0.3468598475
O   O80       1.0  0.36610  0.27240  0.01246  1.0000 -0.3385826287
