# DDEC6 charges by PACMAN v1.1 (https://github.com/mtap-research/PACMAN-charge/)
data_2021[Nd][pcu]3[ASR]2
_chemical_formula_sum              "Nd8 H24 C60 N24 O48"
_cell_length_a       10.2102
_cell_length_b       20.8511
_cell_length_c       17.7529
_cell_angle_alpha    90
_cell_angle_beta     109.704
_cell_angle_gamma    90

_symmetry_space_group_name_H-M    "P 1"
_symmetry_Int_Tables_number       1

loop_
  _symmetry_equiv_pos_as_xyz
  'x, y, z'

loop_
  _atom_site_type_symbol
  _atom_site_label
  _atom_site_symmetry_multiplicity
  _atom_site_fract_x
  _atom_site_fract_y
  _atom_site_fract_z
  _atom_site_occupancy
  _atom_site_charge
Nd  Nd1       1.0  0.78636  0.19771  0.26063  1.0000 1.9488816504
Nd  Nd2       1.0  0.72921  0.01035  0.26121  1.0000 1.9839900478
Nd  Nd3       1.0  0.21364  0.69771  0.23937  1.0000 1.9488816504
Nd  Nd4       1.0  0.27079  0.51035  0.23879  1.0000 1.9839900478
Nd  Nd5       1.0  0.21364  0.80229  0.73937  1.0000 1.9488816504
Nd  Nd6       1.0  0.27079  0.98965  0.73879  1.0000 1.985993797
Nd  Nd7       1.0  0.78636  0.30229  0.76063  1.0000 1.9488816504
Nd  Nd8       1.0  0.72921  0.48965  0.76121  1.0000 1.9839900478
H   H1        1.0  0.78330  0.17690  0.57030  1.0000 0.1638947414
H   H2        1.0  0.20420  0.00480  0.17820  1.0000 0.1638947414
H   H3        1.0  0.21360  0.20430  0.17000  1.0000 0.1678461467
H   H4        1.0  0.51380  0.32620  0.26160  1.0000 0.2827276433
H   H5        1.0  0.69000  0.31010  0.40780  1.0000 0.2827276433
H   H6        1.0  0.99020  0.88050  0.25470  1.0000 0.2827276433
H   H7        1.0  0.21670  0.67690  0.92970  1.0000 0.1678461467
H   H8        1.0  0.79580  0.50480  0.32180  1.0000 0.1638947414
H   H9        1.0  0.78640  0.70430  0.33000  1.0000 0.1678461467
H   H10       1.0  0.48620  0.82620  0.23840  1.0000 0.2827276433
H   H11       1.0  0.31000  0.81010  0.09220  1.0000 0.2827276433
H   H12       1.0  0.00980  0.38050  0.24530  1.0000 0.2827276433
H   H13       1.0  0.21670  0.82310  0.42970  1.0000 0.1638947414
H   H14       1.0  0.79580  0.99520  0.82180  1.0000 0.1638947414
H   H15       1.0  0.78640  0.79570  0.83000  1.0000 0.1678461467
H   H16       1.0  0.48620  0.67380  0.73840  1.0000 0.2827276433
H   H17       1.0  0.31000  0.68990  0.59220  1.0000 0.2827276433
H   H18       1.0  0.00980  0.11950  0.74530  1.0000 0.2827276433
H   H19       1.0  0.78330  0.32310  0.07030  1.0000 0.1638947414
H   H20       1.0  0.20420  0.49520  0.67820  1.0000 0.1638947414
H   H21       1.0  0.21360  0.29570  0.67000  1.0000 0.1678461467
H   H22       1.0  0.51380  0.17380  0.76160  1.0000 0.2827276433
H   H23       1.0  0.69000  0.18990  0.90780  1.0000 0.2827276433
H   H24       1.0  0.99020  0.61950  0.75470  1.0000 0.2827276433
C   C1        1.0  0.23970  0.34230  0.21780  1.0000 0.5810061265
C   C2        1.0  0.68810  0.31230  0.55690  1.0000 0.5728964154
C   C3        1.0  0.78270  0.17700  0.45250  1.0000 0.0807069969
C   C4        1.0  0.82200  0.11200  0.43100  1.0000 0.5905920286
C   C5        1.0  0.76740  0.19940  0.52280  1.0000 -0.2368831168
C   C6        1.0  0.02970  0.01510  0.21620  1.0000 0.0514707432
C   C7        1.0  0.72370  0.26210  0.50740  1.0000 0.0556092133
C   C8        1.0  0.46870  0.12900  0.18820  1.0000 0.5905920286
C   C9        1.0  0.98600  0.08240  0.20760  1.0000 0.5810061265
C   C10       1.0  0.32910  0.28720  0.21320  1.0000 0.0514707432
C   C11       1.0  0.43300  0.19440  0.20310  1.0000 0.0419780389
C   C12       1.0  0.14090  0.98580  0.19860  1.0000 -0.2035659756
C   C13       1.0  0.21990  0.86670  0.21090  1.0000 0.5957564656
C   C14       1.0  0.13350  0.92280  0.21860  1.0000 0.0216052151
C   C15       1.0  0.30070  0.22370  0.19000  1.0000 -0.2053652833
C   C16       1.0  0.76030  0.84230  0.28220  1.0000 0.5810061265
C   C17       1.0  0.31190  0.81230  0.94310  1.0000 0.5728964154
C   C18       1.0  0.21730  0.67700  0.04750  1.0000 0.0807069969
C   C19       1.0  0.17800  0.61200  0.06900  1.0000 0.5905920286
C   C20       1.0  0.23260  0.69940  0.97720  1.0000 -0.2368831168
C   C21       1.0  0.97030  0.51510  0.28380  1.0000 0.0514707432
C   C22       1.0  0.27630  0.76210  0.99260  1.0000 0.0514707432
C   C23       1.0  0.53130  0.62900  0.31180  1.0000 0.5905920286
C   C24       1.0  0.01400  0.58240  0.29240  1.0000 0.5810061265
C   C25       1.0  0.67090  0.78720  0.28680  1.0000 0.0514707432
C   C26       1.0  0.56700  0.69440  0.29690  1.0000 0.0419780389
C   C27       1.0  0.85910  0.48580  0.30140  1.0000 -0.2035659756
C   C28       1.0  0.78010  0.36670  0.28910  1.0000 0.5957564656
C   C29       1.0  0.86650  0.42280  0.28140  1.0000 0.0216052151
C   C30       1.0  0.69930  0.72370  0.31000  1.0000 -0.2053652833
C   C31       1.0  0.76030  0.65770  0.78220  1.0000 0.5810061265
C   C32       1.0  0.31190  0.68770  0.44310  1.0000 0.5728964154
C   C33       1.0  0.21730  0.82300  0.54750  1.0000 0.0807069969
C   C34       1.0  0.17800  0.88800  0.56900  1.0000 0.5905920286
C   C35       1.0  0.23260  0.80060  0.47720  1.0000 -0.2368831168
C   C36       1.0  0.97030  0.98490  0.78380  1.0000 0.0514707432
C   C37       1.0  0.27630  0.73790  0.49260  1.0000 0.0514707432
C   C38       1.0  0.53130  0.87100  0.81180  1.0000 0.5905920286
C   C39       1.0  0.01400  0.91760  0.79240  1.0000 0.5810061265
C   C40       1.0  0.67090  0.71280  0.78680  1.0000 0.0514707432
C   C41       1.0  0.56700  0.80560  0.79690  1.0000 0.0419780389
C   C42       1.0  0.85910  0.01420  0.80140  1.0000 -0.2035659756
C   C43       1.0  0.78010  0.13330  0.78910  1.0000 0.5957564656
C   C44       1.0  0.86650  0.07720  0.78140  1.0000 0.0216052151
C   C45       1.0  0.69930  0.77630  0.81000  1.0000 -0.2053652833
C   C46       1.0  0.23970  0.15770  0.71780  1.0000 0.5810061265
C   C47       1.0  0.68810  0.18770  0.05690  1.0000 0.5728964154
C   C48       1.0  0.78270  0.32300  0.95250  1.0000 0.0807069969
C   C49       1.0  0.82200  0.38800  0.93100  1.0000 0.5905920286
C   C50       1.0  0.76740  0.30060  0.02280  1.0000 -0.2368831168
C   C51       1.0  0.02970  0.48490  0.71620  1.0000 0.0514707432
C   C52       1.0  0.72370  0.23790  0.00740  1.0000 0.0514707432
C   C53       1.0  0.46870  0.37100  0.68820  1.0000 0.5905920286
C   C54       1.0  0.98600  0.41760  0.70760  1.0000 0.5810061265
C   C55       1.0  0.32910  0.21280  0.71320  1.0000 0.0514707432
C   C56       1.0  0.43300  0.30560  0.70310  1.0000 0.0419780389
C   C57       1.0  0.14090  0.51420  0.69860  1.0000 -0.2035659756
C   C58       1.0  0.21990  0.63330  0.71090  1.0000 0.5957564656
C   C59       1.0  0.13350  0.57720  0.71860  1.0000 0.0216052151
C   C60       1.0  0.30070  0.27630  0.69000  1.0000 -0.2053652833
N   N1        1.0  0.47020  0.29160  0.24130  1.0000 -0.0504424755
N   N2        1.0  0.53550  0.23710  0.23460  1.0000 -0.2818646113
N   N3        1.0  0.75090  0.22260  0.39650  1.0000 -0.3376990239
N   N4        1.0  0.71520  0.27390  0.43140  1.0000 -0.0448693688
N   N5        1.0  0.95930  0.97180  0.24170  1.0000 -0.3184587861
N   N6        1.0  0.01890  0.91620  0.24180  1.0000 -0.0302382455
N   N7        1.0  0.52980  0.79160  0.25870  1.0000 -0.0504424755
N   N8        1.0  0.46450  0.73710  0.26540  1.0000 -0.2818646113
N   N9        1.0  0.24910  0.72260  0.10350  1.0000 -0.3376990239
N   N10       1.0  0.28480  0.77390  0.06860  1.0000 -0.0504424755
N   N11       1.0  0.04070  0.47180  0.25830  1.0000 -0.3184587861
N   N12       1.0  0.98110  0.41620  0.25820  1.0000 -0.0302382455
N   N13       1.0  0.52980  0.70840  0.75870  1.0000 -0.0504424755
N   N14       1.0  0.46450  0.76290  0.76540  1.0000 -0.2818646113
N   N15       1.0  0.24910  0.77740  0.60350  1.0000 -0.3376990239
N   N16       1.0  0.28480  0.72610  0.56860  1.0000 -0.0504424755
N   N17       1.0  0.04070  0.02820  0.75830  1.0000 -0.3184587861
N   N18       1.0  0.98110  0.08380  0.75820  1.0000 -0.0302382455
N   N19       1.0  0.47020  0.20840  0.74130  1.0000 -0.0504424755
N   N20       1.0  0.53550  0.26290  0.73460  1.0000 -0.2818646113
N   N21       1.0  0.75090  0.27740  0.89650  1.0000 -0.3376990239
N   N22       1.0  0.71520  0.22610  0.93140  1.0000 -0.0504424755
N   N23       1.0  0.95930  0.52820  0.74170  1.0000 -0.3184587861
N   N24       1.0  0.01890  0.58380  0.74180  1.0000 -0.0302382455
O   O1        1.0  0.87080  0.07170  0.48450  1.0000 -0.5000182967
O   O2        1.0  0.18900  0.81230  0.23170  1.0000 -0.6998385693
O   O3        1.0  0.29940  0.39400  0.24070  1.0000 -0.6998385693
O   O4        1.0  0.67120  0.29370  0.62080  1.0000 -0.6588090266
O   O5        1.0  0.37480  0.09320  0.14820  1.0000 -0.4685348029
O   O6        1.0  0.11150  0.33200  0.19520  1.0000 -0.5567399021
O   O7        1.0  0.59440  0.11350  0.21950  1.0000 -0.6998385693
O   O8        1.0  0.80770  0.10480  0.35720  1.0000 -0.7441633995
O   O9        1.0  0.31800  0.87710  0.18490  1.0000 -0.5769513006
O   O10       1.0  0.87780  0.09620  0.22930  1.0000 -0.7745032067
O   O11       1.0  0.04380  0.12010  0.17680  1.0000 -0.4685348029
O   O12       1.0  0.67030  0.36710  0.53010  1.0000 -0.5215348209
O   O13       1.0  0.12920  0.57170  0.01550  1.0000 -0.5000182967
O   O14       1.0  0.81100  0.31230  0.26830  1.0000 -0.6998385693
O   O15       1.0  0.70060  0.89400  0.25930  1.0000 -0.6998385693
O   O16       1.0  0.32880  0.79370  0.87920  1.0000 -0.6588090266
O   O17       1.0  0.62520  0.59320  0.35180  1.0000 -0.4756238416
O   O18       1.0  0.88850  0.83200  0.30480  1.0000 -0.5567399021
O   O19       1.0  0.40560  0.61350  0.28050  1.0000 -0.6998385693
O   O20       1.0  0.19230  0.60480  0.14280  1.0000 -0.7468139386
O   O21       1.0  0.68200  0.37710  0.31510  1.0000 -0.5769513006
O   O22       1.0  0.12220  0.59620  0.27070  1.0000 -0.7745032067
O   O23       1.0  0.95620  0.62010  0.32320  1.0000 -0.4615682121
O   O24       1.0  0.32970  0.86710  0.96990  1.0000 -0.5215348209
O   O25       1.0  0.12920  0.92830  0.51550  1.0000 -0.5000182967
O   O26       1.0  0.81100  0.18770  0.76830  1.0000 -0.6998385693
O   O27       1.0  0.70060  0.60600  0.75930  1.0000 -0.6998385693
O   O28       1.0  0.32880  0.70630  0.37920  1.0000 -0.6588090266
O   O29       1.0  0.62520  0.90680  0.85180  1.0000 -0.4756238416
O   O30       1.0  0.88850  0.66800  0.80480  1.0000 -0.5567399021
O   O31       1.0  0.40560  0.88650  0.78050  1.0000 -0.6998385693
O   O32       1.0  0.19230  0.89520  0.64280  1.0000 -0.7468139386
O   O33       1.0  0.68200  0.12290  0.81510  1.0000 -0.5769513006
O   O34       1.0  0.12220  0.90380  0.77070  1.0000 -0.7771638389
O   O35       1.0  0.95620  0.87990  0.82320  1.0000 -0.4685348029
O   O36       1.0  0.32970  0.63290  0.46990  1.0000 -0.5215348209
O   O37       1.0  0.87080  0.42830  0.98450  1.0000 -0.5000182967
O   O38       1.0  0.18900  0.68770  0.73170  1.0000 -0.6998385693
O   O39       1.0  0.29940  0.10600  0.74070  1.0000 -0.6998385693
O   O40       1.0  0.67120  0.20630  0.12080  1.0000 -0.6588090266
O   O41       1.0  0.37480  0.40680  0.64820  1.0000 -0.4756238416
O   O42       1.0  0.11150  0.16800  0.69520  1.0000 -0.5567399021
O   O43       1.0  0.59440  0.38650  0.71950  1.0000 -0.6998385693
O   O44       1.0  0.80770  0.39520  0.85720  1.0000 -0.7468139386
O   O45       1.0  0.31800  0.62290  0.68490  1.0000 -0.5769513006
O   O46       1.0  0.87780  0.40380  0.72930  1.0000 -0.7771638389
O   O47       1.0  0.04380  0.37990  0.67680  1.0000 -0.4685348029
O   O48       1.0  0.67030  0.13290  0.03010  1.0000 -0.5215348209
