# DDEC6 charges by PACMAN v1.1 (https://github.com/mtap-research/PACMAN-charge/)
data_2021[Cd][fsc]3[ASR]1
_chemical_formula_sum              "Cd1 H14 C24 N12 O8"
_cell_length_a       7.9374
_cell_length_b       10.4344
_cell_length_c       12.2039
_cell_angle_alpha    103.18
_cell_angle_beta     99.448
_cell_angle_gamma    100.235

_symmetry_space_group_name_H-M    "P 1"
_symmetry_Int_Tables_number       1

loop_
  _symmetry_equiv_pos_as_xyz
  'x, y, z'

loop_
  _atom_site_type_symbol
  _atom_site_label
  _atom_site_symmetry_multiplicity
  _atom_site_fract_x
  _atom_site_fract_y
  _atom_site_fract_z
  _atom_site_occupancy
  _atom_site_charge
Cd  Cd1       1.0  0.00000  0.00000  0.50000  1.0000 0.8116827884
H   H1        1.0  0.55758  0.29400  0.70927  1.0000 0.3498400131
H   H2        1.0  0.13934  0.70433  0.44653  1.0000 0.1187788168
H   H3        1.0  0.85205  0.71412  0.25758  1.0000 0.1315994931
H   H4        1.0  0.75553  0.58745  0.02654  1.0000 0.1494916185
H   H5        1.0  0.79100  0.48900  0.45800  1.0000 0.1315994931
H   H6        1.0  0.42800  0.04100  0.65600  1.0000 0.1187788168
H   H7        1.0  0.20600  0.02800  0.28800  1.0000 0.1187788168
H   H8        1.0  0.44242  0.70600  0.29073  1.0000 0.3498400131
H   H9        1.0  0.86066  0.29567  0.55347  1.0000 0.1187788168
H   H10       1.0  0.14795  0.28588  0.74242  1.0000 0.1315994931
H   H11       1.0  0.24447  0.41255  0.97346  1.0000 0.1494916185
H   H12       1.0  0.20900  0.51100  0.54200  1.0000 0.1315994931
H   H13       1.0  0.57200  0.95900  0.34400  1.0000 0.1187788168
H   H14       1.0  0.79400  0.97200  0.71200  1.0000 0.1187788168
C   C1        1.0  0.70960  0.74200  0.46890  1.0000 0.5707673112
C   C2        1.0  0.60390  0.61950  0.49180  1.0000 -0.0578124497
C   C3        1.0  0.44120  0.61660  0.51790  1.0000 0.1187788168
C   C4        1.0  0.38950  0.94270  0.61470  1.0000 0.1494916185
C   C5        1.0  0.66440  0.50010  0.47350  1.0000 -0.1787870547
C   C6        1.0  0.23200  0.76680  0.49940  1.0000 0.110721221
C   C7        1.0  0.94480  0.77420  0.24600  1.0000 0.110721221
C   C8        1.0  0.13930  0.94410  0.25800  1.0000 0.1494916185
C   C9        1.0  0.02050  0.61900  0.08300  1.0000 0.1187788168
C   C10       1.0  0.85250  0.55160  0.01520  1.0000 -0.1731313041
C   C11       1.0  0.83270  0.43160  0.93160  1.0000 -0.0578124497
C   C12       1.0  0.65060  0.36920  0.85760  1.0000 0.5536024251
C   C13       1.0  0.29040  0.25800  0.53110  1.0000 0.5707673112
C   C14       1.0  0.39610  0.38050  0.50820  1.0000 -0.0578124497
C   C15       1.0  0.55880  0.38340  0.48210  1.0000 0.1187788168
C   C16       1.0  0.61050  0.05730  0.38530  1.0000 0.1494916185
C   C17       1.0  0.33560  0.49990  0.52650  1.0000 -0.1787870547
C   C18       1.0  0.76800  0.23320  0.50060  1.0000 0.110721221
C   C19       1.0  0.05520  0.22580  0.75400  1.0000 0.110721221
C   C20       1.0  0.86070  0.05590  0.74200  1.0000 0.1494916185
C   C21       1.0  0.97950  0.38100  0.91700  1.0000 0.1187788168
C   C22       1.0  0.14750  0.44840  0.98480  1.0000 -0.1731313041
C   C23       1.0  0.16730  0.56840  0.06840  1.0000 -0.0578124497
C   C24       1.0  0.34940  0.63080  0.14240  1.0000 0.5536024251
N   N1        1.0  0.38020  0.74070  0.54170  1.0000 0.1315994931
N   N2        1.0  0.23320  0.89530  0.54300  1.0000 -0.2925159654
N   N3        1.0  0.00450  0.89990  0.30770  1.0000 -0.3195768318
N   N4        1.0  0.48680  0.85370  0.61670  1.0000 -0.2299021503
N   N5        1.0  0.03540  0.74430  0.16420  1.0000 0.1315994931
N   N6        1.0  0.16390  0.85310  0.17030  1.0000 -0.247377137
N   N7        1.0  0.61980  0.25930  0.45830  1.0000 0.1315994931
N   N8        1.0  0.76680  0.10470  0.45700  1.0000 -0.2925159654
N   N9        1.0  0.99550  0.10010  0.69230  1.0000 -0.3195768318
N   N10       1.0  0.51320  0.14630  0.38330  1.0000 -0.2299021503
N   N11       1.0  0.96460  0.25570  0.83580  1.0000 0.1315994931
N   N12       1.0  0.83610  0.14690  0.82970  1.0000 -0.247377137
O   O1        1.0  0.85410  0.80010  0.53380  1.0000 -0.5399518928
O   O2        1.0  0.64470  0.77630  0.38170  1.0000 -0.5685521683
O   O3        1.0  0.65340  0.33980  0.74670  1.0000 -0.5190860948
O   O4        1.0  0.52230  0.35660  0.89580  1.0000 -0.4857549987
O   O5        1.0  0.14590  0.19990  0.46620  1.0000 -0.5399518928
O   O6        1.0  0.35530  0.22370  0.61830  1.0000 -0.5685521683
O   O7        1.0  0.34660  0.66020  0.25330  1.0000 -0.5190860948
O   O8        1.0  0.47770  0.64340  0.10420  1.0000 -0.4857549987
