# DDEC6 charges by PACMAN v1.1 (https://github.com/mtap-research/PACMAN-charge/)
data_2021[Zn][nan]3[ASR]23
_chemical_formula_sum              "Zn12 H20 C28 N20 O24"
_cell_length_a       7.7661
_cell_length_b       11.1106
_cell_length_c       21.1088
_cell_angle_alpha    90
_cell_angle_beta     90
_cell_angle_gamma    90

_symmetry_space_group_name_H-M    "P 1"
_symmetry_Int_Tables_number       1

loop_
  _symmetry_equiv_pos_as_xyz
  'x, y, z'

loop_
  _atom_site_type_symbol
  _atom_site_label
  _atom_site_symmetry_multiplicity
  _atom_site_fract_x
  _atom_site_fract_y
  _atom_site_fract_z
  _atom_site_occupancy
  _atom_site_charge
Zn  Zn1       1.0  0.47363  0.02529  0.29232  1.0000 0.8016296305
Zn  Zn2       1.0  0.46367  0.73687  0.37295  1.0000 0.8089448341
Zn  Zn3       1.0  0.75980  0.95865  0.40977  1.0000 0.8984033742
Zn  Zn4       1.0  0.02637  0.97471  0.79232  1.0000 0.8016296305
Zn  Zn5       1.0  0.03633  0.26313  0.87295  1.0000 0.8089448341
Zn  Zn6       1.0  0.74020  0.04135  0.90977  1.0000 0.8984033742
Zn  Zn7       1.0  0.52637  0.52529  0.20768  1.0000 0.8016296305
Zn  Zn8       1.0  0.53633  0.23687  0.12705  1.0000 0.8089448341
Zn  Zn9       1.0  0.24020  0.45865  0.09023  1.0000 0.8984033742
Zn  Zn10      1.0  0.97363  0.47471  0.70768  1.0000 0.8016296305
Zn  Zn11      1.0  0.96367  0.76313  0.62705  1.0000 0.8089448341
Zn  Zn12      1.0  0.25980  0.54135  0.59023  1.0000 0.8984033742
H   H1        1.0  0.69390  0.13500  0.34790  1.0000 0.3856224992
H   H2        1.0  0.67810  0.76450  0.45110  1.0000 0.3840430506
H   H3        1.0  0.07680  0.08470  0.33140  1.0000 0.1142475583
H   H4        1.0  0.06760  0.77740  0.41780  1.0000 0.1189933546
H   H5        1.0  0.29350  0.30990  0.39550  1.0000 0.1485199087
H   H6        1.0  0.80610  0.86500  0.84790  1.0000 0.3840430506
H   H7        1.0  0.82190  0.23550  0.95110  1.0000 0.3840430506
H   H8        1.0  0.42320  0.91530  0.83140  1.0000 0.1142475583
H   H9        1.0  0.43240  0.22260  0.91780  1.0000 0.1189933546
H   H10       1.0  0.20650  0.69010  0.89550  1.0000 0.1485199087
H   H11       1.0  0.30610  0.63500  0.15210  1.0000 0.3840430506
H   H12       1.0  0.32190  0.26450  0.04890  1.0000 0.3840430506
H   H13       1.0  0.92320  0.58470  0.16860  1.0000 0.1142475583
H   H14       1.0  0.93240  0.27740  0.08220  1.0000 0.1189933546
H   H15       1.0  0.70650  0.80990  0.10450  1.0000 0.1485199087
H   H16       1.0  0.19390  0.36500  0.65210  1.0000 0.3856224992
H   H17       1.0  0.17810  0.73550  0.54890  1.0000 0.3840430506
H   H18       1.0  0.57680  0.41530  0.66860  1.0000 0.1142475583
H   H19       1.0  0.56760  0.72260  0.58220  1.0000 0.1189933546
H   H20       1.0  0.79350  0.19010  0.60450  1.0000 0.1485199087
C   C1        1.0  0.10950  0.00990  0.34720  1.0000 0.1485199087
C   C2        1.0  0.10440  0.84320  0.39420  1.0000 0.1588885315
C   C3        1.0  0.33030  0.54780  0.45860  1.0000 0.5528265663
C   C4        1.0  0.36080  0.49220  0.39600  1.0000 0.03432517
C   C5        1.0  0.33600  0.37620  0.37370  1.0000 -0.2187829003
C   C6        1.0  0.38920  0.38240  0.31150  1.0000 0.0174802743
C   C7        1.0  0.39700  0.28940  0.26150  1.0000 0.5756091156
C   C8        1.0  0.39050  0.99010  0.84720  1.0000 0.1485199087
C   C9        1.0  0.39560  0.15680  0.89420  1.0000 0.1588885315
C   C10       1.0  0.16970  0.45220  0.95860  1.0000 0.5528265663
C   C11       1.0  0.13920  0.50780  0.89600  1.0000 0.03432517
C   C12       1.0  0.16400  0.62380  0.87370  1.0000 -0.2187829003
C   C13       1.0  0.11080  0.61760  0.81150  1.0000 0.0174802743
C   C14       1.0  0.10300  0.71060  0.76150  1.0000 0.5756091156
C   C15       1.0  0.89050  0.50990  0.15280  1.0000 0.1485199087
C   C16       1.0  0.89560  0.34320  0.10580  1.0000 0.1588885315
C   C17       1.0  0.66970  0.04780  0.04140  1.0000 0.5528265663
C   C18       1.0  0.63920  0.99220  0.10400  1.0000 0.03432517
C   C19       1.0  0.66400  0.87620  0.12630  1.0000 -0.2187829003
C   C20       1.0  0.61080  0.88240  0.18850  1.0000 0.0174802743
C   C21       1.0  0.60300  0.78940  0.23850  1.0000 0.5756091156
C   C22       1.0  0.60950  0.49010  0.65280  1.0000 0.1485199087
C   C23       1.0  0.60440  0.65680  0.60580  1.0000 0.1588885315
C   C24       1.0  0.83030  0.95220  0.54140  1.0000 0.5528265663
C   C25       1.0  0.86080  0.00780  0.60400  1.0000 0.03432517
C   C26       1.0  0.83600  0.12380  0.62630  1.0000 -0.2187829003
C   C27       1.0  0.88920  0.11760  0.68850  1.0000 0.0174802743
C   C28       1.0  0.89700  0.21060  0.73850  1.0000 0.5756091156
N   N1        1.0  0.00680  0.93910  0.38220  1.0000 -0.3442717812
N   N2        1.0  0.26100  0.96120  0.33780  1.0000 -0.1900099631
N   N3        1.0  0.25890  0.85220  0.36890  1.0000 -0.1957480929
N   N4        1.0  0.42520  0.56300  0.34951  1.0000 -0.2057495512
N   N5        1.0  0.44200  0.49450  0.29708  1.0000 -0.1900099631
N   N6        1.0  0.49320  0.06090  0.88220  1.0000 -0.3442717812
N   N7        1.0  0.23900  0.03880  0.83780  1.0000 -0.1900099631
N   N8        1.0  0.24110  0.14780  0.86890  1.0000 -0.1957480929
N   N9        1.0  0.07480  0.43700  0.84951  1.0000 -0.2057495512
N   N10       1.0  0.05800  0.50550  0.79708  1.0000 -0.1900099631
N   N11       1.0  0.99320  0.43910  0.11780  1.0000 -0.3442717812
N   N12       1.0  0.73900  0.46120  0.16220  1.0000 -0.1900099631
N   N13       1.0  0.74110  0.35220  0.13110  1.0000 -0.1957480929
N   N14       1.0  0.57480  0.06300  0.15049  1.0000 -0.2057495512
N   N15       1.0  0.55800  0.99450  0.20292  1.0000 -0.1900099631
N   N16       1.0  0.50680  0.56090  0.61780  1.0000 -0.3442717812
N   N17       1.0  0.76100  0.53880  0.66220  1.0000 -0.1900099631
N   N18       1.0  0.75890  0.64780  0.63110  1.0000 -0.1957480929
N   N19       1.0  0.92520  0.93700  0.65049  1.0000 -0.2057495512
N   N20       1.0  0.94200  0.00550  0.70292  1.0000 -0.1900099631
O   O1        1.0  0.63930  0.06600  0.35556  1.0000 -0.8082633338
O   O2        1.0  0.65780  0.80120  0.41741  1.0000 -0.8082633338
O   O3        1.0  0.35690  0.65790  0.46362  1.0000 -0.5581832103
O   O4        1.0  0.27820  0.47870  0.50243  1.0000 -0.5355772696
O   O5        1.0  0.34910  0.18480  0.27388  1.0000 -0.5311389289
O   O6        1.0  0.45390  0.32530  0.20867  1.0000 -0.5581832103
O   O7        1.0  0.86070  0.93400  0.85556  1.0000 -0.8168116929
O   O8        1.0  0.84220  0.19880  0.91741  1.0000 -0.8082633338
O   O9        1.0  0.14310  0.34210  0.96362  1.0000 -0.5581832103
O   O10       1.0  0.22180  0.52130  0.00243  1.0000 -0.5311389289
O   O11       1.0  0.15090  0.81520  0.77388  1.0000 -0.5311389289
O   O12       1.0  0.04610  0.67470  0.70867  1.0000 -0.5581832103
O   O13       1.0  0.36070  0.56600  0.14444  1.0000 -0.8168116929
O   O14       1.0  0.34220  0.30120  0.08259  1.0000 -0.8082633338
O   O15       1.0  0.64310  0.15790  0.03638  1.0000 -0.5581832103
O   O16       1.0  0.72180  0.97870  0.99757  1.0000 -0.5311389289
O   O17       1.0  0.65090  0.68480  0.22612  1.0000 -0.5311389289
O   O18       1.0  0.54610  0.82530  0.29133  1.0000 -0.5581832103
O   O19       1.0  0.13930  0.43400  0.64444  1.0000 -0.8168116929
O   O20       1.0  0.15780  0.69880  0.58259  1.0000 -0.8082633338
O   O21       1.0  0.85690  0.84210  0.53638  1.0000 -0.5581832103
O   O22       1.0  0.77820  0.02130  0.49757  1.0000 -0.5311389289
O   O23       1.0  0.84910  0.31520  0.72612  1.0000 -0.5311389289
O   O24       1.0  0.95390  0.17470  0.79133  1.0000 -0.5581832103
