# DDEC6 charges by PACMAN v1.1 (https://github.com/mtap-research/PACMAN-charge/)
data_2021[Eu][fcu]3[ASR]3
_chemical_formula_sum              "Eu6 C48 O56"
_cell_length_a       15.3051
_cell_length_b       15.3051
_cell_length_c       15.3051
_cell_angle_alpha    120.005
_cell_angle_beta     120.005
_cell_angle_gamma    89.9907

_symmetry_space_group_name_H-M    "P 1"
_symmetry_Int_Tables_number       1

loop_
  _symmetry_equiv_pos_as_xyz
  'x, y, z'

loop_
  _atom_site_type_symbol
  _atom_site_label
  _atom_site_symmetry_multiplicity
  _atom_site_fract_x
  _atom_site_fract_y
  _atom_site_fract_z
  _atom_site_occupancy
  _atom_site_charge
Eu  Eu1       1.0  0.12881  0.12882  0.25763  1.0000 2.2381956919
Eu  Eu2       1.0  0.87119  0.87118  0.74237  1.0000 2.2381956919
Eu  Eu3       1.0  0.12882  0.87119  0.00001  1.0000 2.2381956919
Eu  Eu4       1.0  0.87118  0.12881  0.99999  1.0000 2.2348024233
Eu  Eu5       1.0  0.12881  0.12881  0.00000  1.0000 2.2381956919
Eu  Eu6       1.0  0.87119  0.87119  0.00000  1.0000 2.2381956919
C   C1        1.0  0.31050  0.31080  0.31050  1.0000 0.7245206742
C   C2        1.0  0.40940  0.40950  0.40950  1.0000 -0.1482855228
C   C3        1.0  0.45420  0.45450  0.37610  1.0000 0.2106374374
C   C4        1.0  0.54570  0.54600  0.46710  1.0000 0.2205607912
C   C5        1.0  0.00030  0.00000  0.68950  1.0000 0.7245206742
C   C6        1.0  0.00000  0.99990  0.59050  1.0000 -0.1482855228
C   C7        1.0  0.07840  0.07810  0.62390  1.0000 0.2106374374
C   C8        1.0  0.07890  0.07860  0.53290  1.0000 0.2205607912
C   C9        1.0  0.31080  0.00030  0.00030  1.0000 0.7245206742
C   C10       1.0  0.40950  0.00000  0.00010  1.0000 -0.1482855228
C   C11       1.0  0.45450  0.07840  0.00030  1.0000 0.2106374374
C   C12       1.0  0.54600  0.07890  0.00030  1.0000 0.2205607912
C   C13       1.0  0.00000  0.31050  0.99970  1.0000 0.7245206742
C   C14       1.0  0.99990  0.40940  0.99990  1.0000 -0.1482855228
C   C15       1.0  0.07810  0.45420  0.99970  1.0000 0.2106374374
C   C16       1.0  0.07860  0.54570  0.99970  1.0000 0.2205607912
C   C17       1.0  0.68950  0.68920  0.68950  1.0000 0.7245206742
C   C18       1.0  0.59060  0.59050  0.59050  1.0000 -0.1482855228
C   C19       1.0  0.54580  0.54550  0.62390  1.0000 0.2106374374
C   C20       1.0  0.45430  0.45400  0.53290  1.0000 0.2205607912
C   C21       1.0  0.99970  0.00000  0.31050  1.0000 0.7262705548
C   C22       1.0  1.00000  0.00010  0.40950  1.0000 -0.1482855228
C   C23       1.0  0.92160  0.92190  0.37610  1.0000 0.2106374374
C   C24       1.0  0.92110  0.92140  0.46710  1.0000 0.2205607912
C   C25       1.0  0.68920  0.99970  0.99970  1.0000 0.7245206742
C   C26       1.0  0.59050  0.00000  0.99990  1.0000 -0.1482855228
C   C27       1.0  0.54550  0.92160  0.99970  1.0000 0.2106374374
C   C28       1.0  0.45400  0.92110  0.99970  1.0000 0.2205607912
C   C29       1.0  0.00000  0.68950  0.00030  1.0000 0.7245206742
C   C30       1.0  0.00010  0.59060  0.00010  1.0000 -0.1482855228
C   C31       1.0  0.92190  0.54580  0.00030  1.0000 0.2106374374
C   C32       1.0  0.92140  0.45430  0.00030  1.0000 0.2205607912
C   C33       1.0  0.00000  0.31090  0.31090  1.0000 0.7245206742
C   C34       1.0  0.00010  0.40920  0.40930  1.0000 -0.1567360328
C   C35       1.0  0.07820  0.45410  0.53230  1.0000 0.2205607912
C   C36       1.0  0.07860  0.54590  0.62450  1.0000 0.2205607912
C   C37       1.0  1.00000  0.68910  0.68910  1.0000 0.7262705548
C   C38       1.0  0.99990  0.59080  0.59070  1.0000 -0.1567360328
C   C39       1.0  0.92180  0.54590  0.46770  1.0000 0.2205607912
C   C40       1.0  0.92140  0.45410  0.37550  1.0000 0.2205607912
C   C41       1.0  0.31090  0.00000  0.31090  1.0000 0.7262705548
C   C42       1.0  0.40920  0.99990  0.40910  1.0000 -0.1567360328
C   C43       1.0  0.45410  0.92180  0.37590  1.0000 0.2205607912
C   C44       1.0  0.54590  0.92140  0.46730  1.0000 0.2205607912
C   C45       1.0  0.68910  0.00000  0.68910  1.0000 0.7262705548
C   C46       1.0  0.59080  0.00010  0.59090  1.0000 -0.1567360328
C   C47       1.0  0.54590  0.07820  0.62410  1.0000 0.2205607912
C   C48       1.0  0.45410  0.07860  0.53270  1.0000 0.2205607912
O   O1        1.0  0.94097  0.05916  0.11819  1.0000 -0.9257638556
O   O2        1.0  0.27391  0.27391  0.34740  1.0000 -0.5372658835
O   O3        1.0  0.27393  0.27383  0.20050  1.0000 -0.5334710396
O   O4        1.0  0.58150  0.58170  0.42380  1.0000 -0.219110927
O   O5        1.0  0.41850  0.41800  0.25970  1.0000 -0.219110927
O   O6        1.0  0.94097  0.82278  0.88181  1.0000 -0.9257638556
O   O7        1.0  0.92651  0.92651  0.65260  1.0000 -0.5372658835
O   O8        1.0  0.07333  0.07343  0.79950  1.0000 -0.5334710396
O   O9        1.0  0.15790  0.15770  0.57620  1.0000 -0.219110927
O   O10       1.0  0.15830  0.15880  0.74030  1.0000 -0.219110927
O   O11       1.0  0.05916  0.94097  0.11819  1.0000 -0.9257638556
O   O12       1.0  0.27391  0.92651  0.00000  1.0000 -0.5372658835
O   O13       1.0  0.27383  0.07333  0.99990  1.0000 -0.5334710396
O   O14       1.0  0.58170  0.15790  0.00020  1.0000 -0.219110927
O   O15       1.0  0.41800  0.15830  0.99950  1.0000 -0.219110927
O   O16       1.0  0.82278  0.94097  0.88181  1.0000 -0.9257638556
O   O17       1.0  0.92651  0.27391  0.00000  1.0000 -0.5372658835
O   O18       1.0  0.07343  0.27393  0.00010  1.0000 -0.5334710396
O   O19       1.0  0.15770  0.58150  0.99980  1.0000 -0.219110927
O   O20       1.0  0.15880  0.41850  0.00050  1.0000 -0.219110927
O   O21       1.0  0.05903  0.94084  0.88181  1.0000 -0.9257638556
O   O22       1.0  0.72609  0.72609  0.65260  1.0000 -0.5372658835
O   O23       1.0  0.72607  0.72617  0.79950  1.0000 -0.5334710396
O   O24       1.0  0.41850  0.41830  0.57620  1.0000 -0.219110927
O   O25       1.0  0.58150  0.58200  0.74030  1.0000 -0.219110927
O   O26       1.0  0.05903  0.17722  0.11819  1.0000 -0.9400200264
O   O27       1.0  0.07349  0.07349  0.34740  1.0000 -0.5372658835
O   O28       1.0  0.92667  0.92657  0.20050  1.0000 -0.5372658835
O   O29       1.0  0.84210  0.84230  0.42380  1.0000 -0.219110927
O   O30       1.0  0.84170  0.84120  0.25970  1.0000 -0.219110927
O   O31       1.0  0.94084  0.05903  0.88181  1.0000 -0.9257638556
O   O32       1.0  0.72609  0.07349  0.00000  1.0000 -0.5372658835
O   O33       1.0  0.72617  0.92667  0.00010  1.0000 -0.5334710396
O   O34       1.0  0.41830  0.84210  0.99980  1.0000 -0.219110927
O   O35       1.0  0.58200  0.84170  0.00050  1.0000 -0.219110927
O   O36       1.0  0.17722  0.05903  0.11819  1.0000 -0.9257638556
O   O37       1.0  0.07349  0.72609  0.00000  1.0000 -0.5372658835
O   O38       1.0  0.92657  0.72607  0.99990  1.0000 -0.5334710396
O   O39       1.0  0.84230  0.41850  0.00020  1.0000 -0.219110927
O   O40       1.0  0.84120  0.58150  0.99950  1.0000 -0.219110927
O   O41       1.0  0.07350  0.27400  0.34750  1.0000 -0.5334710396
O   O42       1.0  0.92670  0.27400  0.20070  1.0000 -0.5334710396
O   O43       1.0  0.15760  0.58120  0.73880  1.0000 -0.219110927
O   O44       1.0  0.15760  0.41890  0.57650  1.0000 -0.219110927
O   O45       1.0  0.92650  0.72600  0.65250  1.0000 -0.5372658835
O   O46       1.0  0.07330  0.72600  0.79930  1.0000 -0.5334710396
O   O47       1.0  0.84240  0.41880  0.26120  1.0000 -0.219110927
O   O48       1.0  0.84240  0.58110  0.42350  1.0000 -0.219110927
O   O49       1.0  0.27400  0.92650  0.20050  1.0000 -0.5372658835
O   O50       1.0  0.27400  0.07330  0.34730  1.0000 -0.5334710396
O   O51       1.0  0.58120  0.84240  0.42360  1.0000 -0.219110927
O   O52       1.0  0.41890  0.84240  0.26130  1.0000 -0.219110927
O   O53       1.0  0.72600  0.07350  0.79950  1.0000 -0.5372658835
O   O54       1.0  0.72600  0.92670  0.65270  1.0000 -0.5334710396
O   O55       1.0  0.41880  0.15760  0.57640  1.0000 -0.219110927
O   O56       1.0  0.58110  0.15760  0.73870  1.0000 -0.219110927
