# DDEC6 charges by PACMAN v1.1 (https://github.com/mtap-research/PACMAN-charge/)
data_2021[Zn][scu]3[ASR]2
_chemical_formula_sum              "Zn20 H200 C352 O72"
_cell_length_a       16.1783
_cell_length_b       24.8432
_cell_length_c       26.2068
_cell_angle_alpha    90
_cell_angle_beta     90
_cell_angle_gamma    90

_symmetry_space_group_name_H-M    "P 1"
_symmetry_Int_Tables_number       1

loop_
  _symmetry_equiv_pos_as_xyz
  'x, y, z'

loop_
  _atom_site_type_symbol
  _atom_site_label
  _atom_site_symmetry_multiplicity
  _atom_site_fract_x
  _atom_site_fract_y
  _atom_site_fract_z
  _atom_site_occupancy
  _atom_site_charge
Zn  Zn1       1.0  0.81238  0.46316  0.72751  1.0000 0.9294735155
Zn  Zn2       1.0  0.85571  0.59490  0.74423  1.0000 0.9798919521
Zn  Zn3       1.0  0.68762  0.03684  0.22751  1.0000 0.9294735155
Zn  Zn4       1.0  0.64429  0.90510  0.24423  1.0000 0.9798919521
Zn  Zn5       1.0  0.18762  0.46316  0.77249  1.0000 0.9294735155
Zn  Zn6       1.0  0.14429  0.59490  0.75577  1.0000 0.9798919521
Zn  Zn7       1.0  0.31238  0.03684  0.27249  1.0000 0.9294735155
Zn  Zn8       1.0  0.35571  0.90510  0.25577  1.0000 0.9798919521
Zn  Zn9       1.0  0.18762  0.53684  0.27249  1.0000 0.9294735155
Zn  Zn10      1.0  0.14429  0.40510  0.25577  1.0000 0.9798919521
Zn  Zn11      1.0  0.31238  0.96316  0.77249  1.0000 0.9294735155
Zn  Zn12      1.0  0.35571  0.09490  0.75577  1.0000 0.9798919521
Zn  Zn13      1.0  0.81238  0.53684  0.22751  1.0000 0.9294735155
Zn  Zn14      1.0  0.85571  0.40510  0.24423  1.0000 0.9798919521
Zn  Zn15      1.0  0.68762  0.96316  0.72751  1.0000 0.9294735155
Zn  Zn16      1.0  0.64429  0.09490  0.74423  1.0000 0.9798919521
Zn  Zn17      1.0  0.00000  0.51021  0.75000  1.0000 0.9798919521
Zn  Zn18      1.0  0.50000  0.98979  0.25000  1.0000 0.9798919521
Zn  Zn19      1.0  0.00000  0.48979  0.25000  1.0000 0.9798919521
Zn  Zn20      1.0  0.50000  0.01021  0.75000  1.0000 0.9798919521
H   H1        1.0  0.86970  0.51310  0.79530  1.0000 0.3940766975
H   H2        1.0  0.69645  0.48596  0.58061  1.0000 0.1182909099
H   H3        1.0  0.61535  0.51182  0.51120  1.0000 0.1110505438
H   H4        1.0  0.61920  0.66594  0.56113  1.0000 0.1110505438
H   H5        1.0  0.70321  0.64067  0.62908  1.0000 0.1182909099
H   H6        1.0  0.71669  0.63050  0.35587  1.0000 0.1110505438
H   H7        1.0  0.65508  0.65545  0.43295  1.0000 0.1110505438
H   H8        1.0  0.51163  0.52260  0.42727  1.0000 0.1110505438
H   H9        1.0  0.57161  0.49842  0.35002  1.0000 0.1110505438
H   H10       1.0  0.40617  0.58365  0.41477  1.0000 0.1110505438
H   H11       1.0  0.30558  0.61686  0.35939  1.0000 0.1274163536
H   H12       1.0  0.25837  0.70500  0.36785  1.0000 0.1110505438
H   H13       1.0  0.30463  0.75839  0.43515  1.0000 0.1110505438
H   H14       1.0  0.35510  0.74677  0.61043  1.0000 0.1110505438
H   H15       1.0  0.35909  0.68654  0.67833  1.0000 0.1182909099
H   H16       1.0  0.41913  0.60161  0.66794  1.0000 0.1182909099
H   H17       1.0  0.47119  0.57611  0.58870  1.0000 0.1110505438
H   H18       1.0  0.38768  0.91327  0.39080  1.0000 0.1182909099
H   H19       1.0  0.35759  0.87111  0.46798  1.0000 0.1182909099
H   H20       1.0  0.54467  0.76684  0.44440  1.0000 0.1182909099
H   H21       1.0  0.57964  0.81207  0.36956  1.0000 0.1274163536
H   H22       1.0  0.62449  0.83812  0.62583  1.0000 0.1110505438
H   H23       1.0  0.57621  0.78566  0.55839  1.0000 0.1182909099
H   H24       1.0  0.35040  0.85371  0.57233  1.0000 0.1182909099
H   H25       1.0  0.39833  0.90578  0.64022  1.0000 0.1274163536
H   H26       1.0  0.63030  0.98690  0.29530  1.0000 0.3940766975
H   H27       1.0  0.80355  0.01404  0.08061  1.0000 0.1182909099
H   H28       1.0  0.88465  0.98818  0.01120  1.0000 0.1110505438
H   H29       1.0  0.88080  0.83406  0.06113  1.0000 0.1110505438
H   H30       1.0  0.79679  0.85933  0.12908  1.0000 0.1182909099
H   H31       1.0  0.78331  0.86950  0.85587  1.0000 0.1110505438
H   H32       1.0  0.84492  0.84455  0.93295  1.0000 0.1110505438
H   H33       1.0  0.98837  0.97740  0.92727  1.0000 0.1110505438
H   H34       1.0  0.92839  0.00158  0.85002  1.0000 0.1110505438
H   H35       1.0  0.09383  0.91635  0.91477  1.0000 0.1110505438
H   H36       1.0  0.19442  0.88314  0.85939  1.0000 0.1274163536
H   H37       1.0  0.24163  0.79500  0.86785  1.0000 0.1110505438
H   H38       1.0  0.19537  0.74161  0.93515  1.0000 0.1110505438
H   H39       1.0  0.14490  0.75323  0.11043  1.0000 0.1110505438
H   H40       1.0  0.14091  0.81346  0.17833  1.0000 0.1182909099
H   H41       1.0  0.08087  0.89839  0.16794  1.0000 0.1182909099
H   H42       1.0  0.02881  0.92389  0.08870  1.0000 0.1110505438
H   H43       1.0  0.11232  0.58673  0.89080  1.0000 0.1182909099
H   H44       1.0  0.14241  0.62889  0.96798  1.0000 0.1182909099
H   H45       1.0  0.95533  0.73316  0.94440  1.0000 0.1182909099
H   H46       1.0  0.92036  0.68793  0.86956  1.0000 0.1274163536
H   H47       1.0  0.87551  0.66188  0.12583  1.0000 0.1110505438
H   H48       1.0  0.92379  0.71434  0.05839  1.0000 0.1182909099
H   H49       1.0  0.14960  0.64629  0.07233  1.0000 0.1182909099
H   H50       1.0  0.10167  0.59422  0.14022  1.0000 0.1274163536
H   H51       1.0  0.13030  0.51310  0.70470  1.0000 0.3940766975
H   H52       1.0  0.30355  0.48596  0.91939  1.0000 0.1182909099
H   H53       1.0  0.38465  0.51182  0.98880  1.0000 0.1110505438
H   H54       1.0  0.38080  0.66594  0.93887  1.0000 0.1110505438
H   H55       1.0  0.29679  0.64067  0.87092  1.0000 0.1182909099
H   H56       1.0  0.28331  0.63050  0.14413  1.0000 0.1110505438
H   H57       1.0  0.34492  0.65545  0.06705  1.0000 0.1110505438
H   H58       1.0  0.48837  0.52260  0.07273  1.0000 0.1110505438
H   H59       1.0  0.42839  0.49842  0.14998  1.0000 0.1110505438
H   H60       1.0  0.59383  0.58365  0.08523  1.0000 0.1110505438
H   H61       1.0  0.69442  0.61686  0.14061  1.0000 0.1274163536
H   H62       1.0  0.74163  0.70500  0.13215  1.0000 0.1110505438
H   H63       1.0  0.69537  0.75839  0.06485  1.0000 0.1110505438
H   H64       1.0  0.64490  0.74677  0.88957  1.0000 0.1110505438
H   H65       1.0  0.64091  0.68654  0.82167  1.0000 0.1182909099
H   H66       1.0  0.58087  0.60161  0.83206  1.0000 0.1182909099
H   H67       1.0  0.52881  0.57611  0.91130  1.0000 0.1110505438
H   H68       1.0  0.61232  0.91327  0.10920  1.0000 0.1182909099
H   H69       1.0  0.64241  0.87111  0.03202  1.0000 0.1182909099
H   H70       1.0  0.45533  0.76684  0.05560  1.0000 0.1182909099
H   H71       1.0  0.42036  0.81207  0.13044  1.0000 0.1274163536
H   H72       1.0  0.37551  0.83812  0.87417  1.0000 0.1110505438
H   H73       1.0  0.42379  0.78566  0.94161  1.0000 0.1182909099
H   H74       1.0  0.64960  0.85371  0.92767  1.0000 0.1182909099
H   H75       1.0  0.60167  0.90578  0.85978  1.0000 0.1274163536
H   H76       1.0  0.36970  0.98690  0.20470  1.0000 0.3940766975
H   H77       1.0  0.19645  0.01404  0.41939  1.0000 0.1182909099
H   H78       1.0  0.11535  0.98818  0.48880  1.0000 0.1110505438
H   H79       1.0  0.11920  0.83406  0.43887  1.0000 0.1110505438
H   H80       1.0  0.20321  0.85933  0.37092  1.0000 0.1182909099
H   H81       1.0  0.21669  0.86950  0.64413  1.0000 0.1110505438
H   H82       1.0  0.15508  0.84455  0.56705  1.0000 0.1110505438
H   H83       1.0  0.01163  0.97740  0.57273  1.0000 0.1110505438
H   H84       1.0  0.07161  0.00158  0.64998  1.0000 0.1110505438
H   H85       1.0  0.90617  0.91635  0.58523  1.0000 0.1110505438
H   H86       1.0  0.80558  0.88314  0.64061  1.0000 0.1274163536
H   H87       1.0  0.75837  0.79500  0.63215  1.0000 0.1110505438
H   H88       1.0  0.80463  0.74161  0.56485  1.0000 0.1110505438
H   H89       1.0  0.85510  0.75323  0.38957  1.0000 0.1110505438
H   H90       1.0  0.85909  0.81346  0.32167  1.0000 0.1182909099
H   H91       1.0  0.91913  0.89839  0.33206  1.0000 0.1182909099
H   H92       1.0  0.97119  0.92389  0.41130  1.0000 0.1110505438
H   H93       1.0  0.88768  0.58673  0.60920  1.0000 0.1182909099
H   H94       1.0  0.85759  0.62889  0.53202  1.0000 0.1182909099
H   H95       1.0  0.04467  0.73316  0.55560  1.0000 0.1182909099
H   H96       1.0  0.07964  0.68793  0.63044  1.0000 0.1274163536
H   H97       1.0  0.12449  0.66188  0.37417  1.0000 0.1110505438
H   H98       1.0  0.07621  0.71434  0.44161  1.0000 0.1182909099
H   H99       1.0  0.85040  0.64629  0.42767  1.0000 0.1182909099
H   H100      1.0  0.89833  0.59422  0.35978  1.0000 0.1274163536
H   H101      1.0  0.13030  0.48690  0.20470  1.0000 0.3940766975
H   H102      1.0  0.30355  0.51404  0.41939  1.0000 0.1182909099
H   H103      1.0  0.38465  0.48818  0.48880  1.0000 0.1110505438
H   H104      1.0  0.38080  0.33406  0.43887  1.0000 0.1110505438
H   H105      1.0  0.29679  0.35933  0.37092  1.0000 0.1182909099
H   H106      1.0  0.28331  0.36950  0.64413  1.0000 0.1110505438
H   H107      1.0  0.34492  0.34455  0.56705  1.0000 0.1110505438
H   H108      1.0  0.48837  0.47740  0.57273  1.0000 0.1110505438
H   H109      1.0  0.42839  0.50158  0.64998  1.0000 0.1110505438
H   H110      1.0  0.59383  0.41635  0.58523  1.0000 0.1110505438
H   H111      1.0  0.69442  0.38314  0.64061  1.0000 0.1274163536
H   H112      1.0  0.74163  0.29500  0.63215  1.0000 0.1110505438
H   H113      1.0  0.69537  0.24161  0.56485  1.0000 0.1110505438
H   H114      1.0  0.64490  0.25323  0.38957  1.0000 0.1110505438
H   H115      1.0  0.64091  0.31346  0.32167  1.0000 0.1182909099
H   H116      1.0  0.58087  0.39839  0.33206  1.0000 0.1182909099
H   H117      1.0  0.52881  0.42389  0.41130  1.0000 0.1110505438
H   H118      1.0  0.61232  0.08673  0.60920  1.0000 0.1182909099
H   H119      1.0  0.64241  0.12889  0.53202  1.0000 0.1182909099
H   H120      1.0  0.45533  0.23316  0.55560  1.0000 0.1182909099
H   H121      1.0  0.42036  0.18793  0.63044  1.0000 0.1274163536
H   H122      1.0  0.37551  0.16188  0.37417  1.0000 0.1110505438
H   H123      1.0  0.42379  0.21434  0.44161  1.0000 0.1182909099
H   H124      1.0  0.64960  0.14629  0.42767  1.0000 0.1182909099
H   H125      1.0  0.60167  0.09422  0.35978  1.0000 0.1274163536
H   H126      1.0  0.36970  0.01310  0.70470  1.0000 0.3940766975
H   H127      1.0  0.19645  0.98596  0.91939  1.0000 0.1182909099
H   H128      1.0  0.11535  0.01182  0.98880  1.0000 0.1110505438
H   H129      1.0  0.11920  0.16594  0.93887  1.0000 0.1110505438
H   H130      1.0  0.20321  0.14067  0.87092  1.0000 0.1182909099
H   H131      1.0  0.21669  0.13050  0.14413  1.0000 0.1110505438
H   H132      1.0  0.15508  0.15545  0.06705  1.0000 0.1110505438
H   H133      1.0  0.01163  0.02260  0.07273  1.0000 0.1110505438
H   H134      1.0  0.07161  0.99842  0.14998  1.0000 0.1110505438
H   H135      1.0  0.90617  0.08365  0.08523  1.0000 0.1110505438
H   H136      1.0  0.80558  0.11686  0.14061  1.0000 0.1274163536
H   H137      1.0  0.75837  0.20500  0.13215  1.0000 0.1110505438
H   H138      1.0  0.80463  0.25839  0.06485  1.0000 0.1110505438
H   H139      1.0  0.85510  0.24677  0.88957  1.0000 0.1110505438
H   H140      1.0  0.85909  0.18654  0.82167  1.0000 0.1182909099
H   H141      1.0  0.91913  0.10161  0.83206  1.0000 0.1182909099
H   H142      1.0  0.97119  0.07611  0.91130  1.0000 0.1110505438
H   H143      1.0  0.88768  0.41327  0.10920  1.0000 0.1182909099
H   H144      1.0  0.85759  0.37111  0.03202  1.0000 0.1182909099
H   H145      1.0  0.04467  0.26684  0.05560  1.0000 0.1182909099
H   H146      1.0  0.07964  0.31207  0.13044  1.0000 0.1274163536
H   H147      1.0  0.12449  0.33812  0.87417  1.0000 0.1110505438
H   H148      1.0  0.07621  0.28566  0.94161  1.0000 0.1182909099
H   H149      1.0  0.85040  0.35371  0.92767  1.0000 0.1182909099
H   H150      1.0  0.89833  0.40578  0.85978  1.0000 0.1274163536
H   H151      1.0  0.86970  0.48690  0.29530  1.0000 0.3940766975
H   H152      1.0  0.69645  0.51404  0.08061  1.0000 0.1182909099
H   H153      1.0  0.61535  0.48818  0.01120  1.0000 0.1110505438
H   H154      1.0  0.61920  0.33406  0.06113  1.0000 0.1110505438
H   H155      1.0  0.70321  0.35933  0.12908  1.0000 0.1182909099
H   H156      1.0  0.71669  0.36950  0.85587  1.0000 0.1110505438
H   H157      1.0  0.65508  0.34455  0.93295  1.0000 0.1110505438
H   H158      1.0  0.51163  0.47740  0.92727  1.0000 0.1110505438
H   H159      1.0  0.57161  0.50158  0.85002  1.0000 0.1110505438
H   H160      1.0  0.40617  0.41635  0.91477  1.0000 0.1110505438
H   H161      1.0  0.30558  0.38314  0.85939  1.0000 0.1274163536
H   H162      1.0  0.25837  0.29500  0.86785  1.0000 0.1110505438
H   H163      1.0  0.30463  0.24161  0.93515  1.0000 0.1110505438
H   H164      1.0  0.35510  0.25323  0.11043  1.0000 0.1110505438
H   H165      1.0  0.35909  0.31346  0.17833  1.0000 0.1182909099
H   H166      1.0  0.41913  0.39839  0.16794  1.0000 0.1182909099
H   H167      1.0  0.47119  0.42389  0.08870  1.0000 0.1110505438
H   H168      1.0  0.38768  0.08673  0.89080  1.0000 0.1182909099
H   H169      1.0  0.35759  0.12889  0.96798  1.0000 0.1182909099
H   H170      1.0  0.54467  0.23316  0.94440  1.0000 0.1182909099
H   H171      1.0  0.57964  0.18793  0.86956  1.0000 0.1274163536
H   H172      1.0  0.62449  0.16188  0.12583  1.0000 0.1110505438
H   H173      1.0  0.57621  0.21434  0.05839  1.0000 0.1182909099
H   H174      1.0  0.35040  0.14629  0.07233  1.0000 0.1182909099
H   H175      1.0  0.39833  0.09422  0.14022  1.0000 0.1274163536
H   H176      1.0  0.63030  0.01310  0.79530  1.0000 0.3940766975
H   H177      1.0  0.80355  0.98596  0.58061  1.0000 0.1182909099
H   H178      1.0  0.88465  0.01182  0.51120  1.0000 0.1110505438
H   H179      1.0  0.88080  0.16594  0.56113  1.0000 0.1110505438
H   H180      1.0  0.79679  0.14067  0.62908  1.0000 0.1182909099
H   H181      1.0  0.78331  0.13050  0.35587  1.0000 0.1110505438
H   H182      1.0  0.84492  0.15545  0.43295  1.0000 0.1110505438
H   H183      1.0  0.98837  0.02260  0.42727  1.0000 0.1110505438
H   H184      1.0  0.92839  0.99842  0.35002  1.0000 0.1110505438
H   H185      1.0  0.09383  0.08365  0.41477  1.0000 0.1110505438
H   H186      1.0  0.19442  0.11686  0.35939  1.0000 0.1274163536
H   H187      1.0  0.24163  0.20500  0.36785  1.0000 0.1110505438
H   H188      1.0  0.19537  0.25839  0.43515  1.0000 0.1110505438
H   H189      1.0  0.14490  0.24677  0.61043  1.0000 0.1110505438
H   H190      1.0  0.14091  0.18654  0.67833  1.0000 0.1182909099
H   H191      1.0  0.08087  0.10161  0.66794  1.0000 0.1182909099
H   H192      1.0  0.02881  0.07611  0.58870  1.0000 0.1110505438
H   H193      1.0  0.11232  0.41327  0.39080  1.0000 0.1182909099
H   H194      1.0  0.14241  0.37111  0.46798  1.0000 0.1182909099
H   H195      1.0  0.95533  0.26684  0.44440  1.0000 0.1182909099
H   H196      1.0  0.92036  0.31207  0.36956  1.0000 0.1274163536
H   H197      1.0  0.87551  0.33812  0.62583  1.0000 0.1110505438
H   H198      1.0  0.92379  0.28566  0.55839  1.0000 0.1182909099
H   H199      1.0  0.14960  0.35371  0.57233  1.0000 0.1182909099
H   H200      1.0  0.10167  0.40578  0.64022  1.0000 0.1274163536
C   C1        1.0  0.75113  0.54355  0.65959  1.0000 0.5930612236
C   C2        1.0  0.70429  0.56026  0.61288  1.0000 -0.0295151197
C   C3        1.0  0.67972  0.52243  0.57709  1.0000 -0.0988823145
C   C4        1.0  0.63073  0.53774  0.53611  1.0000 -0.1585614868
C   C5        1.0  0.60388  0.59079  0.53115  1.0000 0.0807776236
C   C6        1.0  0.63348  0.62914  0.56556  1.0000 -0.1513412409
C   C7        1.0  0.68328  0.61420  0.60599  1.0000 -0.0988823145
C   C8        1.0  0.69198  0.54358  0.29744  1.0000 0.5572707168
C   C9        1.0  0.65110  0.56157  0.34593  1.0000 -0.0177981666
C   C10       1.0  0.67497  0.60840  0.37043  1.0000 -0.0988823145
C   C11       1.0  0.63812  0.62330  0.41635  1.0000 -0.1585614868
C   C12       1.0  0.57696  0.59165  0.43805  1.0000 0.0807776236
C   C13       1.0  0.55326  0.54484  0.41281  1.0000 -0.1585614868
C   C14       1.0  0.58932  0.53016  0.36703  1.0000 -0.0902656049
C   C15       1.0  0.54501  0.60566  0.48981  1.0000 -0.0295151197
C   C16       1.0  0.47292  0.63106  0.49923  1.0000 -0.0136466336
C   C17       1.0  0.41436  0.65044  0.45973  1.0000 0.0280800562
C   C18       1.0  0.38529  0.61905  0.41942  1.0000 -0.1337573045
C   C19       1.0  0.32621  0.63901  0.38606  1.0000 -0.0902656049
C   C20       1.0  0.29730  0.69100  0.39152  1.0000 -0.0988823145
C   C21       1.0  0.32495  0.72273  0.43141  1.0000 -0.1513412409
C   C22       1.0  0.38263  0.70259  0.46623  1.0000 0.0280800562
C   C23       1.0  0.40768  0.73259  0.51256  1.0000 -0.0136466336
C   C24       1.0  0.40981  0.69749  0.55815  1.0000 0.0280800562
C   C25       1.0  0.37852  0.71205  0.60575  1.0000 -0.1513412409
C   C26       1.0  0.38129  0.67642  0.64618  1.0000 -0.0902656049
C   C27       1.0  0.41644  0.62584  0.63994  1.0000 -0.0834437004
C   C28       1.0  0.44751  0.61083  0.59287  1.0000 -0.13981485
C   C29       1.0  0.44449  0.64607  0.55140  1.0000 0.0280800562
C   C30       1.0  0.43137  0.78458  0.51205  1.0000 -0.0295151197
C   C31       1.0  0.50910  0.89325  0.32326  1.0000 0.6027557887
C   C32       1.0  0.48656  0.86684  0.37267  1.0000 -0.0377848484
C   C33       1.0  0.42049  0.88382  0.40195  1.0000 -0.0902656049
C   C34       1.0  0.40175  0.85818  0.44747  1.0000 -0.1513412409
C   C35       1.0  0.44684  0.81391  0.46327  1.0000 0.0876044654
C   C36       1.0  0.51293  0.79701  0.43381  1.0000 -0.1513412409
C   C37       1.0  0.53338  0.82359  0.38903  1.0000 -0.0902656049
C   C38       1.0  0.55003  0.91514  0.67913  1.0000 0.5930612236
C   C39       1.0  0.51712  0.87805  0.63867  1.0000 -0.0295151197
C   C40       1.0  0.56884  0.84169  0.61478  1.0000 -0.0988823145
C   C41       1.0  0.53998  0.81034  0.57471  1.0000 -0.1513412409
C   C42       1.0  0.45864  0.81473  0.55828  1.0000 0.0876044654
C   C43       1.0  0.40630  0.85056  0.58303  1.0000 -0.1585614868
C   C44       1.0  0.43486  0.88181  0.62322  1.0000 -0.0902656049
C   C45       1.0  0.74887  0.95645  0.15959  1.0000 0.5930612236
C   C46       1.0  0.79571  0.93974  0.11288  1.0000 -0.0295151197
C   C47       1.0  0.82028  0.97757  0.07709  1.0000 -0.0988823145
C   C48       1.0  0.86927  0.96226  0.03611  1.0000 -0.1585614868
C   C49       1.0  0.89612  0.90921  0.03115  1.0000 0.0807776236
C   C50       1.0  0.86652  0.87086  0.06556  1.0000 -0.1513412409
C   C51       1.0  0.81672  0.88580  0.10599  1.0000 -0.0988823145
C   C52       1.0  0.80802  0.95642  0.79744  1.0000 0.5572707168
C   C53       1.0  0.84890  0.93843  0.84593  1.0000 -0.0177981666
C   C54       1.0  0.82503  0.89160  0.87043  1.0000 -0.0988823145
C   C55       1.0  0.86188  0.87670  0.91635  1.0000 -0.1585614868
C   C56       1.0  0.92304  0.90835  0.93805  1.0000 0.0807776236
C   C57       1.0  0.94674  0.95516  0.91281  1.0000 -0.1585614868
C   C58       1.0  0.91068  0.96984  0.86703  1.0000 -0.0902656049
C   C59       1.0  0.95499  0.89434  0.98981  1.0000 -0.0295151197
C   C60       1.0  0.02708  0.86894  0.99923  1.0000 -0.0136466336
C   C61       1.0  0.08564  0.84956  0.95973  1.0000 0.0280800562
C   C62       1.0  0.11471  0.88095  0.91942  1.0000 -0.1337573045
C   C63       1.0  0.17379  0.86099  0.88606  1.0000 -0.0902656049
C   C64       1.0  0.20270  0.80900  0.89152  1.0000 -0.0988823145
C   C65       1.0  0.17505  0.77727  0.93141  1.0000 -0.1513412409
C   C66       1.0  0.11737  0.79741  0.96623  1.0000 0.0280800562
C   C67       1.0  0.09232  0.76741  0.01256  1.0000 -0.0177981666
C   C68       1.0  0.09019  0.80251  0.05815  1.0000 0.0280800562
C   C69       1.0  0.12148  0.78795  0.10575  1.0000 -0.1513412409
C   C70       1.0  0.11871  0.82358  0.14618  1.0000 -0.0902656049
C   C71       1.0  0.08356  0.87416  0.13994  1.0000 -0.0834437004
C   C72       1.0  0.05249  0.88917  0.09287  1.0000 -0.13981485
C   C73       1.0  0.05551  0.85393  0.05140  1.0000 0.0280800562
C   C74       1.0  0.06863  0.71542  0.01205  1.0000 -0.0295151197
C   C75       1.0  0.99090  0.60675  0.82326  1.0000 0.6027557887
C   C76       1.0  0.01344  0.63316  0.87267  1.0000 -0.0377848484
C   C77       1.0  0.07951  0.61618  0.90195  1.0000 -0.0902656049
C   C78       1.0  0.09825  0.64182  0.94747  1.0000 -0.1513412409
C   C79       1.0  0.05316  0.68609  0.96327  1.0000 0.0876044654
C   C80       1.0  0.98707  0.70299  0.93381  1.0000 -0.1513412409
C   C81       1.0  0.96662  0.67641  0.88903  1.0000 -0.0902656049
C   C82       1.0  0.94997  0.58486  0.17913  1.0000 0.5930612236
C   C83       1.0  0.98288  0.62195  0.13867  1.0000 -0.0177981666
C   C84       1.0  0.93116  0.65831  0.11478  1.0000 -0.0988823145
C   C85       1.0  0.96002  0.68966  0.07471  1.0000 -0.1513412409
C   C86       1.0  0.04136  0.68527  0.05828  1.0000 0.0876044654
C   C87       1.0  0.09370  0.64944  0.08303  1.0000 -0.1585614868
C   C88       1.0  0.06514  0.61819  0.12322  1.0000 -0.0902656049
C   C89       1.0  0.24887  0.54355  0.84041  1.0000 0.5930612236
C   C90       1.0  0.29571  0.56026  0.88712  1.0000 -0.0295151197
C   C91       1.0  0.32028  0.52243  0.92291  1.0000 -0.0988823145
C   C92       1.0  0.36927  0.53774  0.96389  1.0000 -0.1585614868
C   C93       1.0  0.39612  0.59079  0.96885  1.0000 0.0807776236
C   C94       1.0  0.36652  0.62914  0.93444  1.0000 -0.1513412409
C   C95       1.0  0.31672  0.61420  0.89401  1.0000 -0.0988823145
C   C96       1.0  0.30802  0.54358  0.20256  1.0000 0.5572707168
C   C97       1.0  0.34890  0.56157  0.15407  1.0000 -0.0177981666
C   C98       1.0  0.32503  0.60840  0.12957  1.0000 -0.0988823145
C   C99       1.0  0.36188  0.62330  0.08365  1.0000 -0.1585614868
C   C100      1.0  0.42304  0.59165  0.06195  1.0000 0.0807776236
C   C101      1.0  0.44674  0.54484  0.08719  1.0000 -0.1585614868
C   C102      1.0  0.41068  0.53016  0.13297  1.0000 -0.0902656049
C   C103      1.0  0.45499  0.60566  0.01019  1.0000 -0.0295151197
C   C104      1.0  0.52708  0.63106  0.00077  1.0000 -0.0136466336
C   C105      1.0  0.58564  0.65044  0.04027  1.0000 0.0280800562
C   C106      1.0  0.61471  0.61905  0.08058  1.0000 -0.1337573045
C   C107      1.0  0.67379  0.63901  0.11394  1.0000 -0.0902656049
C   C108      1.0  0.70270  0.69100  0.10848  1.0000 -0.0988823145
C   C109      1.0  0.67505  0.72273  0.06859  1.0000 -0.1513412409
C   C110      1.0  0.61737  0.70259  0.03377  1.0000 0.0280800562
C   C111      1.0  0.59232  0.73259  0.98744  1.0000 -0.0136466336
C   C112      1.0  0.59019  0.69749  0.94185  1.0000 0.0280800562
C   C113      1.0  0.62148  0.71205  0.89425  1.0000 -0.1513412409
C   C114      1.0  0.61871  0.67642  0.85382  1.0000 -0.0902656049
C   C115      1.0  0.58356  0.62584  0.86006  1.0000 -0.0834437004
C   C116      1.0  0.55249  0.61083  0.90713  1.0000 -0.13981485
C   C117      1.0  0.55551  0.64607  0.94860  1.0000 0.0280800562
C   C118      1.0  0.56863  0.78458  0.98795  1.0000 -0.0295151197
C   C119      1.0  0.49090  0.89325  0.17674  1.0000 0.6027557887
C   C120      1.0  0.51344  0.86684  0.12733  1.0000 -0.0377848484
C   C121      1.0  0.57951  0.88382  0.09805  1.0000 -0.0902656049
C   C122      1.0  0.59825  0.85818  0.05253  1.0000 -0.1513412409
C   C123      1.0  0.55316  0.81391  0.03673  1.0000 0.0876044654
C   C124      1.0  0.48707  0.79701  0.06619  1.0000 -0.1513412409
C   C125      1.0  0.46662  0.82359  0.11097  1.0000 -0.0902656049
C   C126      1.0  0.44997  0.91514  0.82087  1.0000 0.5930612236
C   C127      1.0  0.48288  0.87805  0.86133  1.0000 -0.0295151197
C   C128      1.0  0.43116  0.84169  0.88522  1.0000 -0.0988823145
C   C129      1.0  0.46002  0.81034  0.92529  1.0000 -0.1513412409
C   C130      1.0  0.54136  0.81473  0.94172  1.0000 0.0876044654
C   C131      1.0  0.59370  0.85056  0.91697  1.0000 -0.1585614868
C   C132      1.0  0.56514  0.88181  0.87678  1.0000 -0.0902656049
C   C133      1.0  0.25113  0.95645  0.34041  1.0000 0.5930612236
C   C134      1.0  0.20429  0.93974  0.38712  1.0000 -0.0295151197
C   C135      1.0  0.17972  0.97757  0.42291  1.0000 -0.0988823145
C   C136      1.0  0.13073  0.96226  0.46389  1.0000 -0.1585614868
C   C137      1.0  0.10388  0.90921  0.46885  1.0000 0.0807776236
C   C138      1.0  0.13348  0.87086  0.43444  1.0000 -0.1513412409
C   C139      1.0  0.18328  0.88580  0.39401  1.0000 -0.0988823145
C   C140      1.0  0.19198  0.95642  0.70256  1.0000 0.5572707168
C   C141      1.0  0.15110  0.93843  0.65407  1.0000 -0.0177981666
C   C142      1.0  0.17497  0.89160  0.62957  1.0000 -0.0988823145
C   C143      1.0  0.13812  0.87670  0.58365  1.0000 -0.1585614868
C   C144      1.0  0.07696  0.90835  0.56195  1.0000 0.0807776236
C   C145      1.0  0.05326  0.95516  0.58719  1.0000 -0.1585614868
C   C146      1.0  0.08932  0.96984  0.63297  1.0000 -0.0902656049
C   C147      1.0  0.04501  0.89434  0.51019  1.0000 -0.0295151197
C   C148      1.0  0.97292  0.86894  0.50077  1.0000 -0.0136466336
C   C149      1.0  0.91436  0.84956  0.54027  1.0000 0.0280800562
C   C150      1.0  0.88529  0.88095  0.58058  1.0000 -0.1337573045
C   C151      1.0  0.82621  0.86099  0.61394  1.0000 -0.0902656049
C   C152      1.0  0.79730  0.80900  0.60848  1.0000 -0.0988823145
C   C153      1.0  0.82495  0.77727  0.56859  1.0000 -0.1513412409
C   C154      1.0  0.88263  0.79741  0.53377  1.0000 0.0280800562
C   C155      1.0  0.90768  0.76741  0.48744  1.0000 -0.0177981666
C   C156      1.0  0.90981  0.80251  0.44185  1.0000 0.0280800562
C   C157      1.0  0.87852  0.78795  0.39425  1.0000 -0.1513412409
C   C158      1.0  0.88129  0.82358  0.35382  1.0000 -0.0902656049
C   C159      1.0  0.91644  0.87416  0.36006  1.0000 -0.0834437004
C   C160      1.0  0.94751  0.88917  0.40713  1.0000 -0.13981485
C   C161      1.0  0.94449  0.85393  0.44860  1.0000 0.0280800562
C   C162      1.0  0.93137  0.71542  0.48795  1.0000 -0.0295151197
C   C163      1.0  0.00910  0.60675  0.67674  1.0000 0.6027557887
C   C164      1.0  0.98656  0.63316  0.62733  1.0000 -0.0377848484
C   C165      1.0  0.92049  0.61618  0.59805  1.0000 -0.0902656049
C   C166      1.0  0.90175  0.64182  0.55253  1.0000 -0.1513412409
C   C167      1.0  0.94684  0.68609  0.53673  1.0000 0.0876044654
C   C168      1.0  0.01293  0.70299  0.56619  1.0000 -0.1513412409
C   C169      1.0  0.03338  0.67641  0.61097  1.0000 -0.0902656049
C   C170      1.0  0.05003  0.58486  0.32087  1.0000 0.5930612236
C   C171      1.0  0.01712  0.62195  0.36133  1.0000 -0.0295151197
C   C172      1.0  0.06884  0.65831  0.38522  1.0000 -0.0988823145
C   C173      1.0  0.03998  0.68966  0.42529  1.0000 -0.1513412409
C   C174      1.0  0.95864  0.68527  0.44172  1.0000 0.0876044654
C   C175      1.0  0.90630  0.64944  0.41697  1.0000 -0.1585614868
C   C176      1.0  0.93486  0.61819  0.37678  1.0000 -0.0902656049
C   C177      1.0  0.24887  0.45645  0.34041  1.0000 0.5930612236
C   C178      1.0  0.29571  0.43974  0.38712  1.0000 -0.0295151197
C   C179      1.0  0.32028  0.47757  0.42291  1.0000 -0.0988823145
C   C180      1.0  0.36927  0.46226  0.46389  1.0000 -0.1585614868
C   C181      1.0  0.39612  0.40921  0.46885  1.0000 0.0807776236
C   C182      1.0  0.36652  0.37086  0.43444  1.0000 -0.1513412409
C   C183      1.0  0.31672  0.38580  0.39401  1.0000 -0.0988823145
C   C184      1.0  0.30802  0.45642  0.70256  1.0000 0.5572707168
C   C185      1.0  0.34890  0.43843  0.65407  1.0000 -0.0177981666
C   C186      1.0  0.32503  0.39160  0.62957  1.0000 -0.0988823145
C   C187      1.0  0.36188  0.37670  0.58365  1.0000 -0.1585614868
C   C188      1.0  0.42304  0.40835  0.56195  1.0000 0.0807776236
C   C189      1.0  0.44674  0.45516  0.58719  1.0000 -0.1585614868
C   C190      1.0  0.41068  0.46984  0.63297  1.0000 -0.0902656049
C   C191      1.0  0.45499  0.39434  0.51019  1.0000 -0.0295151197
C   C192      1.0  0.52708  0.36894  0.50077  1.0000 -0.0136466336
C   C193      1.0  0.58564  0.34956  0.54027  1.0000 0.0280800562
C   C194      1.0  0.61471  0.38095  0.58058  1.0000 -0.1337573045
C   C195      1.0  0.67379  0.36099  0.61394  1.0000 -0.0902656049
C   C196      1.0  0.70270  0.30900  0.60848  1.0000 -0.0988823145
C   C197      1.0  0.67505  0.27727  0.56859  1.0000 -0.1513412409
C   C198      1.0  0.61737  0.29741  0.53377  1.0000 0.0280800562
C   C199      1.0  0.59232  0.26741  0.48744  1.0000 -0.0136466336
C   C200      1.0  0.59019  0.30251  0.44185  1.0000 0.0280800562
C   C201      1.0  0.62148  0.28795  0.39425  1.0000 -0.1513412409
C   C202      1.0  0.61871  0.32358  0.35382  1.0000 -0.0902656049
C   C203      1.0  0.58356  0.37416  0.36006  1.0000 -0.0834437004
C   C204      1.0  0.55249  0.38917  0.40713  1.0000 -0.13981485
C   C205      1.0  0.55551  0.35393  0.44860  1.0000 0.0280800562
C   C206      1.0  0.56863  0.21542  0.48795  1.0000 -0.0295151197
C   C207      1.0  0.49090  0.10675  0.67674  1.0000 0.6027557887
C   C208      1.0  0.51344  0.13316  0.62733  1.0000 -0.0377848484
C   C209      1.0  0.57951  0.11618  0.59805  1.0000 -0.0902656049
C   C210      1.0  0.59825  0.14182  0.55253  1.0000 -0.1513412409
C   C211      1.0  0.55316  0.18609  0.53673  1.0000 0.0876044654
C   C212      1.0  0.48707  0.20299  0.56619  1.0000 -0.1513412409
C   C213      1.0  0.46662  0.17641  0.61097  1.0000 -0.0902656049
C   C214      1.0  0.44997  0.08486  0.32087  1.0000 0.5930612236
C   C215      1.0  0.48288  0.12195  0.36133  1.0000 -0.0295151197
C   C216      1.0  0.43116  0.15831  0.38522  1.0000 -0.0988823145
C   C217      1.0  0.46002  0.18966  0.42529  1.0000 -0.1513412409
C   C218      1.0  0.54136  0.18527  0.44172  1.0000 0.0876044654
C   C219      1.0  0.59370  0.14944  0.41697  1.0000 -0.1585614868
C   C220      1.0  0.56514  0.11819  0.37678  1.0000 -0.0902656049
C   C221      1.0  0.25113  0.04355  0.84041  1.0000 0.5930612236
C   C222      1.0  0.20429  0.06026  0.88712  1.0000 -0.0295151197
C   C223      1.0  0.17972  0.02243  0.92291  1.0000 -0.0988823145
C   C224      1.0  0.13073  0.03774  0.96389  1.0000 -0.1585614868
C   C225      1.0  0.10388  0.09079  0.96885  1.0000 0.0807776236
C   C226      1.0  0.13348  0.12914  0.93444  1.0000 -0.1513412409
C   C227      1.0  0.18328  0.11420  0.89401  1.0000 -0.0988823145
C   C228      1.0  0.19198  0.04358  0.20256  1.0000 0.5572707168
C   C229      1.0  0.15110  0.06157  0.15407  1.0000 -0.0177981666
C   C230      1.0  0.17497  0.10840  0.12957  1.0000 -0.0988823145
C   C231      1.0  0.13812  0.12330  0.08365  1.0000 -0.1585614868
C   C232      1.0  0.07696  0.09165  0.06195  1.0000 0.0807776236
C   C233      1.0  0.05326  0.04484  0.08719  1.0000 -0.1585614868
C   C234      1.0  0.08932  0.03016  0.13297  1.0000 -0.0902656049
C   C235      1.0  0.04501  0.10566  0.01019  1.0000 -0.0295151197
C   C236      1.0  0.97292  0.13106  0.00077  1.0000 -0.0136466336
C   C237      1.0  0.91436  0.15044  0.04027  1.0000 0.0280800562
C   C238      1.0  0.88529  0.11905  0.08058  1.0000 -0.1337573045
C   C239      1.0  0.82621  0.13901  0.11394  1.0000 -0.0902656049
C   C240      1.0  0.79730  0.19100  0.10848  1.0000 -0.0988823145
C   C241      1.0  0.82495  0.22273  0.06859  1.0000 -0.1513412409
C   C242      1.0  0.88263  0.20259  0.03377  1.0000 0.0280800562
C   C243      1.0  0.90768  0.23259  0.98744  1.0000 -0.0136466336
C   C244      1.0  0.90981  0.19749  0.94185  1.0000 0.0280800562
C   C245      1.0  0.87852  0.21205  0.89425  1.0000 -0.1513412409
C   C246      1.0  0.88129  0.17642  0.85382  1.0000 -0.0902656049
C   C247      1.0  0.91644  0.12584  0.86006  1.0000 -0.0834437004
C   C248      1.0  0.94751  0.11083  0.90713  1.0000 -0.13981485
C   C249      1.0  0.94449  0.14607  0.94860  1.0000 0.0280800562
C   C250      1.0  0.93137  0.28458  0.98795  1.0000 -0.0295151197
C   C251      1.0  0.00910  0.39325  0.17674  1.0000 0.6027557887
C   C252      1.0  0.98656  0.36684  0.12733  1.0000 -0.0377848484
C   C253      1.0  0.92049  0.38382  0.09805  1.0000 -0.0902656049
C   C254      1.0  0.90175  0.35818  0.05253  1.0000 -0.1513412409
C   C255      1.0  0.94684  0.31391  0.03673  1.0000 0.0876044654
C   C256      1.0  0.01293  0.29701  0.06619  1.0000 -0.1513412409
C   C257      1.0  0.03338  0.32359  0.11097  1.0000 -0.0902656049
C   C258      1.0  0.05003  0.41514  0.82087  1.0000 0.5930612236
C   C259      1.0  0.01712  0.37805  0.86133  1.0000 -0.0295151197
C   C260      1.0  0.06884  0.34169  0.88522  1.0000 -0.0988823145
C   C261      1.0  0.03998  0.31034  0.92529  1.0000 -0.1513412409
C   C262      1.0  0.95864  0.31473  0.94172  1.0000 0.0876044654
C   C263      1.0  0.90630  0.35056  0.91697  1.0000 -0.1585614868
C   C264      1.0  0.93486  0.38181  0.87678  1.0000 -0.0902656049
C   C265      1.0  0.75113  0.45645  0.15959  1.0000 0.5930612236
C   C266      1.0  0.70429  0.43974  0.11288  1.0000 -0.0295151197
C   C267      1.0  0.67972  0.47757  0.07709  1.0000 -0.0988823145
C   C268      1.0  0.63073  0.46226  0.03611  1.0000 -0.1585614868
C   C269      1.0  0.60388  0.40921  0.03115  1.0000 0.0807776236
C   C270      1.0  0.63348  0.37086  0.06556  1.0000 -0.1513412409
C   C271      1.0  0.68328  0.38580  0.10599  1.0000 -0.0988823145
C   C272      1.0  0.69198  0.45642  0.79744  1.0000 0.5572707168
C   C273      1.0  0.65110  0.43843  0.84593  1.0000 -0.0177981666
C   C274      1.0  0.67497  0.39160  0.87043  1.0000 -0.0988823145
C   C275      1.0  0.63812  0.37670  0.91635  1.0000 -0.1585614868
C   C276      1.0  0.57696  0.40835  0.93805  1.0000 0.0807776236
C   C277      1.0  0.55326  0.45516  0.91281  1.0000 -0.1585614868
C   C278      1.0  0.58932  0.46984  0.86703  1.0000 -0.0902656049
C   C279      1.0  0.54501  0.39434  0.98981  1.0000 -0.0295151197
C   C280      1.0  0.47292  0.36894  0.99923  1.0000 -0.0136466336
C   C281      1.0  0.41436  0.34956  0.95973  1.0000 0.0280800562
C   C282      1.0  0.38529  0.38095  0.91942  1.0000 -0.1337573045
C   C283      1.0  0.32621  0.36099  0.88606  1.0000 -0.0902656049
C   C284      1.0  0.29730  0.30900  0.89152  1.0000 -0.0988823145
C   C285      1.0  0.32495  0.27727  0.93141  1.0000 -0.1513412409
C   C286      1.0  0.38263  0.29741  0.96623  1.0000 0.0280800562
C   C287      1.0  0.40768  0.26741  0.01256  1.0000 -0.0136466336
C   C288      1.0  0.40981  0.30251  0.05815  1.0000 0.0280800562
C   C289      1.0  0.37852  0.28795  0.10575  1.0000 -0.1513412409
C   C290      1.0  0.38129  0.32358  0.14618  1.0000 -0.0902656049
C   C291      1.0  0.41644  0.37416  0.13994  1.0000 -0.0834437004
C   C292      1.0  0.44751  0.38917  0.09287  1.0000 -0.13981485
C   C293      1.0  0.44449  0.35393  0.05140  1.0000 0.0280800562
C   C294      1.0  0.43137  0.21542  0.01205  1.0000 -0.0295151197
C   C295      1.0  0.50910  0.10675  0.82326  1.0000 0.6027557887
C   C296      1.0  0.48656  0.13316  0.87267  1.0000 -0.0377848484
C   C297      1.0  0.42049  0.11618  0.90195  1.0000 -0.0902656049
C   C298      1.0  0.40175  0.14182  0.94747  1.0000 -0.1513412409
C   C299      1.0  0.44684  0.18609  0.96327  1.0000 0.0876044654
C   C300      1.0  0.51293  0.20299  0.93381  1.0000 -0.1513412409
C   C301      1.0  0.53338  0.17641  0.88903  1.0000 -0.0902656049
C   C302      1.0  0.55003  0.08486  0.17913  1.0000 0.5930612236
C   C303      1.0  0.51712  0.12195  0.13867  1.0000 -0.0295151197
C   C304      1.0  0.56884  0.15831  0.11478  1.0000 -0.0988823145
C   C305      1.0  0.53998  0.18966  0.07471  1.0000 -0.1513412409
C   C306      1.0  0.45864  0.18527  0.05828  1.0000 0.0876044654
C   C307      1.0  0.40630  0.14944  0.08303  1.0000 -0.1585614868
C   C308      1.0  0.43486  0.11819  0.12322  1.0000 -0.0902656049
C   C309      1.0  0.74887  0.04355  0.65959  1.0000 0.5930612236
C   C310      1.0  0.79571  0.06026  0.61288  1.0000 -0.0295151197
C   C311      1.0  0.82028  0.02243  0.57709  1.0000 -0.0988823145
C   C312      1.0  0.86927  0.03774  0.53611  1.0000 -0.1585614868
C   C313      1.0  0.89612  0.09079  0.53115  1.0000 0.0807776236
C   C314      1.0  0.86652  0.12914  0.56556  1.0000 -0.1513412409
C   C315      1.0  0.81672  0.11420  0.60599  1.0000 -0.0988823145
C   C316      1.0  0.80802  0.04358  0.29744  1.0000 0.5572707168
C   C317      1.0  0.84890  0.06157  0.34593  1.0000 -0.0177981666
C   C318      1.0  0.82503  0.10840  0.37043  1.0000 -0.0988823145
C   C319      1.0  0.86188  0.12330  0.41635  1.0000 -0.1585614868
C   C320      1.0  0.92304  0.09165  0.43805  1.0000 0.0807776236
C   C321      1.0  0.94674  0.04484  0.41281  1.0000 -0.1585614868
C   C322      1.0  0.91068  0.03016  0.36703  1.0000 -0.0902656049
C   C323      1.0  0.95499  0.10566  0.48981  1.0000 -0.0295151197
C   C324      1.0  0.02708  0.13106  0.49923  1.0000 -0.0136466336
C   C325      1.0  0.08564  0.15044  0.45973  1.0000 0.0280800562
C   C326      1.0  0.11471  0.11905  0.41942  1.0000 -0.1337573045
C   C327      1.0  0.17379  0.13901  0.38606  1.0000 -0.0902656049
C   C328      1.0  0.20270  0.19100  0.39152  1.0000 -0.0988823145
C   C329      1.0  0.17505  0.22273  0.43141  1.0000 -0.1513412409
C   C330      1.0  0.11737  0.20259  0.46623  1.0000 0.0280800562
C   C331      1.0  0.09232  0.23259  0.51256  1.0000 -0.0136466336
C   C332      1.0  0.09019  0.19749  0.55815  1.0000 0.0280800562
C   C333      1.0  0.12148  0.21205  0.60575  1.0000 -0.1513412409
C   C334      1.0  0.11871  0.17642  0.64618  1.0000 -0.0902656049
C   C335      1.0  0.08356  0.12584  0.63994  1.0000 -0.0834437004
C   C336      1.0  0.05249  0.11083  0.59287  1.0000 -0.13981485
C   C337      1.0  0.05551  0.14607  0.55140  1.0000 0.0280800562
C   C338      1.0  0.06863  0.28458  0.51205  1.0000 -0.0295151197
C   C339      1.0  0.99090  0.39325  0.32326  1.0000 0.6027557887
C   C340      1.0  0.01344  0.36684  0.37267  1.0000 -0.0377848484
C   C341      1.0  0.07951  0.38382  0.40195  1.0000 -0.0902656049
C   C342      1.0  0.09825  0.35818  0.44747  1.0000 -0.1513412409
C   C343      1.0  0.05316  0.31391  0.46327  1.0000 0.0876044654
C   C344      1.0  0.98707  0.29701  0.43381  1.0000 -0.1513412409
C   C345      1.0  0.96662  0.32359  0.38903  1.0000 -0.0902656049
C   C346      1.0  0.94997  0.41514  0.67913  1.0000 0.5930612236
C   C347      1.0  0.98288  0.37805  0.63867  1.0000 -0.0177981666
C   C348      1.0  0.93116  0.34169  0.61478  1.0000 -0.0988823145
C   C349      1.0  0.96002  0.31034  0.57471  1.0000 -0.1513412409
C   C350      1.0  0.04136  0.31473  0.55828  1.0000 0.0876044654
C   C351      1.0  0.09370  0.35056  0.58303  1.0000 -0.1585614868
C   C352      1.0  0.06514  0.38181  0.62322  1.0000 -0.0902656049
O   O1        1.0  0.87725  0.51594  0.76564  1.0000 -0.8121020385
O   O2        1.0  0.76553  0.49392  0.66512  1.0000 -0.533358615
O   O3        1.0  0.77089  0.58013  0.68957  1.0000 -0.5684374162
O   O4        1.0  0.67289  0.49966  0.27832  1.0000 -0.5485293814
O   O5        1.0  0.74654  0.57478  0.27888  1.0000 -0.5579425198
O   O6        1.0  0.46198  0.92966  0.30547  1.0000 -0.5815281459
O   O7        1.0  0.57400  0.87708  0.30259  1.0000 -0.5579425198
O   O8        1.0  0.50481  0.95284  0.69261  1.0000 -0.5428894498
O   O9        1.0  0.62231  0.90555  0.69540  1.0000 -0.533358615
O   O10       1.0  0.62275  0.98406  0.26564  1.0000 -0.8121020385
O   O11       1.0  0.73447  0.00608  0.16512  1.0000 -0.533358615
O   O12       1.0  0.72911  0.91987  0.18957  1.0000 -0.5684374162
O   O13       1.0  0.82711  0.00034  0.77832  1.0000 -0.5485293814
O   O14       1.0  0.75346  0.92522  0.77888  1.0000 -0.5579425198
O   O15       1.0  0.03802  0.57034  0.80547  1.0000 -0.5815281459
O   O16       1.0  0.92600  0.62292  0.80259  1.0000 -0.5579425198
O   O17       1.0  0.99519  0.54716  0.19261  1.0000 -0.5428894498
O   O18       1.0  0.87769  0.59445  0.19540  1.0000 -0.533358615
O   O19       1.0  0.12275  0.51594  0.73436  1.0000 -0.8121020385
O   O20       1.0  0.23447  0.49392  0.83488  1.0000 -0.533358615
O   O21       1.0  0.22911  0.58013  0.81043  1.0000 -0.5684374162
O   O22       1.0  0.32711  0.49966  0.22168  1.0000 -0.5485293814
O   O23       1.0  0.25346  0.57478  0.22112  1.0000 -0.5579425198
O   O24       1.0  0.53802  0.92966  0.19453  1.0000 -0.5815281459
O   O25       1.0  0.42600  0.87708  0.19741  1.0000 -0.5579425198
O   O26       1.0  0.49519  0.95284  0.80739  1.0000 -0.5428894498
O   O27       1.0  0.37769  0.90555  0.80460  1.0000 -0.533358615
O   O28       1.0  0.37725  0.98406  0.23436  1.0000 -0.8121020385
O   O29       1.0  0.26553  0.00608  0.33488  1.0000 -0.533358615
O   O30       1.0  0.27089  0.91987  0.31043  1.0000 -0.5684374162
O   O31       1.0  0.17289  0.00034  0.72168  1.0000 -0.5485293814
O   O32       1.0  0.24654  0.92522  0.72112  1.0000 -0.5579425198
O   O33       1.0  0.96198  0.57034  0.69453  1.0000 -0.5815281459
O   O34       1.0  0.07400  0.62292  0.69741  1.0000 -0.5579425198
O   O35       1.0  0.00481  0.54716  0.30739  1.0000 -0.5428894498
O   O36       1.0  0.12231  0.59445  0.30460  1.0000 -0.533358615
O   O37       1.0  0.12275  0.48406  0.23436  1.0000 -0.8121020385
O   O38       1.0  0.23447  0.50608  0.33488  1.0000 -0.533358615
O   O39       1.0  0.22911  0.41987  0.31043  1.0000 -0.5684374162
O   O40       1.0  0.32711  0.50034  0.72168  1.0000 -0.5485293814
O   O41       1.0  0.25346  0.42522  0.72112  1.0000 -0.5485293814
O   O42       1.0  0.53802  0.07034  0.69453  1.0000 -0.5815281459
O   O43       1.0  0.42600  0.12292  0.69741  1.0000 -0.5579425198
O   O44       1.0  0.49519  0.04716  0.30739  1.0000 -0.5428894498
O   O45       1.0  0.37769  0.09445  0.30460  1.0000 -0.533358615
O   O46       1.0  0.37725  0.01594  0.73436  1.0000 -0.8121020385
O   O47       1.0  0.26553  0.99392  0.83488  1.0000 -0.533358615
O   O48       1.0  0.27089  0.08013  0.81043  1.0000 -0.5684374162
O   O49       1.0  0.17289  0.99966  0.22168  1.0000 -0.5485293814
O   O50       1.0  0.24654  0.07478  0.22112  1.0000 -0.5579425198
O   O51       1.0  0.96198  0.42966  0.19453  1.0000 -0.5815281459
O   O52       1.0  0.07400  0.37708  0.19741  1.0000 -0.5579425198
O   O53       1.0  0.00481  0.45284  0.80739  1.0000 -0.5428894498
O   O54       1.0  0.12231  0.40555  0.80460  1.0000 -0.533358615
O   O55       1.0  0.87725  0.48406  0.26564  1.0000 -0.8121020385
O   O56       1.0  0.76553  0.50608  0.16512  1.0000 -0.533358615
O   O57       1.0  0.77089  0.41987  0.18957  1.0000 -0.5684374162
O   O58       1.0  0.67289  0.50034  0.77832  1.0000 -0.5485293814
O   O59       1.0  0.74654  0.42522  0.77888  1.0000 -0.5485293814
O   O60       1.0  0.46198  0.07034  0.80547  1.0000 -0.5815281459
O   O61       1.0  0.57400  0.12292  0.80259  1.0000 -0.5579425198
O   O62       1.0  0.50481  0.04716  0.19261  1.0000 -0.5428894498
O   O63       1.0  0.62231  0.09445  0.19540  1.0000 -0.533358615
O   O64       1.0  0.62275  0.01594  0.76564  1.0000 -0.8121020385
O   O65       1.0  0.73447  0.99392  0.66512  1.0000 -0.533358615
O   O66       1.0  0.72911  0.08013  0.68957  1.0000 -0.5684374162
O   O67       1.0  0.82711  0.99966  0.27832  1.0000 -0.5485293814
O   O68       1.0  0.75346  0.07478  0.27888  1.0000 -0.5579425198
O   O69       1.0  0.03802  0.42966  0.30547  1.0000 -0.5815281459
O   O70       1.0  0.92600  0.37708  0.30259  1.0000 -0.5579425198
O   O71       1.0  0.99519  0.45284  0.69261  1.0000 -0.5428894498
O   O72       1.0  0.87769  0.40555  0.69540  1.0000 -0.533358615
