# DDEC6 charges by PACMAN v1.1 (https://github.com/mtap-research/PACMAN-charge/)
data_2021[Tb][nan]3[ASR]3
_chemical_formula_sum              "Tb2 H18 C24 O18"
_cell_length_a       8.8972
_cell_length_b       9.882
_cell_length_c       10.3341
_cell_angle_alpha    77.792
_cell_angle_beta     82.691
_cell_angle_gamma    86.712

_symmetry_space_group_name_H-M    "P 1"
_symmetry_Int_Tables_number       1

loop_
  _symmetry_equiv_pos_as_xyz
  'x, y, z'

loop_
  _atom_site_type_symbol
  _atom_site_label
  _atom_site_symmetry_multiplicity
  _atom_site_fract_x
  _atom_site_fract_y
  _atom_site_fract_z
  _atom_site_occupancy
  _atom_site_charge
Tb  Tb1       1.0  0.74662  0.99899  0.98389  1.0000 2.0333693265
Tb  Tb2       1.0  0.25338  0.00101  0.01611  1.0000 2.0357260942
H   H1        1.0  0.41715  0.56829  0.29412  1.0000 0.1468530684
H   H2        1.0  0.10867  0.31948  0.54265  1.0000 0.1292881161
H   H3        1.0  0.25994  0.64982  0.65361  1.0000 0.1657991349
H   H4        1.0  0.58152  0.70743  0.30312  1.0000 0.1292881161
H   H5        1.0  0.61224  0.84302  0.35011  1.0000 0.1403535992
H   H6        1.0  0.06623  0.30032  0.31296  1.0000 0.1201194912
H   H7        1.0  0.16701  0.18889  0.39811  1.0000 0.1292881161
H   H8        1.0  0.95065  0.32423  0.70277  1.0000 0.1292881161
H   H9        1.0  0.88730  0.38482  0.82803  1.0000 0.1403535992
H   H10       1.0  0.58285  0.43171  0.70588  1.0000 0.1468530684
H   H11       1.0  0.89133  0.68052  0.45735  1.0000 0.1292881161
H   H12       1.0  0.74006  0.35018  0.34639  1.0000 0.1657991349
H   H13       1.0  0.41848  0.29257  0.69688  1.0000 0.1292881161
H   H14       1.0  0.38776  0.15698  0.64989  1.0000 0.1403535992
H   H15       1.0  0.93377  0.69968  0.68704  1.0000 0.1201194912
H   H16       1.0  0.83299  0.81111  0.60189  1.0000 0.1292881161
H   H17       1.0  0.04935  0.67577  0.29723  1.0000 0.1292881161
H   H18       1.0  0.11270  0.61518  0.17197  1.0000 0.1403535992
C   C1        1.0  0.35360  0.62670  0.46930  1.0000 0.2973207697
C   C2        1.0  0.35600  0.54640  0.37520  1.0000 -0.3893741727
C   C3        1.0  0.26420  0.43100  0.40450  1.0000 0.2973207697
C   C4        1.0  0.16940  0.39630  0.52430  1.0000 -0.4132273555
C   C5        1.0  0.17000  0.48290  0.61600  1.0000 0.2806429505
C   C6        1.0  0.26040  0.59500  0.59060  1.0000 -0.3674188614
C   C7        1.0  0.53310  0.78710  0.33410  1.0000 -0.1709569976
C   C8        1.0  0.44640  0.87090  0.22700  1.0000 0.6363231778
C   C9        1.0  0.16620  0.25580  0.31470  1.0000 -0.1621815473
C   C10       1.0  0.19960  0.18320  0.20020  1.0000 0.6106852531
C   C11       1.0  0.97890  0.35280  0.78030  1.0000 -0.181389159
C   C12       1.0  0.04510  0.23100  0.86830  1.0000 0.6558066844
C   C13       1.0  0.64640  0.37330  0.53070  1.0000 0.2973207697
C   C14       1.0  0.64400  0.45360  0.62480  1.0000 -0.3893741727
C   C15       1.0  0.73580  0.56900  0.59550  1.0000 0.2973207697
C   C16       1.0  0.83060  0.60370  0.47570  1.0000 -0.4132273555
C   C17       1.0  0.83000  0.51710  0.38400  1.0000 0.2806429505
C   C18       1.0  0.73960  0.40500  0.40940  1.0000 -0.3674188614
C   C19       1.0  0.46690  0.21290  0.66590  1.0000 -0.1709569976
C   C20       1.0  0.55360  0.12910  0.77300  1.0000 0.6363231778
C   C21       1.0  0.83380  0.74420  0.68530  1.0000 -0.1621815473
C   C22       1.0  0.80040  0.81680  0.79980  1.0000 0.6106852531
C   C23       1.0  0.02110  0.64720  0.21970  1.0000 -0.181389159
C   C24       1.0  0.95490  0.76900  0.13170  1.0000 0.6558066844
O   O1        1.0  0.52240  0.93250  0.12120  1.0000 -0.736102895
O   O2        1.0  0.30530  0.87770  0.24100  1.0000 -0.5955165387
O   O3        1.0  0.32710  0.18840  0.13190  1.0000 -0.591438826
O   O4        1.0  0.09680  0.11160  0.17840  1.0000 -0.6247731209
O   O5        1.0  0.95670  0.13290  0.92030  1.0000 -0.7329458952
O   O6        1.0  0.18110  0.22680  0.88840  1.0000 -0.6117132962
O   O7        1.0  0.43960  0.74070  0.45600  1.0000 -0.1547531694
O   O8        1.0  0.27700  0.35700  0.30600  1.0000 -0.1409901962
O   O9        1.0  0.07960  0.46490  0.73710  1.0000 -0.1709569976
O   O10       1.0  0.47760  0.06750  0.87880  1.0000 -0.736102895
O   O11       1.0  0.69470  0.12230  0.75900  1.0000 -0.591438826
O   O12       1.0  0.67290  0.81160  0.86810  1.0000 -0.591438826
O   O13       1.0  0.90320  0.88840  0.82160  1.0000 -0.6247731209
O   O14       1.0  0.04330  0.86710  0.07970  1.0000 -0.736102895
O   O15       1.0  0.81890  0.77320  0.11160  1.0000 -0.6117132962
O   O16       1.0  0.56040  0.25930  0.54400  1.0000 -0.1547531694
O   O17       1.0  0.72300  0.64300  0.69400  1.0000 -0.1409901962
O   O18       1.0  0.92040  0.53510  0.26290  1.0000 -0.1709569976
