# DDEC6 charges by PACMAN v1.1 (https://github.com/mtap-research/PACMAN-charge/)
data_2021[Zn][dmc]3[ASR]1
_chemical_formula_sum              "Zn4 H8 C12 N12 O8"
_cell_length_a       8.9138
_cell_length_b       9.6935
_cell_length_c       9.4836
_cell_angle_alpha    90
_cell_angle_beta     115.895
_cell_angle_gamma    90

_symmetry_space_group_name_H-M    "P 1"
_symmetry_Int_Tables_number       1

loop_
  _symmetry_equiv_pos_as_xyz
  'x, y, z'

loop_
  _atom_site_type_symbol
  _atom_site_label
  _atom_site_symmetry_multiplicity
  _atom_site_fract_x
  _atom_site_fract_y
  _atom_site_fract_z
  _atom_site_occupancy
  _atom_site_charge
Zn  Zn1       1.0  0.82412  0.94229  0.56321  1.0000 0.6765786694
Zn  Zn2       1.0  0.17588  0.44229  0.93679  1.0000 0.6765786694
Zn  Zn3       1.0  0.17588  0.05771  0.43679  1.0000 0.6765786694
Zn  Zn4       1.0  0.82412  0.55771  0.06321  1.0000 0.6765786694
H   H1        1.0  0.90680  0.19550  0.79140  1.0000 0.1205341057
H   H2        1.0  0.25590  0.30290  0.67110  1.0000 0.1205341057
H   H3        1.0  0.09320  0.69550  0.70860  1.0000 0.1205341057
H   H4        1.0  0.74410  0.80290  0.82890  1.0000 0.1205341057
H   H5        1.0  0.09320  0.80450  0.20860  1.0000 0.1205341057
H   H6        1.0  0.74410  0.69710  0.32890  1.0000 0.1205341057
H   H7        1.0  0.90680  0.30450  0.29140  1.0000 0.1205341057
H   H8        1.0  0.25590  0.19710  0.17110  1.0000 0.1205341057
C   C1        1.0  0.97850  0.19830  0.74120  1.0000 0.1493324326
C   C2        1.0  0.16550  0.25540  0.67680  1.0000 0.1553723948
C   C3        1.0  0.47520  0.96920  0.41850  1.0000 0.4585644888
C   C4        1.0  0.02150  0.69830  0.75880  1.0000 0.1493324326
C   C5        1.0  0.83450  0.75540  0.82320  1.0000 0.1553723948
C   C6        1.0  0.52480  0.46920  0.08150  1.0000 0.4585644888
C   C7        1.0  0.02150  0.80170  0.25880  1.0000 0.1493324326
C   C8        1.0  0.83450  0.74460  0.32320  1.0000 0.1553723948
C   C9        1.0  0.52480  0.03080  0.58150  1.0000 0.4585644888
C   C10       1.0  0.97850  0.30170  0.24120  1.0000 0.1493324326
C   C11       1.0  0.16550  0.24460  0.17680  1.0000 0.1553723948
C   C12       1.0  0.47520  0.53080  0.91850  1.0000 0.4585644888
N   N1        1.0  0.96920  0.11080  0.63170  1.0000 -0.1895146681
N   N2        1.0  0.09220  0.14750  0.59000  1.0000 -0.1895146681
N   N3        1.0  0.09920  0.29140  0.77410  1.0000 -0.3209016039
N   N4        1.0  0.03080  0.61080  0.86830  1.0000 -0.1895146681
N   N5        1.0  0.90780  0.64750  0.91000  1.0000 -0.1895146681
N   N6        1.0  0.90080  0.79140  0.72590  1.0000 -0.3209016039
N   N7        1.0  0.03080  0.88920  0.36830  1.0000 -0.1895146681
N   N8        1.0  0.90780  0.85250  0.41000  1.0000 -0.1895146681
N   N9        1.0  0.90080  0.70860  0.22590  1.0000 -0.3209016039
N   N10       1.0  0.96920  0.38920  0.13170  1.0000 -0.1895146681
N   N11       1.0  0.09220  0.35250  0.09000  1.0000 -0.1895146681
N   N12       1.0  0.09920  0.20860  0.27410  1.0000 -0.3209016039
O   O1        1.0  0.59020  0.92390  0.38980  1.0000 -0.4859532131
O   O2        1.0  0.32470  0.96930  0.32680  1.0000 -0.4950320436
O   O3        1.0  0.40980  0.42390  0.11020  1.0000 -0.4859532131
O   O4        1.0  0.67530  0.46930  0.17320  1.0000 -0.4950320436
O   O5        1.0  0.40980  0.07610  0.61020  1.0000 -0.4859532131
O   O6        1.0  0.67530  0.03070  0.67320  1.0000 -0.4950320436
O   O7        1.0  0.59020  0.57610  0.88980  1.0000 -0.4859532131
O   O8        1.0  0.32470  0.53070  0.82680  1.0000 -0.4950320436
