# DDEC6 charges by PACMAN v1.1 (https://github.com/mtap-research/PACMAN-charge/)
data_2021[Zn][nan]2[ASR]2
_chemical_formula_sum              "Zn4 H44 C64 S4 N12 O24"
_cell_length_a       12.9657
_cell_length_b       8.069
_cell_length_c       18.606
_cell_angle_alpha    90
_cell_angle_beta     111.542
_cell_angle_gamma    90

_symmetry_space_group_name_H-M    "P 1"
_symmetry_Int_Tables_number       1

loop_
  _symmetry_equiv_pos_as_xyz
  'x, y, z'

loop_
  _atom_site_type_symbol
  _atom_site_label
  _atom_site_symmetry_multiplicity
  _atom_site_fract_x
  _atom_site_fract_y
  _atom_site_fract_z
  _atom_site_occupancy
  _atom_site_charge
Zn  Zn1       1.0  0.40445  0.98028  0.66207  1.0000 0.8779931543
Zn  Zn2       1.0  0.59555  0.48028  0.83793  1.0000 0.8779931543
Zn  Zn3       1.0  0.59555  0.01972  0.33793  1.0000 0.8779931543
Zn  Zn4       1.0  0.40445  0.51972  0.16207  1.0000 0.8779931543
H   H1        1.0  0.13480  0.94780  0.42960  1.0000 0.1378164189
H   H2        1.0  0.96990  0.88230  0.32890  1.0000 0.1304172503
H   H3        1.0  0.83450  0.72890  0.35520  1.0000 0.1486514424
H   H4        1.0  0.74270  0.55660  0.38890  1.0000 0.1486514424
H   H5        1.0  0.62130  0.40960  0.42700  1.0000 0.1600285945
H   H6        1.0  0.81270  0.49640  0.64620  1.0000 0.1486514424
H   H7        1.0  0.92890  0.64570  0.60470  1.0000 0.1304172503
H   H8        1.0  0.50600  0.29050  0.46580  1.0000 0.1378164189
H   H9        1.0  0.39830  0.13170  0.51270  1.0000 0.1162762582
H   H10       1.0  0.61330  0.17110  0.72340  1.0000 0.1304172503
H   H11       1.0  0.72680  0.33130  0.68230  1.0000 0.1486514424
H   H12       1.0  0.86520  0.44780  0.07040  1.0000 0.1378164189
H   H13       1.0  0.03010  0.38230  0.17110  1.0000 0.1304172503
H   H14       1.0  0.16550  0.22890  0.14480  1.0000 0.1486514424
H   H15       1.0  0.25730  0.05660  0.11110  1.0000 0.1486514424
H   H16       1.0  0.37870  0.90960  0.07300  1.0000 0.1600285945
H   H17       1.0  0.18730  0.99640  0.85380  1.0000 0.1486514424
H   H18       1.0  0.07110  0.14570  0.89530  1.0000 0.1304172503
H   H19       1.0  0.49400  0.79050  0.03420  1.0000 0.1378164189
H   H20       1.0  0.60170  0.63170  0.98730  1.0000 0.1162762582
H   H21       1.0  0.38670  0.67110  0.77660  1.0000 0.1304172503
H   H22       1.0  0.27320  0.83130  0.81770  1.0000 0.1486514424
H   H23       1.0  0.86520  0.05220  0.57040  1.0000 0.1378164189
H   H24       1.0  0.03010  0.11770  0.67110  1.0000 0.1304172503
H   H25       1.0  0.16550  0.27110  0.64480  1.0000 0.1486514424
H   H26       1.0  0.25730  0.44340  0.61110  1.0000 0.1486514424
H   H27       1.0  0.37870  0.59040  0.57300  1.0000 0.1600285945
H   H28       1.0  0.18730  0.50360  0.35380  1.0000 0.1486514424
H   H29       1.0  0.07110  0.35430  0.39530  1.0000 0.1304172503
H   H30       1.0  0.49400  0.70950  0.53420  1.0000 0.1378164189
H   H31       1.0  0.60170  0.86830  0.48730  1.0000 0.1162762582
H   H32       1.0  0.38670  0.82890  0.27660  1.0000 0.1304172503
H   H33       1.0  0.27320  0.66870  0.31770  1.0000 0.1486514424
H   H34       1.0  0.13480  0.55220  0.92960  1.0000 0.1378164189
H   H35       1.0  0.96990  0.61770  0.82890  1.0000 0.1304172503
H   H36       1.0  0.83450  0.77110  0.85520  1.0000 0.1486514424
H   H37       1.0  0.74270  0.94340  0.88890  1.0000 0.1486514424
H   H38       1.0  0.62130  0.09040  0.92700  1.0000 0.1600285945
H   H39       1.0  0.81270  0.00360  0.14620  1.0000 0.1486514424
H   H40       1.0  0.92890  0.85430  0.10470  1.0000 0.1304172503
H   H41       1.0  0.50600  0.20950  0.96580  1.0000 0.1378164189
H   H42       1.0  0.39830  0.36830  0.01270  1.0000 0.1162762582
H   H43       1.0  0.61330  0.32890  0.22340  1.0000 0.1304172503
H   H44       1.0  0.72680  0.16870  0.18230  1.0000 0.1486514424
C   C1        1.0  0.20063  0.86730  0.58120  1.0000 0.5126131055
C   C2        1.0  0.09591  0.83090  0.51232  1.0000 0.1162762582
C   C3        1.0  0.08037  0.88600  0.43879  1.0000 -0.1683825544
C   C4        1.0  0.98193  0.84730  0.37896  1.0000 -0.0190748284
C   C5        1.0  0.90157  0.75630  0.39402  1.0000 -0.1937242123
C   C6        1.0  0.92636  0.70830  0.46980  1.0000 0.2752990452
C   C7        1.0  0.75653  0.54440  0.44133  1.0000 0.0527441492
C   C8        1.0  0.68430  0.45530  0.46415  1.0000 -0.161465914
C   C9        1.0  0.70335  0.43200  0.54176  1.0000 0.1092543741
C   C10       1.0  0.79691  0.50700  0.59341  1.0000 -0.161465914
C   C11       1.0  0.86646  0.59630  0.56856  1.0000 0.024806167
C   C12       1.0  0.63012  0.32960  0.56913  1.0000 0.1092543741
C   C13       1.0  0.52957  0.26770  0.51836  1.0000 -0.1683825544
C   C14       1.0  0.46553  0.17220  0.54701  1.0000 0.0835591414
C   C15       1.0  0.59176  0.19520  0.67101  1.0000 0.1162762582
C   C16       1.0  0.66035  0.29170  0.64669  1.0000 -0.1475275653
C   C17       1.0  0.79937  0.36730  0.91880  1.0000 0.5126131055
C   C18       1.0  0.90409  0.33090  0.98768  1.0000 0.1162762582
C   C19       1.0  0.91963  0.38600  0.06121  1.0000 -0.1683825544
C   C20       1.0  0.01807  0.34730  0.12104  1.0000 -0.0190748284
C   C21       1.0  0.09843  0.25630  0.10598  1.0000 -0.1937242123
C   C22       1.0  0.07364  0.20830  0.03020  1.0000 0.2752990452
C   C23       1.0  0.24347  0.04440  0.05867  1.0000 0.0527441492
C   C24       1.0  0.31570  0.95530  0.03585  1.0000 -0.161465914
C   C25       1.0  0.29665  0.93200  0.95824  1.0000 0.1092543741
C   C26       1.0  0.20309  0.00700  0.90659  1.0000 -0.161465914
C   C27       1.0  0.13354  0.09630  0.93144  1.0000 0.024806167
C   C28       1.0  0.36988  0.82960  0.93087  1.0000 0.1092543741
C   C29       1.0  0.47043  0.76770  0.98164  1.0000 -0.1683825544
C   C30       1.0  0.53447  0.67220  0.95299  1.0000 0.0835591414
C   C31       1.0  0.40824  0.69520  0.82899  1.0000 0.1162762582
C   C32       1.0  0.33965  0.79170  0.85331  1.0000 -0.1475275653
C   C33       1.0  0.79937  0.13270  0.41880  1.0000 0.5126131055
C   C34       1.0  0.90409  0.16910  0.48768  1.0000 0.1162762582
C   C35       1.0  0.91963  0.11400  0.56121  1.0000 -0.1683825544
C   C36       1.0  0.01807  0.15270  0.62104  1.0000 -0.0190748284
C   C37       1.0  0.09843  0.24370  0.60598  1.0000 -0.1937242123
C   C38       1.0  0.07364  0.29170  0.53020  1.0000 0.2752990452
C   C39       1.0  0.24347  0.45560  0.55867  1.0000 0.0527441492
C   C40       1.0  0.31570  0.54470  0.53585  1.0000 -0.161465914
C   C41       1.0  0.29665  0.56800  0.45824  1.0000 0.1092543741
C   C42       1.0  0.20309  0.49300  0.40659  1.0000 -0.161465914
C   C43       1.0  0.13354  0.40370  0.43144  1.0000 0.024806167
C   C44       1.0  0.36988  0.67040  0.43087  1.0000 0.1092543741
C   C45       1.0  0.47043  0.73230  0.48164  1.0000 -0.1683825544
C   C46       1.0  0.53447  0.82780  0.45299  1.0000 0.0835591414
C   C47       1.0  0.40824  0.80480  0.32899  1.0000 0.1162762582
C   C48       1.0  0.33965  0.70830  0.35331  1.0000 -0.1475275653
C   C49       1.0  0.20063  0.63270  0.08120  1.0000 0.5126131055
C   C50       1.0  0.09591  0.66910  0.01232  1.0000 0.1162762582
C   C51       1.0  0.08037  0.61400  0.93879  1.0000 -0.1683825544
C   C52       1.0  0.98193  0.65270  0.87896  1.0000 -0.0190748284
C   C53       1.0  0.90157  0.74370  0.89402  1.0000 -0.1937242123
C   C54       1.0  0.92636  0.79170  0.96980  1.0000 0.2752990452
C   C55       1.0  0.75653  0.95560  0.94133  1.0000 0.0527441492
C   C56       1.0  0.68430  0.04470  0.96415  1.0000 -0.161465914
C   C57       1.0  0.70335  0.06800  0.04176  1.0000 0.1092543741
C   C58       1.0  0.79691  0.99300  0.09341  1.0000 -0.161465914
C   C59       1.0  0.86646  0.90370  0.06856  1.0000 0.024806167
C   C60       1.0  0.63012  0.17040  0.06913  1.0000 0.1092543741
C   C61       1.0  0.52957  0.23230  0.01836  1.0000 -0.1683825544
C   C62       1.0  0.46553  0.32780  0.04701  1.0000 0.0835591414
C   C63       1.0  0.59176  0.30480  0.17101  1.0000 0.1162762582
C   C64       1.0  0.66035  0.20830  0.14669  1.0000 -0.1475275653
S   S1        1.0  0.39735  0.23889  0.78409  1.0000 1.3895315704
S   S2        1.0  0.60265  0.73889  0.71591  1.0000 1.3895315704
S   S3        1.0  0.60265  0.76111  0.21591  1.0000 1.3895315704
S   S4        1.0  0.39735  0.26111  0.28409  1.0000 1.3895315704
N   N1        1.0  0.01918  0.74150  0.52767  1.0000 -0.338651565
N   N2        1.0  0.84697  0.61430  0.49319  1.0000 0.0551900053
N   N3        1.0  0.49578  0.13500  0.62233  1.0000 -0.2525398555
N   N4        1.0  0.98082  0.24150  0.97233  1.0000 -0.338651565
N   N5        1.0  0.15303  0.11430  0.00681  1.0000 0.0551900053
N   N6        1.0  0.50422  0.63500  0.87767  1.0000 -0.2525398555
N   N7        1.0  0.98082  0.25850  0.47233  1.0000 -0.338651565
N   N8        1.0  0.15303  0.38570  0.50681  1.0000 0.0551900053
N   N9        1.0  0.50422  0.86500  0.37767  1.0000 -0.2525398555
N   N10       1.0  0.01918  0.75850  0.02767  1.0000 -0.338651565
N   N11       1.0  0.84697  0.88570  0.99319  1.0000 0.0551900053
N   N12       1.0  0.49578  0.36500  0.12233  1.0000 -0.2525398555
O   O1        1.0  0.27080  0.96030  0.56684  1.0000 -0.5569372299
O   O2        1.0  0.21447  0.80890  0.64486  1.0000 -0.4871517243
O   O3        1.0  0.38528  0.06830  0.75244  1.0000 -0.6469553632
O   O4        1.0  0.35416  0.35850  0.72269  1.0000 -0.6469553632
O   O5        1.0  0.34293  0.24600  0.83955  1.0000 -0.6469553632
O   O6        1.0  0.51866  0.26687  0.82478  1.0000 -0.6644228073
O   O7        1.0  0.72920  0.46030  0.93316  1.0000 -0.5569372299
O   O8        1.0  0.78553  0.30890  0.85514  1.0000 -0.4871517243
O   O9        1.0  0.61472  0.56830  0.74756  1.0000 -0.6469553632
O   O10       1.0  0.64584  0.85850  0.77731  1.0000 -0.6469553632
O   O11       1.0  0.65707  0.74600  0.66045  1.0000 -0.6469553632
O   O12       1.0  0.48134  0.76687  0.67522  1.0000 -0.6644228073
O   O13       1.0  0.72920  0.03970  0.43316  1.0000 -0.5569372299
O   O14       1.0  0.78553  0.19110  0.35514  1.0000 -0.4871517243
O   O15       1.0  0.61472  0.93170  0.24756  1.0000 -0.6469553632
O   O16       1.0  0.64584  0.64150  0.27731  1.0000 -0.6469553632
O   O17       1.0  0.65707  0.75400  0.16045  1.0000 -0.6469553632
O   O18       1.0  0.48134  0.73313  0.17522  1.0000 -0.6644228073
O   O19       1.0  0.27080  0.53970  0.06684  1.0000 -0.5569372299
O   O20       1.0  0.21447  0.69110  0.14486  1.0000 -0.4871517243
O   O21       1.0  0.38528  0.43170  0.25244  1.0000 -0.6469553632
O   O22       1.0  0.35416  0.14150  0.22269  1.0000 -0.6469553632
O   O23       1.0  0.34293  0.25400  0.33955  1.0000 -0.6469553632
O   O24       1.0  0.51866  0.23313  0.32478  1.0000 -0.6644228073
