# DDEC6 charges by PACMAN v1.1 (https://github.com/mtap-research/PACMAN-charge/)
data_2021[Ce][nan]3[ASR]3
_chemical_formula_sum              "Ce4 H68 C120 O32"
_cell_length_a       5.4195
_cell_length_b       20.377
_cell_length_c       27.25
_cell_angle_alpha    90
_cell_angle_beta     90
_cell_angle_gamma    90

_symmetry_space_group_name_H-M    "P 1"
_symmetry_Int_Tables_number       1

loop_
  _symmetry_equiv_pos_as_xyz
  'x, y, z'

loop_
  _atom_site_type_symbol
  _atom_site_label
  _atom_site_symmetry_multiplicity
  _atom_site_fract_x
  _atom_site_fract_y
  _atom_site_fract_z
  _atom_site_occupancy
  _atom_site_charge
Ce  Ce1       1.0  0.45096  0.48906  0.24967  1.0000 1.9662942331
Ce  Ce2       1.0  0.45096  0.51094  0.75033  1.0000 1.9662942331
Ce  Ce3       1.0  0.54904  0.01094  0.74967  1.0000 1.9662942331
Ce  Ce4       1.0  0.54904  0.98906  0.25033  1.0000 1.9662942331
H   H1        1.0  0.81000  0.38790  0.80060  1.0000 0.3657661121
H   H2        1.0  0.32550  0.43630  0.12310  1.0000 0.1279452424
H   H3        1.0  0.43610  0.37240  0.05670  1.0000 0.1183506416
H   H4        1.0  0.83660  0.26240  0.07540  1.0000 0.1083385032
H   H5        1.0  0.71020  0.33000  0.13940  1.0000 0.1183506416
H   H6        1.0  0.18740  0.41860  0.90070  1.0000 0.1279452424
H   H7        1.0  0.05600  0.36950  0.97100  1.0000 0.1183506416
H   H8        1.0  0.62900  0.24660  0.96550  1.0000 0.1083385032
H   H9        1.0  0.77000  0.29730  0.89590  1.0000 0.1083385032
H   H10       1.0  0.42540  0.15420  0.17790  1.0000 0.1279452424
H   H11       1.0  0.47600  0.20610  0.10270  1.0000 0.1083385032
H   H12       1.0  0.89230  0.11040  0.05020  1.0000 0.1183506416
H   H13       1.0  0.81300  0.06810  0.12680  1.0000 0.1279452424
H   H14       1.0  0.03900  0.14550  0.86630  1.0000 0.1279452424
H   H15       1.0  0.98440  0.20520  0.93720  1.0000 0.1083385032
H   H16       1.0  0.48530  0.09260  0.00370  1.0000 0.1183506416
H   H17       1.0  0.54760  0.03560  0.93100  1.0000 0.1183506416
H   H18       1.0  0.81000  0.61210  0.19940  1.0000 0.3657661121
H   H19       1.0  0.32550  0.56370  0.87690  1.0000 0.1279452424
H   H20       1.0  0.43610  0.62760  0.94330  1.0000 0.1183506416
H   H21       1.0  0.83660  0.73760  0.92460  1.0000 0.1083385032
H   H22       1.0  0.71020  0.67000  0.86060  1.0000 0.1183506416
H   H23       1.0  0.18740  0.58140  0.09930  1.0000 0.1279452424
H   H24       1.0  0.05600  0.63050  0.02900  1.0000 0.1183506416
H   H25       1.0  0.62900  0.75340  0.03450  1.0000 0.1083385032
H   H26       1.0  0.77000  0.70270  0.10410  1.0000 0.1083385032
H   H27       1.0  0.42540  0.84580  0.82210  1.0000 0.1279452424
H   H28       1.0  0.47600  0.79390  0.89730  1.0000 0.1083385032
H   H29       1.0  0.89230  0.88960  0.94980  1.0000 0.1183506416
H   H30       1.0  0.81300  0.93190  0.87320  1.0000 0.1279452424
H   H31       1.0  0.03900  0.85450  0.13370  1.0000 0.1279452424
H   H32       1.0  0.98440  0.79480  0.06280  1.0000 0.1083385032
H   H33       1.0  0.48530  0.90740  0.99630  1.0000 0.1183506416
H   H34       1.0  0.54760  0.96440  0.06900  1.0000 0.1183506416
H   H35       1.0  0.19000  0.11210  0.30060  1.0000 0.3657661121
H   H36       1.0  0.67450  0.06370  0.62310  1.0000 0.1279452424
H   H37       1.0  0.56390  0.12760  0.55670  1.0000 0.1183506416
H   H38       1.0  0.16340  0.23760  0.57540  1.0000 0.1083385032
H   H39       1.0  0.28980  0.17000  0.63940  1.0000 0.1183506416
H   H40       1.0  0.81260  0.08140  0.40070  1.0000 0.1279452424
H   H41       1.0  0.94400  0.13050  0.47100  1.0000 0.1183506416
H   H42       1.0  0.37100  0.25340  0.46550  1.0000 0.1083385032
H   H43       1.0  0.23000  0.20270  0.39590  1.0000 0.1083385032
H   H44       1.0  0.57460  0.34580  0.67790  1.0000 0.1279452424
H   H45       1.0  0.52400  0.29390  0.60270  1.0000 0.1083385032
H   H46       1.0  0.10770  0.38960  0.55020  1.0000 0.1183506416
H   H47       1.0  0.18700  0.43190  0.62680  1.0000 0.1279452424
H   H48       1.0  0.96100  0.35450  0.36630  1.0000 0.1279452424
H   H49       1.0  0.01560  0.29480  0.43720  1.0000 0.1083385032
H   H50       1.0  0.51470  0.40740  0.50370  1.0000 0.1183506416
H   H51       1.0  0.45240  0.46440  0.43100  1.0000 0.1183506416
H   H52       1.0  0.19000  0.88790  0.69940  1.0000 0.3657661121
H   H53       1.0  0.67450  0.93630  0.37690  1.0000 0.1279452424
H   H54       1.0  0.56390  0.87240  0.44330  1.0000 0.1183506416
H   H55       1.0  0.16340  0.76240  0.42460  1.0000 0.1083385032
H   H56       1.0  0.28980  0.83000  0.36060  1.0000 0.1183506416
H   H57       1.0  0.81260  0.91860  0.59930  1.0000 0.1279452424
H   H58       1.0  0.94400  0.86950  0.52900  1.0000 0.1183506416
H   H59       1.0  0.37100  0.74660  0.53450  1.0000 0.1083385032
H   H60       1.0  0.23000  0.79730  0.60410  1.0000 0.1083385032
H   H61       1.0  0.57460  0.65420  0.32210  1.0000 0.1279452424
H   H62       1.0  0.52400  0.70610  0.39730  1.0000 0.1083385032
H   H63       1.0  0.10770  0.61040  0.44980  1.0000 0.1183506416
H   H64       1.0  0.18700  0.56810  0.37320  1.0000 0.1279452424
H   H65       1.0  0.96100  0.64550  0.63370  1.0000 0.1279452424
H   H66       1.0  0.01560  0.70520  0.56280  1.0000 0.1083385032
H   H67       1.0  0.51470  0.59260  0.49630  1.0000 0.1183506416
H   H68       1.0  0.45240  0.53560  0.56900  1.0000 0.1183506416
C   C1        1.0  0.93350  0.43190  0.18090  1.0000 0.6306841266
C   C2        1.0  0.00800  0.38900  0.13830  1.0000 -0.0308501259
C   C3        1.0  0.22520  0.40160  0.11340  1.0000 -0.0993198898
C   C4        1.0  0.29350  0.36230  0.07410  1.0000 -0.1499016393
C   C5        1.0  0.15420  0.30860  0.06030  1.0000 0.0715055749
C   C6        1.0  0.93570  0.29740  0.08480  1.0000 -0.1582571811
C   C7        1.0  0.85960  0.33770  0.12360  1.0000 -0.0993198898
C   C8        1.0  0.57860  0.39810  0.84520  1.0000 0.5646166246
C   C9        1.0  0.49340  0.36400  0.89110  1.0000 -0.0308501259
C   C10       1.0  0.27770  0.38410  0.91400  1.0000 -0.0887617833
C   C11       1.0  0.19670  0.35400  0.95520  1.0000 -0.1419759352
C   C12       1.0  0.32030  0.30070  0.97420  1.0000 0.0715055749
C   C13       1.0  0.53930  0.28110  0.95200  1.0000 -0.1582571811
C   C14       1.0  0.62500  0.31150  0.91070  1.0000 -0.1147153039
C   C15       1.0  0.05180  0.08270  0.21100  1.0000 0.6306841266
C   C16       1.0  0.10250  0.10850  0.16050  1.0000 -0.0308501259
C   C17       1.0  0.31090  0.14800  0.15290  1.0000 -0.0887617833
C   C18       1.0  0.34380  0.17770  0.10760  1.0000 -0.1499016393
C   C19       1.0  0.18200  0.16550  0.06967  1.0000 0.0715055749
C   C20       1.0  0.99240  0.12200  0.07660  1.0000 -0.1582571811
C   C21       1.0  0.94870  0.09540  0.12210  1.0000 -0.0887617833
C   C22       1.0  0.35500  0.05270  0.84390  1.0000 0.5531473797
C   C23       1.0  0.30480  0.08560  0.89130  1.0000 -0.0214941018
C   C24       1.0  0.13380  0.13580  0.89380  1.0000 -0.0887617833
C   C25       1.0  0.10080  0.17170  0.93610  1.0000 -0.1499016393
C   C26       1.0  0.24150  0.15760  0.97710  1.0000 0.0776746091
C   C27       1.0  0.40010  0.10500  0.97550  1.0000 -0.1684054319
C   C28       1.0  0.43460  0.07000  0.93200  1.0000 -0.0993198898
C   C29       1.0  0.23010  0.26580  0.01900  1.0000 -0.0308501259
C   C30       1.0  0.21890  0.20010  0.02160  1.0000 -0.0308501259
C   C31       1.0  0.93350  0.56810  0.81910  1.0000 0.6306841266
C   C32       1.0  0.00800  0.61100  0.86170  1.0000 -0.0308501259
C   C33       1.0  0.22520  0.59840  0.88660  1.0000 -0.0993198898
C   C34       1.0  0.29350  0.63770  0.92590  1.0000 -0.1499016393
C   C35       1.0  0.15420  0.69140  0.93970  1.0000 0.0715055749
C   C36       1.0  0.93570  0.70260  0.91520  1.0000 -0.1582571811
C   C37       1.0  0.85960  0.66230  0.87640  1.0000 -0.0993198898
C   C38       1.0  0.57860  0.60190  0.15480  1.0000 0.5646166246
C   C39       1.0  0.49340  0.63600  0.10890  1.0000 -0.0308501259
C   C40       1.0  0.27770  0.61590  0.08600  1.0000 -0.0887617833
C   C41       1.0  0.19670  0.64600  0.04480  1.0000 -0.1419759352
C   C42       1.0  0.32030  0.69930  0.02580  1.0000 0.0715055749
C   C43       1.0  0.53930  0.71890  0.04800  1.0000 -0.1582571811
C   C44       1.0  0.62500  0.68850  0.08930  1.0000 -0.1147153039
C   C45       1.0  0.05180  0.91730  0.78900  1.0000 0.6306841266
C   C46       1.0  0.10250  0.89150  0.83950  1.0000 -0.0308501259
C   C47       1.0  0.31090  0.85200  0.84710  1.0000 -0.0887617833
C   C48       1.0  0.34380  0.82230  0.89240  1.0000 -0.1499016393
C   C49       1.0  0.18200  0.83450  0.93033  1.0000 0.0715055749
C   C50       1.0  0.99240  0.87800  0.92340  1.0000 -0.1582571811
C   C51       1.0  0.94870  0.90460  0.87790  1.0000 -0.0887617833
C   C52       1.0  0.35500  0.94730  0.15610  1.0000 0.5531473797
C   C53       1.0  0.30480  0.91440  0.10870  1.0000 -0.0214941018
C   C54       1.0  0.13380  0.86420  0.10620  1.0000 -0.0887617833
C   C55       1.0  0.10080  0.82830  0.06390  1.0000 -0.1499016393
C   C56       1.0  0.24150  0.84240  0.02290  1.0000 0.0776746091
C   C57       1.0  0.40010  0.89500  0.02450  1.0000 -0.1684054319
C   C58       1.0  0.43460  0.93000  0.06800  1.0000 -0.0993198898
C   C59       1.0  0.23010  0.73420  0.98100  1.0000 -0.0308501259
C   C60       1.0  0.21890  0.79990  0.97840  1.0000 -0.0308501259
C   C61       1.0  0.06650  0.06810  0.68090  1.0000 0.6306841266
C   C62       1.0  0.99200  0.11100  0.63830  1.0000 -0.0308501259
C   C63       1.0  0.77480  0.09840  0.61340  1.0000 -0.0993198898
C   C64       1.0  0.70650  0.13770  0.57410  1.0000 -0.1499016393
C   C65       1.0  0.84580  0.19140  0.56030  1.0000 0.0715055749
C   C66       1.0  0.06430  0.20260  0.58480  1.0000 -0.1582571811
C   C67       1.0  0.14040  0.16230  0.62360  1.0000 -0.0993198898
C   C68       1.0  0.42140  0.10190  0.34520  1.0000 0.5646166246
C   C69       1.0  0.50660  0.13600  0.39110  1.0000 -0.0308501259
C   C70       1.0  0.72230  0.11590  0.41400  1.0000 -0.0887617833
C   C71       1.0  0.80330  0.14600  0.45520  1.0000 -0.1419759352
C   C72       1.0  0.67970  0.19930  0.47420  1.0000 0.0715055749
C   C73       1.0  0.46070  0.21890  0.45200  1.0000 -0.1582571811
C   C74       1.0  0.37500  0.18850  0.41070  1.0000 -0.1147153039
C   C75       1.0  0.94820  0.41730  0.71100  1.0000 0.6306841266
C   C76       1.0  0.89750  0.39150  0.66050  1.0000 -0.0308501259
C   C77       1.0  0.68910  0.35200  0.65290  1.0000 -0.0887617833
C   C78       1.0  0.65620  0.32230  0.60760  1.0000 -0.1499016393
C   C79       1.0  0.81800  0.33450  0.56967  1.0000 0.0715055749
C   C80       1.0  0.00760  0.37800  0.57660  1.0000 -0.1582571811
C   C81       1.0  0.05130  0.40460  0.62210  1.0000 -0.0887617833
C   C82       1.0  0.64500  0.44730  0.34390  1.0000 0.5531473797
C   C83       1.0  0.69520  0.41440  0.39130  1.0000 -0.0214941018
C   C84       1.0  0.86620  0.36420  0.39380  1.0000 -0.0887617833
C   C85       1.0  0.89920  0.32830  0.43610  1.0000 -0.1499016393
C   C86       1.0  0.75850  0.34240  0.47710  1.0000 0.0776746091
C   C87       1.0  0.59990  0.39500  0.47550  1.0000 -0.1684054319
C   C88       1.0  0.56540  0.43000  0.43200  1.0000 -0.0993198898
C   C89       1.0  0.76990  0.23420  0.51900  1.0000 -0.0308501259
C   C90       1.0  0.78110  0.29990  0.52160  1.0000 -0.0308501259
C   C91       1.0  0.06650  0.93190  0.31910  1.0000 0.6306841266
C   C92       1.0  0.99200  0.88900  0.36170  1.0000 -0.0308501259
C   C93       1.0  0.77480  0.90160  0.38660  1.0000 -0.0993198898
C   C94       1.0  0.70650  0.86230  0.42590  1.0000 -0.1499016393
C   C95       1.0  0.84580  0.80860  0.43970  1.0000 0.0715055749
C   C96       1.0  0.06430  0.79740  0.41520  1.0000 -0.1582571811
C   C97       1.0  0.14040  0.83770  0.37640  1.0000 -0.0993198898
C   C98       1.0  0.42140  0.89810  0.65480  1.0000 0.5646166246
C   C99       1.0  0.50660  0.86400  0.60890  1.0000 -0.0308501259
C   C100      1.0  0.72230  0.88410  0.58600  1.0000 -0.0887617833
C   C101      1.0  0.80330  0.85400  0.54480  1.0000 -0.1419759352
C   C102      1.0  0.67970  0.80070  0.52580  1.0000 0.0715055749
C   C103      1.0  0.46070  0.78110  0.54800  1.0000 -0.1582571811
C   C104      1.0  0.37500  0.81150  0.58930  1.0000 -0.1147153039
C   C105      1.0  0.94820  0.58270  0.28900  1.0000 0.6306841266
C   C106      1.0  0.89750  0.60850  0.33950  1.0000 -0.0308501259
C   C107      1.0  0.68910  0.64800  0.34710  1.0000 -0.0887617833
C   C108      1.0  0.65620  0.67770  0.39240  1.0000 -0.1499016393
C   C109      1.0  0.81800  0.66550  0.43033  1.0000 0.0715055749
C   C110      1.0  0.00760  0.62200  0.42340  1.0000 -0.1582571811
C   C111      1.0  0.05130  0.59540  0.37790  1.0000 -0.0887617833
C   C112      1.0  0.64500  0.55270  0.65610  1.0000 0.5531473797
C   C113      1.0  0.69520  0.58560  0.60870  1.0000 -0.0214941018
C   C114      1.0  0.86620  0.63580  0.60620  1.0000 -0.0887617833
C   C115      1.0  0.89920  0.67170  0.56390  1.0000 -0.1499016393
C   C116      1.0  0.75850  0.65760  0.52290  1.0000 0.0776746091
C   C117      1.0  0.59990  0.60500  0.52450  1.0000 -0.1684054319
C   C118      1.0  0.56540  0.57000  0.56800  1.0000 -0.0993198898
C   C119      1.0  0.76990  0.76580  0.48100  1.0000 -0.0308501259
C   C120      1.0  0.78110  0.70010  0.47840  1.0000 -0.0308501259
O   O1        1.0  0.71000  0.42990  0.19317  1.0000 -0.6349351961
O   O2        1.0  0.09700  0.46440  0.20067  1.0000 -0.6217765171
O   O3        1.0  0.45060  0.43900  0.82549  1.0000 -0.5396850664
O   O4        1.0  0.79680  0.38000  0.82996  1.0000 -0.4489523131
O   O5        1.0  0.83180  0.07130  0.22223  1.0000 -0.6121382672
O   O6        1.0  0.23280  0.07440  0.23935  1.0000 -0.6538995463
O   O7        1.0  0.23250  0.06640  0.80587  1.0000 -0.6025974709
O   O8        1.0  0.52820  0.01200  0.84174  1.0000 -0.6025974709
O   O9        1.0  0.71000  0.57010  0.80683  1.0000 -0.6349351961
O   O10       1.0  0.09700  0.53560  0.79933  1.0000 -0.6217765171
O   O11       1.0  0.45060  0.56100  0.17451  1.0000 -0.5396850664
O   O12       1.0  0.79680  0.62000  0.17004  1.0000 -0.4489523131
O   O13       1.0  0.83180  0.92870  0.77777  1.0000 -0.6121382672
O   O14       1.0  0.23280  0.92560  0.76065  1.0000 -0.6538995463
O   O15       1.0  0.23250  0.93360  0.19413  1.0000 -0.6025974709
O   O16       1.0  0.52820  0.98800  0.15826  1.0000 -0.6025974709
O   O17       1.0  0.29000  0.07010  0.69317  1.0000 -0.6349351961
O   O18       1.0  0.90300  0.03560  0.70067  1.0000 -0.6217765171
O   O19       1.0  0.54940  0.06100  0.32549  1.0000 -0.5396850664
O   O20       1.0  0.20320  0.12000  0.32996  1.0000 -0.4489523131
O   O21       1.0  0.16820  0.42870  0.72223  1.0000 -0.6121382672
O   O22       1.0  0.76720  0.42560  0.73935  1.0000 -0.6538995463
O   O23       1.0  0.76750  0.43360  0.30587  1.0000 -0.6025974709
O   O24       1.0  0.47180  0.48800  0.34174  1.0000 -0.6025974709
O   O25       1.0  0.29000  0.92990  0.30683  1.0000 -0.6349351961
O   O26       1.0  0.90300  0.96440  0.29933  1.0000 -0.6217765171
O   O27       1.0  0.54940  0.93900  0.67451  1.0000 -0.5396850664
O   O28       1.0  0.20320  0.88000  0.67004  1.0000 -0.4489523131
O   O29       1.0  0.16820  0.57130  0.27777  1.0000 -0.6121382672
O   O30       1.0  0.76720  0.57440  0.26065  1.0000 -0.6538995463
O   O31       1.0  0.76750  0.56640  0.69413  1.0000 -0.6025974709
O   O32       1.0  0.47180  0.51200  0.65826  1.0000 -0.6025974709
