# DDEC6 charges by PACMAN v1.1 (https://github.com/mtap-research/PACMAN-charge/)
data_2021[Zr][csq]3[ASR]1
_chemical_formula_sum              "Zr36 H156 C324 N12 O144"
_cell_length_a       32.2913
_cell_length_b       32.2913
_cell_length_c       27.6555
_cell_angle_alpha    90
_cell_angle_beta     90
_cell_angle_gamma    120

_symmetry_space_group_name_H-M    "P 1"
_symmetry_Int_Tables_number       1

loop_
  _symmetry_equiv_pos_as_xyz
  'x, y, z'

loop_
  _atom_site_type_symbol
  _atom_site_label
  _atom_site_symmetry_multiplicity
  _atom_site_fract_x
  _atom_site_fract_y
  _atom_site_fract_z
  _atom_site_occupancy
  _atom_site_charge
Zr  Zr1       1.0  0.52002  0.93102  0.68583  1.0000 2.4422507359
Zr  Zr2       1.0  0.41100  0.47998  0.68583  1.0000 2.4422507359
Zr  Zr3       1.0  0.06898  0.58900  0.68583  1.0000 2.4422507359
Zr  Zr4       1.0  0.47998  0.06898  0.18583  1.0000 2.4422507359
Zr  Zr5       1.0  0.58900  0.52002  0.18583  1.0000 2.4457044436
Zr  Zr6       1.0  0.93102  0.41100  0.18583  1.0000 2.4422507359
Zr  Zr7       1.0  0.58900  0.06898  0.31417  1.0000 2.4422507359
Zr  Zr8       1.0  0.93102  0.52002  0.31417  1.0000 2.4422507359
Zr  Zr9       1.0  0.47998  0.41100  0.31417  1.0000 2.4457044436
Zr  Zr10      1.0  0.41100  0.93102  0.81417  1.0000 2.4422507359
Zr  Zr11      1.0  0.06898  0.47998  0.81417  1.0000 2.4422507359
Zr  Zr12      1.0  0.52002  0.58900  0.81417  1.0000 2.4422507359
Zr  Zr13      1.0  0.47998  0.06898  0.31417  1.0000 2.4422507359
Zr  Zr14      1.0  0.58900  0.52002  0.31417  1.0000 2.4457044436
Zr  Zr15      1.0  0.93102  0.41100  0.31417  1.0000 2.4422507359
Zr  Zr16      1.0  0.52002  0.93102  0.81417  1.0000 2.4422507359
Zr  Zr17      1.0  0.41100  0.47998  0.81417  1.0000 2.4422507359
Zr  Zr18      1.0  0.06898  0.58900  0.81417  1.0000 2.4422507359
Zr  Zr19      1.0  0.41100  0.93102  0.68583  1.0000 2.4422507359
Zr  Zr20      1.0  0.06898  0.47998  0.68583  1.0000 2.4422507359
Zr  Zr21      1.0  0.52002  0.58900  0.68583  1.0000 2.4422507359
Zr  Zr22      1.0  0.58900  0.06898  0.18583  1.0000 2.4422507359
Zr  Zr23      1.0  0.93102  0.52002  0.18583  1.0000 2.4422507359
Zr  Zr24      1.0  0.47998  0.41100  0.18583  1.0000 2.4457044436
Zr  Zr25      1.0  0.84354  0.42177  0.25000  1.0000 2.3360726668
Zr  Zr26      1.0  0.57823  0.15646  0.25000  1.0000 2.3360726668
Zr  Zr27      1.0  0.57823  0.42177  0.25000  1.0000 2.3360726668
Zr  Zr28      1.0  0.15646  0.57823  0.75000  1.0000 2.329396887
Zr  Zr29      1.0  0.42177  0.84354  0.75000  1.0000 2.329396887
Zr  Zr30      1.0  0.42177  0.57823  0.75000  1.0000 2.329396887
Zr  Zr31      1.0  0.50929  0.01858  0.75000  1.0000 2.329396887
Zr  Zr32      1.0  0.50929  0.49071  0.75000  1.0000 2.329396887
Zr  Zr33      1.0  0.98142  0.49071  0.75000  1.0000 2.329396887
Zr  Zr34      1.0  0.49071  0.98142  0.25000  1.0000 2.329396887
Zr  Zr35      1.0  0.49071  0.50929  0.25000  1.0000 2.329396887
Zr  Zr36      1.0  0.01858  0.50929  0.25000  1.0000 2.3202278449
H   H1        1.0  0.69946  0.17588  0.48568  1.0000 0.1108771546
H   H2        1.0  0.64007  0.13812  0.68567  1.0000 0.1217950032
H   H3        1.0  0.70094  0.19920  0.64028  1.0000 0.1108771546
H   H4        1.0  0.61825  0.04333  0.57922  1.0000 0.1217950032
H   H5        1.0  0.67504  0.10539  0.53127  1.0000 0.1108771546
H   H6        1.0  0.81650  0.30839  0.41392  1.0000 0.1108771546
H   H7        1.0  0.47642  0.30054  0.48568  1.0000 0.1108771546
H   H8        1.0  0.49805  0.35993  0.68567  1.0000 0.1217950032
H   H9        1.0  0.49826  0.29906  0.64028  1.0000 0.1108771546
H   H10       1.0  0.42508  0.38175  0.57922  1.0000 0.1217950032
H   H11       1.0  0.43035  0.32496  0.53127  1.0000 0.1108771546
H   H12       1.0  0.49189  0.18350  0.41392  1.0000 0.1108771546
H   H13       1.0  0.82412  0.52358  0.48568  1.0000 0.1108771546
H   H14       1.0  0.86188  0.50195  0.68567  1.0000 0.1217950032
H   H15       1.0  0.80080  0.50174  0.64028  1.0000 0.1108771546
H   H16       1.0  0.95667  0.57492  0.57922  1.0000 0.1217950032
H   H17       1.0  0.89461  0.56965  0.53127  1.0000 0.1108771546
H   H18       1.0  0.69161  0.50811  0.41392  1.0000 0.1108771546
H   H19       1.0  0.30054  0.82412  0.98568  1.0000 0.1108771546
H   H20       1.0  0.35993  0.86188  0.18567  1.0000 0.1217950032
H   H21       1.0  0.29906  0.80080  0.14028  1.0000 0.1108771546
H   H22       1.0  0.38175  0.95667  0.07922  1.0000 0.1217950032
H   H23       1.0  0.32496  0.89461  0.03127  1.0000 0.1108771546
H   H24       1.0  0.18350  0.69161  0.91392  1.0000 0.1108771546
H   H25       1.0  0.52358  0.69946  0.98568  1.0000 0.1108771546
H   H26       1.0  0.50195  0.64007  0.18567  1.0000 0.1217950032
H   H27       1.0  0.50174  0.70094  0.14028  1.0000 0.1108771546
H   H28       1.0  0.57492  0.61825  0.07922  1.0000 0.1217950032
H   H29       1.0  0.56965  0.67504  0.03127  1.0000 0.1108771546
H   H30       1.0  0.50811  0.81650  0.91392  1.0000 0.1108771546
H   H31       1.0  0.17588  0.47642  0.98568  1.0000 0.1108771546
H   H32       1.0  0.13812  0.49805  0.18567  1.0000 0.1217950032
H   H33       1.0  0.19920  0.49826  0.14028  1.0000 0.1108771546
H   H34       1.0  0.04333  0.42508  0.07922  1.0000 0.1217950032
H   H35       1.0  0.10539  0.43035  0.03127  1.0000 0.1108771546
H   H36       1.0  0.30839  0.49189  0.91392  1.0000 0.1108771546
H   H37       1.0  0.52358  0.82412  0.51432  1.0000 0.1108771546
H   H38       1.0  0.50195  0.86188  0.31433  1.0000 0.1217950032
H   H39       1.0  0.50174  0.80080  0.35972  1.0000 0.1108771546
H   H40       1.0  0.57492  0.95667  0.42078  1.0000 0.1217950032
H   H41       1.0  0.56965  0.89461  0.46873  1.0000 0.1108771546
H   H42       1.0  0.50811  0.69161  0.58608  1.0000 0.1108771546
H   H43       1.0  0.17588  0.69946  0.51432  1.0000 0.1108771546
H   H44       1.0  0.13812  0.64007  0.31433  1.0000 0.1217950032
H   H45       1.0  0.19920  0.70094  0.35972  1.0000 0.1108771546
H   H46       1.0  0.04333  0.61825  0.42078  1.0000 0.1217950032
H   H47       1.0  0.10539  0.67504  0.46873  1.0000 0.1108771546
H   H48       1.0  0.30839  0.81650  0.58608  1.0000 0.1108771546
H   H49       1.0  0.30054  0.47642  0.51432  1.0000 0.1108771546
H   H50       1.0  0.35993  0.49805  0.31433  1.0000 0.1217950032
H   H51       1.0  0.29906  0.49826  0.35972  1.0000 0.1108771546
H   H52       1.0  0.38175  0.42508  0.42078  1.0000 0.1217950032
H   H53       1.0  0.32496  0.43035  0.46873  1.0000 0.1108771546
H   H54       1.0  0.18350  0.49189  0.58608  1.0000 0.1108771546
H   H55       1.0  0.47642  0.17588  0.01432  1.0000 0.1108771546
H   H56       1.0  0.49805  0.13812  0.81433  1.0000 0.1284904868
H   H57       1.0  0.49826  0.19920  0.85972  1.0000 0.1108771546
H   H58       1.0  0.42508  0.04333  0.92078  1.0000 0.1217950032
H   H59       1.0  0.43035  0.10539  0.96873  1.0000 0.1108771546
H   H60       1.0  0.49189  0.30839  0.08608  1.0000 0.1108771546
H   H61       1.0  0.82412  0.30054  0.01432  1.0000 0.1108771546
H   H62       1.0  0.86188  0.35993  0.81433  1.0000 0.1217950032
H   H63       1.0  0.80080  0.29906  0.85972  1.0000 0.1108771546
H   H64       1.0  0.95667  0.38175  0.92078  1.0000 0.1217950032
H   H65       1.0  0.89461  0.32496  0.96873  1.0000 0.1108771546
H   H66       1.0  0.69161  0.18350  0.08608  1.0000 0.1108771546
H   H67       1.0  0.69946  0.52358  0.01432  1.0000 0.1108771546
H   H68       1.0  0.64007  0.50195  0.81433  1.0000 0.1217950032
H   H69       1.0  0.70094  0.50174  0.85972  1.0000 0.1108771546
H   H70       1.0  0.61825  0.57492  0.92078  1.0000 0.1217950032
H   H71       1.0  0.67504  0.56965  0.96873  1.0000 0.1108771546
H   H72       1.0  0.81650  0.50811  0.08608  1.0000 0.1108771546
H   H73       1.0  0.30054  0.82412  0.51432  1.0000 0.1108771546
H   H74       1.0  0.35993  0.86188  0.31433  1.0000 0.1217950032
H   H75       1.0  0.29906  0.80080  0.35972  1.0000 0.1108771546
H   H76       1.0  0.38175  0.95667  0.42078  1.0000 0.1217950032
H   H77       1.0  0.32496  0.89461  0.46873  1.0000 0.1108771546
H   H78       1.0  0.18350  0.69161  0.58608  1.0000 0.1108771546
H   H79       1.0  0.52358  0.69946  0.51432  1.0000 0.1108771546
H   H80       1.0  0.50195  0.64007  0.31433  1.0000 0.1217950032
H   H81       1.0  0.50174  0.70094  0.35972  1.0000 0.1108771546
H   H82       1.0  0.57492  0.61825  0.42078  1.0000 0.1217950032
H   H83       1.0  0.56965  0.67504  0.46873  1.0000 0.1108771546
H   H84       1.0  0.50811  0.81650  0.58608  1.0000 0.1108771546
H   H85       1.0  0.17588  0.47642  0.51432  1.0000 0.1108771546
H   H86       1.0  0.13812  0.49805  0.31433  1.0000 0.1217950032
H   H87       1.0  0.19920  0.49826  0.35972  1.0000 0.1108771546
H   H88       1.0  0.04333  0.42508  0.42078  1.0000 0.1217950032
H   H89       1.0  0.10539  0.43035  0.46873  1.0000 0.1108771546
H   H90       1.0  0.30839  0.49189  0.58608  1.0000 0.1108771546
H   H91       1.0  0.69946  0.17588  0.01432  1.0000 0.1108771546
H   H92       1.0  0.64007  0.13812  0.81433  1.0000 0.1217950032
H   H93       1.0  0.70094  0.19920  0.85972  1.0000 0.1108771546
H   H94       1.0  0.61825  0.04333  0.92078  1.0000 0.1217950032
H   H95       1.0  0.67504  0.10539  0.96873  1.0000 0.1108771546
H   H96       1.0  0.81650  0.30839  0.08608  1.0000 0.1108771546
H   H97       1.0  0.47642  0.30054  0.01432  1.0000 0.1108771546
H   H98       1.0  0.49805  0.35993  0.81433  1.0000 0.1217950032
H   H99       1.0  0.49826  0.29906  0.85972  1.0000 0.1108771546
H   H100      1.0  0.42508  0.38175  0.92078  1.0000 0.1217950032
H   H101      1.0  0.43035  0.32496  0.96873  1.0000 0.1108771546
H   H102      1.0  0.49189  0.18350  0.08608  1.0000 0.1108771546
H   H103      1.0  0.82412  0.52358  0.01432  1.0000 0.1108771546
H   H104      1.0  0.86188  0.50195  0.81433  1.0000 0.1217950032
H   H105      1.0  0.80080  0.50174  0.85972  1.0000 0.1108771546
H   H106      1.0  0.95667  0.57492  0.92078  1.0000 0.1217950032
H   H107      1.0  0.89461  0.56965  0.96873  1.0000 0.1108771546
H   H108      1.0  0.69161  0.50811  0.08608  1.0000 0.1108771546
H   H109      1.0  0.47642  0.17588  0.48568  1.0000 0.1108771546
H   H110      1.0  0.49805  0.13812  0.68567  1.0000 0.1284904868
H   H111      1.0  0.49826  0.19920  0.64028  1.0000 0.1108771546
H   H112      1.0  0.42508  0.04333  0.57922  1.0000 0.1217950032
H   H113      1.0  0.43035  0.10539  0.53127  1.0000 0.1108771546
H   H114      1.0  0.49189  0.30839  0.41392  1.0000 0.1108771546
H   H115      1.0  0.82412  0.30054  0.48568  1.0000 0.1108771546
H   H116      1.0  0.86188  0.35993  0.68567  1.0000 0.1217950032
H   H117      1.0  0.80080  0.29906  0.64028  1.0000 0.1108771546
H   H118      1.0  0.95667  0.38175  0.57922  1.0000 0.1217950032
H   H119      1.0  0.89461  0.32496  0.53127  1.0000 0.1108771546
H   H120      1.0  0.69161  0.18350  0.41392  1.0000 0.1108771546
H   H121      1.0  0.69946  0.52358  0.48568  1.0000 0.1108771546
H   H122      1.0  0.64007  0.50195  0.68567  1.0000 0.1217950032
H   H123      1.0  0.70094  0.50174  0.64028  1.0000 0.1108771546
H   H124      1.0  0.61825  0.57492  0.57922  1.0000 0.1217950032
H   H125      1.0  0.67504  0.56965  0.53127  1.0000 0.1108771546
H   H126      1.0  0.81650  0.50811  0.41392  1.0000 0.1108771546
H   H127      1.0  0.52358  0.82412  0.98568  1.0000 0.1108771546
H   H128      1.0  0.50195  0.86188  0.18567  1.0000 0.1217950032
H   H129      1.0  0.50174  0.80080  0.14028  1.0000 0.1108771546
H   H130      1.0  0.57492  0.95667  0.07922  1.0000 0.1217950032
H   H131      1.0  0.56965  0.89461  0.03127  1.0000 0.1108771546
H   H132      1.0  0.50811  0.69161  0.91392  1.0000 0.1108771546
H   H133      1.0  0.17588  0.69946  0.98568  1.0000 0.1108771546
H   H134      1.0  0.13812  0.64007  0.18567  1.0000 0.1217950032
H   H135      1.0  0.19920  0.70094  0.14028  1.0000 0.1108771546
H   H136      1.0  0.04333  0.61825  0.07922  1.0000 0.1217950032
H   H137      1.0  0.10539  0.67504  0.03127  1.0000 0.1108771546
H   H138      1.0  0.30839  0.81650  0.91392  1.0000 0.1108771546
H   H139      1.0  0.30054  0.47642  0.98568  1.0000 0.1108771546
H   H140      1.0  0.35993  0.49805  0.18567  1.0000 0.1217950032
H   H141      1.0  0.29906  0.49826  0.14028  1.0000 0.1108771546
H   H142      1.0  0.38175  0.42508  0.07922  1.0000 0.1217950032
H   H143      1.0  0.32496  0.43035  0.03127  1.0000 0.1108771546
H   H144      1.0  0.18350  0.49189  0.91392  1.0000 0.1108771546
H   H145      1.0  0.72959  0.27041  0.29704  1.0000 0.1284904868
H   H146      1.0  0.54082  0.27041  0.29704  1.0000 0.1284904868
H   H147      1.0  0.72959  0.45918  0.29704  1.0000 0.1284904868
H   H148      1.0  0.27041  0.72959  0.79704  1.0000 0.1284904868
H   H149      1.0  0.45918  0.72959  0.79704  1.0000 0.1284904868
H   H150      1.0  0.27041  0.54082  0.79704  1.0000 0.1284904868
H   H151      1.0  0.45918  0.72959  0.70296  1.0000 0.1284904868
H   H152      1.0  0.27041  0.72959  0.70296  1.0000 0.1284904868
H   H153      1.0  0.27041  0.54082  0.70296  1.0000 0.1284904868
H   H154      1.0  0.54082  0.27041  0.20296  1.0000 0.1284904868
H   H155      1.0  0.72959  0.27041  0.20296  1.0000 0.1284904868
H   H156      1.0  0.72959  0.45918  0.20296  1.0000 0.1284904868
C   C1        1.0  0.58618  0.04604  0.66712  1.0000 0.620487589
C   C2        1.0  0.81615  0.33857  0.32572  1.0000 0.6270692928
C   C3        1.0  0.77857  0.29552  0.35186  1.0000 -0.0335452082
C   C4        1.0  0.72610  0.20089  0.50206  1.0000 -0.2514253511
C   C5        1.0  0.73081  0.19825  0.55162  1.0000 0.2059378824
C   C6        1.0  0.62381  0.08498  0.63685  1.0000 -0.042649231
C   C7        1.0  0.64794  0.13132  0.65469  1.0000 -0.1014418176
C   C8        1.0  0.68358  0.16778  0.62735  1.0000 -0.1439912273
C   C9        1.0  0.63440  0.07516  0.59124  1.0000 -0.1014418176
C   C10       1.0  0.69415  0.15848  0.58058  1.0000 0.0380660218
C   C11       1.0  0.66882  0.11209  0.56303  1.0000 -0.1574568433
C   C12       1.0  0.78715  0.28662  0.39873  1.0000 -0.1574568433
C   C13       1.0  0.45986  0.41382  0.66712  1.0000 0.620487589
C   C14       1.0  0.52242  0.18385  0.32572  1.0000 0.6270692928
C   C15       1.0  0.51695  0.22143  0.35186  1.0000 -0.0335452082
C   C16       1.0  0.47479  0.27390  0.50206  1.0000 -0.2514253511
C   C17       1.0  0.46744  0.26919  0.55162  1.0000 0.2059378824
C   C18       1.0  0.46117  0.37619  0.63685  1.0000 -0.042649231
C   C19       1.0  0.48338  0.35206  0.65469  1.0000 -0.1014418176
C   C20       1.0  0.48420  0.31642  0.62735  1.0000 -0.1439912273
C   C21       1.0  0.44076  0.36560  0.59124  1.0000 -0.1014418176
C   C22       1.0  0.46433  0.30585  0.58058  1.0000 0.0380660218
C   C23       1.0  0.44327  0.33118  0.56303  1.0000 -0.1574568433
C   C24       1.0  0.49947  0.21285  0.39873  1.0000 -0.1574568433
C   C25       1.0  0.95396  0.54014  0.66712  1.0000 0.620487589
C   C26       1.0  0.66143  0.47758  0.32572  1.0000 0.6270692928
C   C27       1.0  0.70448  0.48305  0.35186  1.0000 -0.0335452082
C   C28       1.0  0.79911  0.52521  0.50206  1.0000 -0.2514253511
C   C29       1.0  0.80175  0.53256  0.55162  1.0000 0.2059378824
C   C30       1.0  0.91502  0.53883  0.63685  1.0000 -0.042649231
C   C31       1.0  0.86868  0.51662  0.65469  1.0000 -0.1014418176
C   C32       1.0  0.83222  0.51580  0.62735  1.0000 -0.1439912273
C   C33       1.0  0.92484  0.55924  0.59124  1.0000 -0.1014418176
C   C34       1.0  0.84152  0.53567  0.58058  1.0000 0.0380660218
C   C35       1.0  0.88791  0.55673  0.56303  1.0000 -0.1574568433
C   C36       1.0  0.71338  0.50053  0.39873  1.0000 -0.1574568433
C   C37       1.0  0.41382  0.95396  0.16712  1.0000 0.620487589
C   C38       1.0  0.18385  0.66143  0.82572  1.0000 0.6270692928
C   C39       1.0  0.22143  0.70448  0.85186  1.0000 -0.0335452082
C   C40       1.0  0.27390  0.79911  0.00206  1.0000 -0.2514253511
C   C41       1.0  0.26919  0.80175  0.05162  1.0000 0.2059378824
C   C42       1.0  0.37619  0.91502  0.13685  1.0000 -0.042649231
C   C43       1.0  0.35206  0.86868  0.15469  1.0000 -0.1014418176
C   C44       1.0  0.31642  0.83222  0.12735  1.0000 -0.1439912273
C   C45       1.0  0.36560  0.92484  0.09124  1.0000 -0.1014418176
C   C46       1.0  0.30585  0.84152  0.08058  1.0000 0.0380660218
C   C47       1.0  0.33118  0.88791  0.06303  1.0000 -0.1574568433
C   C48       1.0  0.21285  0.71338  0.89873  1.0000 -0.1574568433
C   C49       1.0  0.54014  0.58618  0.16712  1.0000 0.620487589
C   C50       1.0  0.47758  0.81615  0.82572  1.0000 0.6270692928
C   C51       1.0  0.48305  0.77857  0.85186  1.0000 -0.0335452082
C   C52       1.0  0.52521  0.72610  0.00206  1.0000 -0.2514253511
C   C53       1.0  0.53256  0.73081  0.05162  1.0000 0.2059378824
C   C54       1.0  0.53883  0.62381  0.13685  1.0000 -0.042649231
C   C55       1.0  0.51662  0.64794  0.15469  1.0000 -0.1014418176
C   C56       1.0  0.51580  0.68358  0.12735  1.0000 -0.1439912273
C   C57       1.0  0.55924  0.63440  0.09124  1.0000 -0.1014418176
C   C58       1.0  0.53567  0.69415  0.08058  1.0000 0.0380660218
C   C59       1.0  0.55673  0.66882  0.06303  1.0000 -0.1574568433
C   C60       1.0  0.50053  0.78715  0.89873  1.0000 -0.1574568433
C   C61       1.0  0.04604  0.45986  0.16712  1.0000 0.620487589
C   C62       1.0  0.33857  0.52242  0.82572  1.0000 0.6270692928
C   C63       1.0  0.29552  0.51695  0.85186  1.0000 -0.0335452082
C   C64       1.0  0.20089  0.47479  0.00206  1.0000 -0.2514253511
C   C65       1.0  0.19825  0.46744  0.05162  1.0000 0.2059378824
C   C66       1.0  0.08498  0.46117  0.13685  1.0000 -0.042649231
C   C67       1.0  0.13132  0.48338  0.15469  1.0000 -0.1014418176
C   C68       1.0  0.16778  0.48420  0.12735  1.0000 -0.1439912273
C   C69       1.0  0.07516  0.44076  0.09124  1.0000 -0.1014418176
C   C70       1.0  0.15848  0.46433  0.08058  1.0000 0.0380660218
C   C71       1.0  0.11209  0.44327  0.06303  1.0000 -0.1574568433
C   C72       1.0  0.28662  0.49947  0.89873  1.0000 -0.1574568433
C   C73       1.0  0.54014  0.95396  0.33288  1.0000 0.620487589
C   C74       1.0  0.47758  0.66143  0.67428  1.0000 0.6270692928
C   C75       1.0  0.48305  0.70448  0.64814  1.0000 -0.0335452082
C   C76       1.0  0.52521  0.79911  0.49794  1.0000 -0.2514253511
C   C77       1.0  0.53256  0.80175  0.44838  1.0000 0.2059378824
C   C78       1.0  0.53883  0.91502  0.36315  1.0000 -0.042649231
C   C79       1.0  0.51662  0.86868  0.34531  1.0000 -0.1014418176
C   C80       1.0  0.51580  0.83222  0.37265  1.0000 -0.1439912273
C   C81       1.0  0.55924  0.92484  0.40876  1.0000 -0.1014418176
C   C82       1.0  0.53567  0.84152  0.41942  1.0000 0.0380660218
C   C83       1.0  0.55673  0.88791  0.43697  1.0000 -0.1574568433
C   C84       1.0  0.50053  0.71338  0.60127  1.0000 -0.1574568433
C   C85       1.0  0.04604  0.58618  0.33288  1.0000 0.620487589
C   C86       1.0  0.33857  0.81615  0.67428  1.0000 0.6270692928
C   C87       1.0  0.29552  0.77857  0.64814  1.0000 -0.0335452082
C   C88       1.0  0.20089  0.72610  0.49794  1.0000 -0.2514253511
C   C89       1.0  0.19825  0.73081  0.44838  1.0000 0.2059378824
C   C90       1.0  0.08498  0.62381  0.36315  1.0000 -0.042649231
C   C91       1.0  0.13132  0.64794  0.34531  1.0000 -0.1014418176
C   C92       1.0  0.16778  0.68358  0.37265  1.0000 -0.1439912273
C   C93       1.0  0.07516  0.63440  0.40876  1.0000 -0.1014418176
C   C94       1.0  0.15848  0.69415  0.41942  1.0000 0.0380660218
C   C95       1.0  0.11209  0.66882  0.43697  1.0000 -0.1574568433
C   C96       1.0  0.28662  0.78715  0.60127  1.0000 -0.1574568433
C   C97       1.0  0.41382  0.45986  0.33288  1.0000 0.620487589
C   C98       1.0  0.18385  0.52242  0.67428  1.0000 0.6270692928
C   C99       1.0  0.22143  0.51695  0.64814  1.0000 -0.0335452082
C   C100      1.0  0.27390  0.47479  0.49794  1.0000 -0.2514253511
C   C101      1.0  0.26919  0.46744  0.44838  1.0000 0.2059378824
C   C102      1.0  0.37619  0.46117  0.36315  1.0000 -0.042649231
C   C103      1.0  0.35206  0.48338  0.34531  1.0000 -0.1014418176
C   C104      1.0  0.31642  0.48420  0.37265  1.0000 -0.1439912273
C   C105      1.0  0.36560  0.44076  0.40876  1.0000 -0.1014418176
C   C106      1.0  0.30585  0.46433  0.41942  1.0000 0.0380660218
C   C107      1.0  0.33118  0.44327  0.43697  1.0000 -0.1574568433
C   C108      1.0  0.21285  0.49947  0.60127  1.0000 -0.1574568433
C   C109      1.0  0.45986  0.04604  0.83288  1.0000 0.620487589
C   C110      1.0  0.52242  0.33857  0.17428  1.0000 0.6270692928
C   C111      1.0  0.51695  0.29552  0.14814  1.0000 -0.0335452082
C   C112      1.0  0.47479  0.20089  0.99794  1.0000 -0.2514253511
C   C113      1.0  0.46744  0.19825  0.94838  1.0000 0.2059378824
C   C114      1.0  0.46117  0.08498  0.86315  1.0000 -0.042649231
C   C115      1.0  0.48338  0.13132  0.84531  1.0000 -0.1014418176
C   C116      1.0  0.48420  0.16778  0.87265  1.0000 -0.1439912273
C   C117      1.0  0.44076  0.07516  0.90876  1.0000 -0.1014418176
C   C118      1.0  0.46433  0.15848  0.91942  1.0000 0.0380660218
C   C119      1.0  0.44327  0.11209  0.93697  1.0000 -0.1574568433
C   C120      1.0  0.49947  0.28662  0.10127  1.0000 -0.1574568433
C   C121      1.0  0.95396  0.41382  0.83288  1.0000 0.620487589
C   C122      1.0  0.66143  0.18385  0.17428  1.0000 0.6270692928
C   C123      1.0  0.70448  0.22143  0.14814  1.0000 -0.0335452082
C   C124      1.0  0.79911  0.27390  0.99794  1.0000 -0.2514253511
C   C125      1.0  0.80175  0.26919  0.94838  1.0000 0.2059378824
C   C126      1.0  0.91502  0.37619  0.86315  1.0000 -0.042649231
C   C127      1.0  0.86868  0.35206  0.84531  1.0000 -0.1014418176
C   C128      1.0  0.83222  0.31642  0.87265  1.0000 -0.1439912273
C   C129      1.0  0.92484  0.36560  0.90876  1.0000 -0.1014418176
C   C130      1.0  0.84152  0.30585  0.91942  1.0000 0.0380660218
C   C131      1.0  0.88791  0.33118  0.93697  1.0000 -0.1574568433
C   C132      1.0  0.71338  0.21285  0.10127  1.0000 -0.1574568433
C   C133      1.0  0.58618  0.54014  0.83288  1.0000 0.620487589
C   C134      1.0  0.81615  0.47758  0.17428  1.0000 0.6270692928
C   C135      1.0  0.77857  0.48305  0.14814  1.0000 -0.0335452082
C   C136      1.0  0.72610  0.52521  0.99794  1.0000 -0.2514253511
C   C137      1.0  0.73081  0.53256  0.94838  1.0000 0.2059378824
C   C138      1.0  0.62381  0.53883  0.86315  1.0000 -0.042649231
C   C139      1.0  0.64794  0.51662  0.84531  1.0000 -0.1014418176
C   C140      1.0  0.68358  0.51580  0.87265  1.0000 -0.1439912273
C   C141      1.0  0.63440  0.55924  0.90876  1.0000 -0.1014418176
C   C142      1.0  0.69415  0.53567  0.91942  1.0000 0.0380660218
C   C143      1.0  0.66882  0.55673  0.93697  1.0000 -0.1574568433
C   C144      1.0  0.78715  0.50053  0.10127  1.0000 -0.1574568433
C   C145      1.0  0.41382  0.95396  0.33288  1.0000 0.620487589
C   C146      1.0  0.18385  0.66143  0.67428  1.0000 0.6270692928
C   C147      1.0  0.22143  0.70448  0.64814  1.0000 -0.0335452082
C   C148      1.0  0.27390  0.79911  0.49794  1.0000 -0.2514253511
C   C149      1.0  0.26919  0.80175  0.44838  1.0000 0.2059378824
C   C150      1.0  0.37619  0.91502  0.36315  1.0000 -0.042649231
C   C151      1.0  0.35206  0.86868  0.34531  1.0000 -0.1014418176
C   C152      1.0  0.31642  0.83222  0.37265  1.0000 -0.1439912273
C   C153      1.0  0.36560  0.92484  0.40876  1.0000 -0.1014418176
C   C154      1.0  0.30585  0.84152  0.41942  1.0000 0.0380660218
C   C155      1.0  0.33118  0.88791  0.43697  1.0000 -0.1574568433
C   C156      1.0  0.21285  0.71338  0.60127  1.0000 -0.1574568433
C   C157      1.0  0.54014  0.58618  0.33288  1.0000 0.620487589
C   C158      1.0  0.47758  0.81615  0.67428  1.0000 0.6270692928
C   C159      1.0  0.48305  0.77857  0.64814  1.0000 -0.0335452082
C   C160      1.0  0.52521  0.72610  0.49794  1.0000 -0.2514253511
C   C161      1.0  0.53256  0.73081  0.44838  1.0000 0.2059378824
C   C162      1.0  0.53883  0.62381  0.36315  1.0000 -0.042649231
C   C163      1.0  0.51662  0.64794  0.34531  1.0000 -0.1014418176
C   C164      1.0  0.51580  0.68358  0.37265  1.0000 -0.1439912273
C   C165      1.0  0.55924  0.63440  0.40876  1.0000 -0.1014418176
C   C166      1.0  0.53567  0.69415  0.41942  1.0000 0.0380660218
C   C167      1.0  0.55673  0.66882  0.43697  1.0000 -0.1574568433
C   C168      1.0  0.50053  0.78715  0.60127  1.0000 -0.1574568433
C   C169      1.0  0.04604  0.45986  0.33288  1.0000 0.620487589
C   C170      1.0  0.33857  0.52242  0.67428  1.0000 0.6270692928
C   C171      1.0  0.29552  0.51695  0.64814  1.0000 -0.0335452082
C   C172      1.0  0.20089  0.47479  0.49794  1.0000 -0.2514253511
C   C173      1.0  0.19825  0.46744  0.44838  1.0000 0.2059378824
C   C174      1.0  0.08498  0.46117  0.36315  1.0000 -0.042649231
C   C175      1.0  0.13132  0.48338  0.34531  1.0000 -0.1014418176
C   C176      1.0  0.16778  0.48420  0.37265  1.0000 -0.1439912273
C   C177      1.0  0.07516  0.44076  0.40876  1.0000 -0.1014418176
C   C178      1.0  0.15848  0.46433  0.41942  1.0000 0.0380660218
C   C179      1.0  0.11209  0.44327  0.43697  1.0000 -0.1574568433
C   C180      1.0  0.28662  0.49947  0.60127  1.0000 -0.1574568433
C   C181      1.0  0.58618  0.04604  0.83288  1.0000 0.620487589
C   C182      1.0  0.81615  0.33857  0.17428  1.0000 0.6270692928
C   C183      1.0  0.77857  0.29552  0.14814  1.0000 -0.0335452082
C   C184      1.0  0.72610  0.20089  0.99794  1.0000 -0.2514253511
C   C185      1.0  0.73081  0.19825  0.94838  1.0000 0.2059378824
C   C186      1.0  0.62381  0.08498  0.86315  1.0000 -0.042649231
C   C187      1.0  0.64794  0.13132  0.84531  1.0000 -0.1014418176
C   C188      1.0  0.68358  0.16778  0.87265  1.0000 -0.1439912273
C   C189      1.0  0.63440  0.07516  0.90876  1.0000 -0.1014418176
C   C190      1.0  0.69415  0.15848  0.91942  1.0000 0.0380660218
C   C191      1.0  0.66882  0.11209  0.93697  1.0000 -0.1574568433
C   C192      1.0  0.78715  0.28662  0.10127  1.0000 -0.1574568433
C   C193      1.0  0.45986  0.41382  0.83288  1.0000 0.620487589
C   C194      1.0  0.52242  0.18385  0.17428  1.0000 0.6270692928
C   C195      1.0  0.51695  0.22143  0.14814  1.0000 -0.0335452082
C   C196      1.0  0.47479  0.27390  0.99794  1.0000 -0.2514253511
C   C197      1.0  0.46744  0.26919  0.94838  1.0000 0.2059378824
C   C198      1.0  0.46117  0.37619  0.86315  1.0000 -0.042649231
C   C199      1.0  0.48338  0.35206  0.84531  1.0000 -0.1014418176
C   C200      1.0  0.48420  0.31642  0.87265  1.0000 -0.1439912273
C   C201      1.0  0.44076  0.36560  0.90876  1.0000 -0.1014418176
C   C202      1.0  0.46433  0.30585  0.91942  1.0000 0.0380660218
C   C203      1.0  0.44327  0.33118  0.93697  1.0000 -0.1574568433
C   C204      1.0  0.49947  0.21285  0.10127  1.0000 -0.1574568433
C   C205      1.0  0.95396  0.54014  0.83288  1.0000 0.620487589
C   C206      1.0  0.66143  0.47758  0.17428  1.0000 0.6270692928
C   C207      1.0  0.70448  0.48305  0.14814  1.0000 -0.0335452082
C   C208      1.0  0.79911  0.52521  0.99794  1.0000 -0.2514253511
C   C209      1.0  0.80175  0.53256  0.94838  1.0000 0.2059378824
C   C210      1.0  0.91502  0.53883  0.86315  1.0000 -0.042649231
C   C211      1.0  0.86868  0.51662  0.84531  1.0000 -0.1014418176
C   C212      1.0  0.83222  0.51580  0.87265  1.0000 -0.1439912273
C   C213      1.0  0.92484  0.55924  0.90876  1.0000 -0.1014418176
C   C214      1.0  0.84152  0.53567  0.91942  1.0000 0.0380660218
C   C215      1.0  0.88791  0.55673  0.93697  1.0000 -0.1574568433
C   C216      1.0  0.71338  0.50053  0.10127  1.0000 -0.1574568433
C   C217      1.0  0.45986  0.04604  0.66712  1.0000 0.620487589
C   C218      1.0  0.52242  0.33857  0.32572  1.0000 0.6270692928
C   C219      1.0  0.51695  0.29552  0.35186  1.0000 -0.0335452082
C   C220      1.0  0.47479  0.20089  0.50206  1.0000 -0.2514253511
C   C221      1.0  0.46744  0.19825  0.55162  1.0000 0.2059378824
C   C222      1.0  0.46117  0.08498  0.63685  1.0000 -0.042649231
C   C223      1.0  0.48338  0.13132  0.65469  1.0000 -0.1014418176
C   C224      1.0  0.48420  0.16778  0.62735  1.0000 -0.1439912273
C   C225      1.0  0.44076  0.07516  0.59124  1.0000 -0.1014418176
C   C226      1.0  0.46433  0.15848  0.58058  1.0000 0.0380660218
C   C227      1.0  0.44327  0.11209  0.56303  1.0000 -0.1574568433
C   C228      1.0  0.49947  0.28662  0.39873  1.0000 -0.1574568433
C   C229      1.0  0.95396  0.41382  0.66712  1.0000 0.620487589
C   C230      1.0  0.66143  0.18385  0.32572  1.0000 0.6270692928
C   C231      1.0  0.70448  0.22143  0.35186  1.0000 -0.0335452082
C   C232      1.0  0.79911  0.27390  0.50206  1.0000 -0.2514253511
C   C233      1.0  0.80175  0.26919  0.55162  1.0000 0.2059378824
C   C234      1.0  0.91502  0.37619  0.63685  1.0000 -0.042649231
C   C235      1.0  0.86868  0.35206  0.65469  1.0000 -0.1014418176
C   C236      1.0  0.83222  0.31642  0.62735  1.0000 -0.1439912273
C   C237      1.0  0.92484  0.36560  0.59124  1.0000 -0.1014418176
C   C238      1.0  0.84152  0.30585  0.58058  1.0000 0.0380660218
C   C239      1.0  0.88791  0.33118  0.56303  1.0000 -0.1574568433
C   C240      1.0  0.71338  0.21285  0.39873  1.0000 -0.1574568433
C   C241      1.0  0.58618  0.54014  0.66712  1.0000 0.620487589
C   C242      1.0  0.81615  0.47758  0.32572  1.0000 0.6270692928
C   C243      1.0  0.77857  0.48305  0.35186  1.0000 -0.0335452082
C   C244      1.0  0.72610  0.52521  0.50206  1.0000 -0.2514253511
C   C245      1.0  0.73081  0.53256  0.55162  1.0000 0.2059378824
C   C246      1.0  0.62381  0.53883  0.63685  1.0000 -0.042649231
C   C247      1.0  0.64794  0.51662  0.65469  1.0000 -0.1014418176
C   C248      1.0  0.68358  0.51580  0.62735  1.0000 -0.1439912273
C   C249      1.0  0.63440  0.55924  0.59124  1.0000 -0.1014418176
C   C250      1.0  0.69415  0.53567  0.58058  1.0000 0.0380660218
C   C251      1.0  0.66882  0.55673  0.56303  1.0000 -0.1574568433
C   C252      1.0  0.78715  0.50053  0.39873  1.0000 -0.1574568433
C   C253      1.0  0.54014  0.95396  0.16712  1.0000 0.620487589
C   C254      1.0  0.47758  0.66143  0.82572  1.0000 0.6270692928
C   C255      1.0  0.48305  0.70448  0.85186  1.0000 -0.0335452082
C   C256      1.0  0.52521  0.79911  0.00206  1.0000 -0.2514253511
C   C257      1.0  0.53256  0.80175  0.05162  1.0000 0.2059378824
C   C258      1.0  0.53883  0.91502  0.13685  1.0000 -0.042649231
C   C259      1.0  0.51662  0.86868  0.15469  1.0000 -0.1014418176
C   C260      1.0  0.51580  0.83222  0.12735  1.0000 -0.1439912273
C   C261      1.0  0.55924  0.92484  0.09124  1.0000 -0.1014418176
C   C262      1.0  0.53567  0.84152  0.08058  1.0000 0.0380660218
C   C263      1.0  0.55673  0.88791  0.06303  1.0000 -0.1574568433
C   C264      1.0  0.50053  0.71338  0.89873  1.0000 -0.1574568433
C   C265      1.0  0.04604  0.58618  0.16712  1.0000 0.620487589
C   C266      1.0  0.33857  0.81615  0.82572  1.0000 0.6270692928
C   C267      1.0  0.29552  0.77857  0.85186  1.0000 -0.0335452082
C   C268      1.0  0.20089  0.72610  0.00206  1.0000 -0.2514253511
C   C269      1.0  0.19825  0.73081  0.05162  1.0000 0.2059378824
C   C270      1.0  0.08498  0.62381  0.13685  1.0000 -0.042649231
C   C271      1.0  0.13132  0.64794  0.15469  1.0000 -0.1014418176
C   C272      1.0  0.16778  0.68358  0.12735  1.0000 -0.1439912273
C   C273      1.0  0.07516  0.63440  0.09124  1.0000 -0.1014418176
C   C274      1.0  0.15848  0.69415  0.08058  1.0000 0.0380660218
C   C275      1.0  0.11209  0.66882  0.06303  1.0000 -0.1574568433
C   C276      1.0  0.28662  0.78715  0.89873  1.0000 -0.1574568433
C   C277      1.0  0.41382  0.45986  0.16712  1.0000 0.620487589
C   C278      1.0  0.18385  0.52242  0.82572  1.0000 0.6270692928
C   C279      1.0  0.22143  0.51695  0.85186  1.0000 -0.0335452082
C   C280      1.0  0.27390  0.47479  0.00206  1.0000 -0.2514253511
C   C281      1.0  0.26919  0.46744  0.05162  1.0000 0.2059378824
C   C282      1.0  0.37619  0.46117  0.13685  1.0000 -0.042649231
C   C283      1.0  0.35206  0.48338  0.15469  1.0000 -0.1014418176
C   C284      1.0  0.31642  0.48420  0.12735  1.0000 -0.1439912273
C   C285      1.0  0.36560  0.44076  0.09124  1.0000 -0.1014418176
C   C286      1.0  0.30585  0.46433  0.08058  1.0000 0.0380660218
C   C287      1.0  0.33118  0.44327  0.06303  1.0000 -0.1574568433
C   C288      1.0  0.21285  0.49947  0.89873  1.0000 -0.1574568433
C   C289      1.0  0.75362  0.24638  0.42413  1.0000 0.0564383699
C   C290      1.0  0.76010  0.23990  0.47650  1.0000 0.1108771546
C   C291      1.0  0.73643  0.26356  0.32848  1.0000 -0.1152372153
C   C292      1.0  0.49277  0.24638  0.42413  1.0000 0.0564383699
C   C293      1.0  0.47980  0.23990  0.47650  1.0000 0.1108771546
C   C294      1.0  0.52713  0.26356  0.32848  1.0000 -0.1152372153
C   C295      1.0  0.75362  0.50723  0.42413  1.0000 0.0564383699
C   C296      1.0  0.76010  0.52020  0.47650  1.0000 0.1108771546
C   C297      1.0  0.73643  0.47287  0.32848  1.0000 -0.1152372153
C   C298      1.0  0.24638  0.75362  0.92413  1.0000 0.0564383699
C   C299      1.0  0.23990  0.76010  0.97650  1.0000 0.1108771546
C   C300      1.0  0.26356  0.73643  0.82848  1.0000 -0.114456387
C   C301      1.0  0.50723  0.75362  0.92413  1.0000 0.0564383699
C   C302      1.0  0.52020  0.76010  0.97650  1.0000 0.1108771546
C   C303      1.0  0.47287  0.73643  0.82848  1.0000 -0.1152372153
C   C304      1.0  0.24638  0.49277  0.92413  1.0000 0.0564383699
C   C305      1.0  0.23990  0.47980  0.97650  1.0000 0.1108771546
C   C306      1.0  0.26356  0.52713  0.82848  1.0000 -0.114456387
C   C307      1.0  0.50723  0.75362  0.57587  1.0000 0.0564383699
C   C308      1.0  0.52020  0.76010  0.52350  1.0000 0.1108771546
C   C309      1.0  0.47287  0.73643  0.67152  1.0000 -0.1152372153
C   C310      1.0  0.24638  0.75362  0.57587  1.0000 0.0564383699
C   C311      1.0  0.23990  0.76010  0.52350  1.0000 0.1108771546
C   C312      1.0  0.26356  0.73643  0.67152  1.0000 -0.114456387
C   C313      1.0  0.24638  0.49277  0.57587  1.0000 0.0564383699
C   C314      1.0  0.23990  0.47980  0.52350  1.0000 0.1108771546
C   C315      1.0  0.26356  0.52713  0.67152  1.0000 -0.114456387
C   C316      1.0  0.49277  0.24638  0.07587  1.0000 0.0564383699
C   C317      1.0  0.47980  0.23990  0.02350  1.0000 0.1108771546
C   C318      1.0  0.52713  0.26356  0.17152  1.0000 -0.1152372153
C   C319      1.0  0.75362  0.24638  0.07587  1.0000 0.0564383699
C   C320      1.0  0.76010  0.23990  0.02350  1.0000 0.1108771546
C   C321      1.0  0.73643  0.26356  0.17152  1.0000 -0.1152372153
C   C322      1.0  0.75362  0.50723  0.07587  1.0000 0.0564383699
C   C323      1.0  0.76010  0.52020  0.02350  1.0000 0.1108771546
C   C324      1.0  0.73643  0.47287  0.17152  1.0000 -0.1152372153
N   N1        1.0  0.76785  0.23215  0.57647  1.0000 -0.3375831362
N   N2        1.0  0.46430  0.23215  0.57647  1.0000 -0.3375831362
N   N3        1.0  0.76785  0.53570  0.57647  1.0000 -0.3375831362
N   N4        1.0  0.23215  0.76785  0.07647  1.0000 -0.3375831362
N   N5        1.0  0.53570  0.76785  0.07647  1.0000 -0.3375831362
N   N6        1.0  0.23215  0.46430  0.07647  1.0000 -0.3375831362
N   N7        1.0  0.53570  0.76785  0.42353  1.0000 -0.3375831362
N   N8        1.0  0.23215  0.76785  0.42353  1.0000 -0.3375831362
N   N9        1.0  0.23215  0.46430  0.42353  1.0000 -0.3375831362
N   N10       1.0  0.46430  0.23215  0.92353  1.0000 -0.3375831362
N   N11       1.0  0.76785  0.23215  0.92353  1.0000 -0.3375831362
N   N12       1.0  0.76785  0.53570  0.92353  1.0000 -0.3375831362
O   O1        1.0  0.85883  0.34965  0.33500  1.0000 -0.6258399822
O   O2        1.0  0.80223  0.35893  0.29716  1.0000 -0.5640894588
O   O3        1.0  0.57331  0.00368  0.65505  1.0000 -0.6229054056
O   O4        1.0  0.57014  0.05913  0.70157  1.0000 -0.569837167
O   O5        1.0  0.49082  0.14117  0.33500  1.0000 -0.6258399822
O   O6        1.0  0.55670  0.19777  0.29716  1.0000 -0.5640894588
O   O7        1.0  0.43037  0.42669  0.65505  1.0000 -0.6229054056
O   O8        1.0  0.48899  0.42986  0.70157  1.0000 -0.569837167
O   O9        1.0  0.65035  0.50918  0.33500  1.0000 -0.6258399822
O   O10       1.0  0.64107  0.44330  0.29716  1.0000 -0.5640894588
O   O11       1.0  0.99632  0.56963  0.65505  1.0000 -0.6229054056
O   O12       1.0  0.94087  0.51101  0.70157  1.0000 -0.569837167
O   O13       1.0  0.14117  0.65035  0.83500  1.0000 -0.6258399822
O   O14       1.0  0.19777  0.64107  0.79716  1.0000 -0.5640894588
O   O15       1.0  0.42669  0.99632  0.15505  1.0000 -0.6229054056
O   O16       1.0  0.42986  0.94087  0.20157  1.0000 -0.569837167
O   O17       1.0  0.50918  0.85883  0.83500  1.0000 -0.6258399822
O   O18       1.0  0.44330  0.80223  0.79716  1.0000 -0.5640894588
O   O19       1.0  0.56963  0.57331  0.15505  1.0000 -0.6229054056
O   O20       1.0  0.51101  0.57014  0.20157  1.0000 -0.569837167
O   O21       1.0  0.34965  0.49082  0.83500  1.0000 -0.6258399822
O   O22       1.0  0.35893  0.55670  0.79716  1.0000 -0.5640894588
O   O23       1.0  0.00368  0.43037  0.15505  1.0000 -0.6229054056
O   O24       1.0  0.05913  0.48899  0.20157  1.0000 -0.569837167
O   O25       1.0  0.50918  0.65035  0.66500  1.0000 -0.6229054056
O   O26       1.0  0.44330  0.64107  0.70284  1.0000 -0.5640894588
O   O27       1.0  0.56963  0.99632  0.34495  1.0000 -0.6229054056
O   O28       1.0  0.51101  0.94087  0.29843  1.0000 -0.569837167
O   O29       1.0  0.34965  0.85883  0.66500  1.0000 -0.6258399822
O   O30       1.0  0.35893  0.80223  0.70284  1.0000 -0.5640894588
O   O31       1.0  0.00368  0.57331  0.34495  1.0000 -0.6229054056
O   O32       1.0  0.05913  0.57014  0.29843  1.0000 -0.569837167
O   O33       1.0  0.14117  0.49082  0.66500  1.0000 -0.6258399822
O   O34       1.0  0.19777  0.55670  0.70284  1.0000 -0.5640894588
O   O35       1.0  0.42669  0.43037  0.34495  1.0000 -0.6229054056
O   O36       1.0  0.42986  0.48899  0.29843  1.0000 -0.569837167
O   O37       1.0  0.49082  0.34965  0.16500  1.0000 -0.6258399822
O   O38       1.0  0.55670  0.35893  0.20284  1.0000 -0.5640894588
O   O39       1.0  0.43037  0.00368  0.84495  1.0000 -0.6258399822
O   O40       1.0  0.48899  0.05913  0.79843  1.0000 -0.569837167
O   O41       1.0  0.65035  0.14117  0.16500  1.0000 -0.6229054056
O   O42       1.0  0.64107  0.19777  0.20284  1.0000 -0.5640894588
O   O43       1.0  0.99632  0.42669  0.84495  1.0000 -0.6229054056
O   O44       1.0  0.94087  0.42986  0.79843  1.0000 -0.569837167
O   O45       1.0  0.85883  0.50918  0.16500  1.0000 -0.6229054056
O   O46       1.0  0.80223  0.44330  0.20284  1.0000 -0.5640894588
O   O47       1.0  0.57331  0.56963  0.84495  1.0000 -0.6229054056
O   O48       1.0  0.57014  0.51101  0.79843  1.0000 -0.569837167
O   O49       1.0  0.14117  0.65035  0.66500  1.0000 -0.6258399822
O   O50       1.0  0.19777  0.64107  0.70284  1.0000 -0.5640894588
O   O51       1.0  0.42669  0.99632  0.34495  1.0000 -0.6229054056
O   O52       1.0  0.42986  0.94087  0.29843  1.0000 -0.569837167
O   O53       1.0  0.50918  0.85883  0.66500  1.0000 -0.6258399822
O   O54       1.0  0.44330  0.80223  0.70284  1.0000 -0.5640894588
O   O55       1.0  0.56963  0.57331  0.34495  1.0000 -0.6229054056
O   O56       1.0  0.51101  0.57014  0.29843  1.0000 -0.569837167
O   O57       1.0  0.34965  0.49082  0.66500  1.0000 -0.6258399822
O   O58       1.0  0.35893  0.55670  0.70284  1.0000 -0.5640894588
O   O59       1.0  0.00368  0.43037  0.34495  1.0000 -0.6229054056
O   O60       1.0  0.05913  0.48899  0.29843  1.0000 -0.569837167
O   O61       1.0  0.85883  0.34965  0.16500  1.0000 -0.6258399822
O   O62       1.0  0.80223  0.35893  0.20284  1.0000 -0.5640894588
O   O63       1.0  0.57331  0.00368  0.84495  1.0000 -0.6258399822
O   O64       1.0  0.57014  0.05913  0.79843  1.0000 -0.569837167
O   O65       1.0  0.49082  0.14117  0.16500  1.0000 -0.6258399822
O   O66       1.0  0.55670  0.19777  0.20284  1.0000 -0.5640894588
O   O67       1.0  0.43037  0.42669  0.84495  1.0000 -0.6229054056
O   O68       1.0  0.48899  0.42986  0.79843  1.0000 -0.569837167
O   O69       1.0  0.65035  0.50918  0.16500  1.0000 -0.6258399822
O   O70       1.0  0.64107  0.44330  0.20284  1.0000 -0.5640894588
O   O71       1.0  0.99632  0.56963  0.84495  1.0000 -0.6229054056
O   O72       1.0  0.94087  0.51101  0.79843  1.0000 -0.569837167
O   O73       1.0  0.49082  0.34965  0.33500  1.0000 -0.6258399822
O   O74       1.0  0.55670  0.35893  0.29716  1.0000 -0.5640894588
O   O75       1.0  0.43037  0.00368  0.65505  1.0000 -0.6258399822
O   O76       1.0  0.48899  0.05913  0.70157  1.0000 -0.569837167
O   O77       1.0  0.65035  0.14117  0.33500  1.0000 -0.6229054056
O   O78       1.0  0.64107  0.19777  0.29716  1.0000 -0.5640894588
O   O79       1.0  0.99632  0.42669  0.65505  1.0000 -0.6229054056
O   O80       1.0  0.94087  0.42986  0.70157  1.0000 -0.569837167
O   O81       1.0  0.85883  0.50918  0.33500  1.0000 -0.6229054056
O   O82       1.0  0.80223  0.44330  0.29716  1.0000 -0.5640894588
O   O83       1.0  0.57331  0.56963  0.65505  1.0000 -0.6229054056
O   O84       1.0  0.57014  0.51101  0.70157  1.0000 -0.569837167
O   O85       1.0  0.50918  0.65035  0.83500  1.0000 -0.6229054056
O   O86       1.0  0.44330  0.64107  0.79716  1.0000 -0.5640894588
O   O87       1.0  0.56963  0.99632  0.15505  1.0000 -0.6229054056
O   O88       1.0  0.51101  0.94087  0.20157  1.0000 -0.569837167
O   O89       1.0  0.34965  0.85883  0.83500  1.0000 -0.6258399822
O   O90       1.0  0.35893  0.80223  0.79716  1.0000 -0.5640894588
O   O91       1.0  0.00368  0.57331  0.15505  1.0000 -0.6229054056
O   O92       1.0  0.05913  0.57014  0.20157  1.0000 -0.569837167
O   O93       1.0  0.14117  0.49082  0.83500  1.0000 -0.6258399822
O   O94       1.0  0.19777  0.55670  0.79716  1.0000 -0.5640894588
O   O95       1.0  0.42669  0.43037  0.15505  1.0000 -0.6229054056
O   O96       1.0  0.42986  0.48899  0.20157  1.0000 -0.569837167
O   O97       1.0  0.44155  0.88310  0.67563  1.0000 -1.1597887071
O   O98       1.0  0.48432  0.96864  0.80463  1.0000 -1.1709456848
O   O99       1.0  0.44155  0.55845  0.67563  1.0000 -1.1597887071
O   O100      1.0  0.48432  0.51568  0.80463  1.0000 -1.1709456848
O   O101      1.0  0.11690  0.55845  0.67563  1.0000 -1.1597887071
O   O102      1.0  0.03136  0.51568  0.80463  1.0000 -1.1762469775
O   O103      1.0  0.55845  0.11690  0.17563  1.0000 -1.1597887071
O   O104      1.0  0.51568  0.03136  0.30463  1.0000 -1.1709456848
O   O105      1.0  0.55845  0.44155  0.17563  1.0000 -1.1597887071
O   O106      1.0  0.51568  0.48432  0.30463  1.0000 -1.1762469775
O   O107      1.0  0.88310  0.44155  0.17563  1.0000 -1.1597887071
O   O108      1.0  0.96864  0.48432  0.30463  1.0000 -1.1709456848
O   O109      1.0  0.55845  0.11690  0.32437  1.0000 -1.1597887071
O   O110      1.0  0.51568  0.03136  0.19537  1.0000 -1.1762469775
O   O111      1.0  0.88310  0.44155  0.32437  1.0000 -1.1597887071
O   O112      1.0  0.96864  0.48432  0.19537  1.0000 -1.1762469775
O   O113      1.0  0.55845  0.44155  0.32437  1.0000 -1.1597887071
O   O114      1.0  0.51568  0.48432  0.19537  1.0000 -1.1762469775
O   O115      1.0  0.44155  0.88310  0.82437  1.0000 -1.1597887071
O   O116      1.0  0.48432  0.96864  0.69537  1.0000 -1.1709456848
O   O117      1.0  0.11690  0.55845  0.82437  1.0000 -1.1597887071
O   O118      1.0  0.03136  0.51568  0.69537  1.0000 -1.1762469775
O   O119      1.0  0.44155  0.55845  0.82437  1.0000 -1.1597887071
O   O120      1.0  0.48432  0.51568  0.69537  1.0000 -1.1709456848
O   O121      1.0  0.49330  0.89328  0.75000  1.0000 -1.1709456848
O   O122      1.0  0.55355  0.97871  0.75000  1.0000 -1.1709456848
O   O123      1.0  0.39998  0.50670  0.75000  1.0000 -1.1709456848
O   O124      1.0  0.42516  0.44645  0.75000  1.0000 -1.1709456848
O   O125      1.0  0.10672  0.60002  0.75000  1.0000 -1.1597887071
O   O126      1.0  0.02129  0.57484  0.75000  1.0000 -1.1762469775
O   O127      1.0  0.50670  0.10672  0.25000  1.0000 -1.1709456848
O   O128      1.0  0.44645  0.02129  0.25000  1.0000 -1.1762469775
O   O129      1.0  0.60002  0.49330  0.25000  1.0000 -1.1597887071
O   O130      1.0  0.57484  0.55355  0.25000  1.0000 -1.1762469775
O   O131      1.0  0.89328  0.39998  0.25000  1.0000 -1.1597887071
O   O132      1.0  0.97871  0.42516  0.25000  1.0000 -1.1762469775
O   O133      1.0  0.60002  0.10672  0.25000  1.0000 -1.1709456848
O   O134      1.0  0.57484  0.02129  0.25000  1.0000 -1.1762469775
O   O135      1.0  0.89328  0.49330  0.25000  1.0000 -1.1709456848
O   O136      1.0  0.97871  0.55355  0.25000  1.0000 -1.1709456848
O   O137      1.0  0.50670  0.39998  0.25000  1.0000 -1.1709456848
O   O138      1.0  0.44645  0.42516  0.25000  1.0000 -1.1709456848
O   O139      1.0  0.39998  0.89328  0.75000  1.0000 -1.1597887071
O   O140      1.0  0.42516  0.97871  0.75000  1.0000 -1.1709456848
O   O141      1.0  0.10672  0.50670  0.75000  1.0000 -1.1709456848
O   O142      1.0  0.02129  0.44645  0.75000  1.0000 -1.1762469775
O   O143      1.0  0.49330  0.60002  0.75000  1.0000 -1.1709456848
O   O144      1.0  0.55355  0.57484  0.75000  1.0000 -1.1709456848
