# DDEC6 charges by PACMAN v1.1 (https://github.com/mtap-research/PACMAN-charge/)
data_2022[Cd][nan]3[ASR]4
_chemical_formula_sum              "Cd16 H136 C240 N16 O64"
_cell_length_a       13.271
_cell_length_b       17.601
_cell_length_c       32.093
_cell_angle_alpha    90
_cell_angle_beta     90
_cell_angle_gamma    90

_symmetry_space_group_name_H-M    "P 1"
_symmetry_Int_Tables_number       1

loop_
  _symmetry_equiv_pos_as_xyz
  'x, y, z'

loop_
  _atom_site_type_symbol
  _atom_site_label
  _atom_site_symmetry_multiplicity
  _atom_site_fract_x
  _atom_site_fract_y
  _atom_site_fract_z
  _atom_site_occupancy
  _atom_site_charge
Cd  Cd1       1.0  0.85864  0.09657  0.20572  1.0000 0.9588426738
Cd  Cd2       1.0  0.35899  0.61792  0.20746  1.0000 1.0316194235
Cd  Cd3       1.0  0.64136  0.09657  0.29428  1.0000 0.9588426738
Cd  Cd4       1.0  0.14101  0.61792  0.29254  1.0000 1.0316194235
Cd  Cd5       1.0  0.35864  0.40343  0.79428  1.0000 0.9588426738
Cd  Cd6       1.0  0.85899  0.88208  0.79254  1.0000 1.0316194235
Cd  Cd7       1.0  0.14136  0.40343  0.70572  1.0000 0.9588426738
Cd  Cd8       1.0  0.64101  0.88208  0.70746  1.0000 1.0316194235
Cd  Cd9       1.0  0.14136  0.90343  0.79428  1.0000 0.9588426738
Cd  Cd10      1.0  0.64101  0.38208  0.79254  1.0000 1.0316194235
Cd  Cd11      1.0  0.35864  0.90343  0.70572  1.0000 0.9588426738
Cd  Cd12      1.0  0.85899  0.38208  0.70746  1.0000 1.0316194235
Cd  Cd13      1.0  0.64136  0.59657  0.20572  1.0000 0.9588426738
Cd  Cd14      1.0  0.14101  0.11792  0.20746  1.0000 1.0316194235
Cd  Cd15      1.0  0.85864  0.59657  0.29428  1.0000 0.9588426738
Cd  Cd16      1.0  0.35899  0.11792  0.29254  1.0000 1.0316194235
H   H1        1.0  0.97202  0.68618  0.19889  1.0000 0.121111295
H   H2        1.0  0.68095  0.86484  0.20840  1.0000 0.1283276794
H   H3        1.0  0.18300  0.85127  0.20297  1.0000 0.1283276794
H   H4        1.0  0.85053  0.77882  0.18922  1.0000 0.1283276794
H   H5        1.0  0.89326  0.90516  0.18839  1.0000 0.1283276794
H   H6        1.0  0.47250  0.02806  0.20264  1.0000 0.1283276794
H   H7        1.0  0.34863  0.93778  0.19297  1.0000 0.1283276794
H   H8        1.0  0.99107  0.06460  0.11484  1.0000 0.121111295
H   H9        1.0  0.39237  0.80895  0.19422  1.0000 0.121111295
H   H10       1.0  0.95855  0.25155  0.96332  1.0000 0.121111295
H   H11       1.0  0.65993  0.14393  0.14656  1.0000 0.1376663684
H   H12       1.0  0.73577  0.06833  0.00874  1.0000 0.1283276794
H   H13       1.0  0.57567  0.11499  0.02664  1.0000 0.1120058438
H   H14       1.0  0.91027  0.93059  0.09230  1.0000 0.121111295
H   H15       1.0  0.91031  0.17749  0.01837  1.0000 0.121111295
H   H16       1.0  0.96329  0.80578  0.09404  1.0000 0.121111295
H   H17       1.0  0.53397  0.14509  0.09522  1.0000 0.1120058438
H   H18       1.0  0.52798  0.68618  0.30111  1.0000 0.121111295
H   H19       1.0  0.81905  0.86484  0.29160  1.0000 0.1283276794
H   H20       1.0  0.31700  0.85127  0.29703  1.0000 0.1283276794
H   H21       1.0  0.64947  0.77882  0.31078  1.0000 0.1283276794
H   H22       1.0  0.60674  0.90516  0.31161  1.0000 0.1283276794
H   H23       1.0  0.02750  0.02806  0.29736  1.0000 0.1283276794
H   H24       1.0  0.15137  0.93778  0.30703  1.0000 0.1283276794
H   H25       1.0  0.50893  0.06460  0.38516  1.0000 0.121111295
H   H26       1.0  0.10763  0.80895  0.30578  1.0000 0.121111295
H   H27       1.0  0.54145  0.25155  0.53668  1.0000 0.121111295
H   H28       1.0  0.84007  0.14393  0.35344  1.0000 0.1376663684
H   H29       1.0  0.76423  0.06833  0.49126  1.0000 0.1283276794
H   H30       1.0  0.92433  0.11499  0.47336  1.0000 0.1120058438
H   H31       1.0  0.58973  0.93059  0.40770  1.0000 0.121111295
H   H32       1.0  0.58969  0.17749  0.48163  1.0000 0.121111295
H   H33       1.0  0.53671  0.80578  0.40596  1.0000 0.121111295
H   H34       1.0  0.96603  0.14509  0.40478  1.0000 0.1120058438
H   H35       1.0  0.47202  0.81382  0.80111  1.0000 0.121111295
H   H36       1.0  0.18095  0.63516  0.79160  1.0000 0.1283276794
H   H37       1.0  0.68300  0.64873  0.79703  1.0000 0.1283276794
H   H38       1.0  0.35053  0.72118  0.81078  1.0000 0.1283276794
H   H39       1.0  0.39326  0.59484  0.81161  1.0000 0.121111295
H   H40       1.0  0.97250  0.47194  0.79736  1.0000 0.1283276794
H   H41       1.0  0.84863  0.56222  0.80703  1.0000 0.1283276794
H   H42       1.0  0.49107  0.43540  0.88516  1.0000 0.121111295
H   H43       1.0  0.89237  0.69105  0.80578  1.0000 0.121111295
H   H44       1.0  0.45855  0.24845  0.03668  1.0000 0.121111295
H   H45       1.0  0.15993  0.35607  0.85344  1.0000 0.1376663684
H   H46       1.0  0.23577  0.43167  0.99126  1.0000 0.1283276794
H   H47       1.0  0.07567  0.38501  0.97336  1.0000 0.1120058438
H   H48       1.0  0.41027  0.56941  0.90770  1.0000 0.121111295
H   H49       1.0  0.41031  0.32251  0.98163  1.0000 0.121111295
H   H50       1.0  0.46329  0.69422  0.90596  1.0000 0.121111295
H   H51       1.0  0.03397  0.35491  0.90478  1.0000 0.1120058438
H   H52       1.0  0.02798  0.81382  0.69889  1.0000 0.121111295
H   H53       1.0  0.31905  0.63516  0.70840  1.0000 0.1283276794
H   H54       1.0  0.81700  0.64873  0.70297  1.0000 0.1283276794
H   H55       1.0  0.14947  0.72118  0.68922  1.0000 0.1283276794
H   H56       1.0  0.10674  0.59484  0.68839  1.0000 0.1283276794
H   H57       1.0  0.52750  0.47194  0.70264  1.0000 0.1283276794
H   H58       1.0  0.65137  0.56222  0.69297  1.0000 0.1283276794
H   H59       1.0  0.00893  0.43540  0.61484  1.0000 0.121111295
H   H60       1.0  0.60763  0.69105  0.69422  1.0000 0.121111295
H   H61       1.0  0.04145  0.24845  0.46332  1.0000 0.121111295
H   H62       1.0  0.34007  0.35607  0.64656  1.0000 0.1376663684
H   H63       1.0  0.26423  0.43167  0.50874  1.0000 0.1283276794
H   H64       1.0  0.42433  0.38501  0.52664  1.0000 0.1120058438
H   H65       1.0  0.08973  0.56941  0.59230  1.0000 0.121111295
H   H66       1.0  0.08969  0.32251  0.51837  1.0000 0.121111295
H   H67       1.0  0.03671  0.69422  0.59404  1.0000 0.121111295
H   H68       1.0  0.46603  0.35491  0.59522  1.0000 0.1120058438
H   H69       1.0  0.02798  0.31382  0.80111  1.0000 0.121111295
H   H70       1.0  0.31905  0.13516  0.79160  1.0000 0.1283276794
H   H71       1.0  0.81700  0.14873  0.79703  1.0000 0.1283276794
H   H72       1.0  0.14947  0.22118  0.81078  1.0000 0.1283276794
H   H73       1.0  0.10674  0.09484  0.81161  1.0000 0.121111295
H   H74       1.0  0.52750  0.97194  0.79736  1.0000 0.1283276794
H   H75       1.0  0.65137  0.06222  0.80703  1.0000 0.1283276794
H   H76       1.0  0.00893  0.93540  0.88516  1.0000 0.121111295
H   H77       1.0  0.60763  0.19105  0.80578  1.0000 0.121111295
H   H78       1.0  0.04145  0.74845  0.03668  1.0000 0.121111295
H   H79       1.0  0.34007  0.85607  0.85344  1.0000 0.1376663684
H   H80       1.0  0.26423  0.93167  0.99126  1.0000 0.1283276794
H   H81       1.0  0.42433  0.88501  0.97336  1.0000 0.1120058438
H   H82       1.0  0.08973  0.06941  0.90770  1.0000 0.121111295
H   H83       1.0  0.08969  0.82251  0.98163  1.0000 0.121111295
H   H84       1.0  0.03671  0.19422  0.90596  1.0000 0.121111295
H   H85       1.0  0.46603  0.85491  0.90478  1.0000 0.1120058438
H   H86       1.0  0.47202  0.31382  0.69889  1.0000 0.121111295
H   H87       1.0  0.18095  0.13516  0.70840  1.0000 0.1283276794
H   H88       1.0  0.68300  0.14873  0.70297  1.0000 0.1283276794
H   H89       1.0  0.35053  0.22118  0.68922  1.0000 0.1283276794
H   H90       1.0  0.39326  0.09484  0.68839  1.0000 0.121111295
H   H91       1.0  0.97250  0.97194  0.70264  1.0000 0.1283276794
H   H92       1.0  0.84863  0.06222  0.69297  1.0000 0.1283276794
H   H93       1.0  0.49107  0.93540  0.61484  1.0000 0.121111295
H   H94       1.0  0.89237  0.19105  0.69422  1.0000 0.121111295
H   H95       1.0  0.45855  0.74845  0.46332  1.0000 0.121111295
H   H96       1.0  0.15993  0.85607  0.64656  1.0000 0.1376663684
H   H97       1.0  0.23577  0.93167  0.50874  1.0000 0.1283276794
H   H98       1.0  0.07567  0.88501  0.52664  1.0000 0.1120058438
H   H99       1.0  0.41027  0.06941  0.59230  1.0000 0.121111295
H   H100      1.0  0.41031  0.82251  0.51837  1.0000 0.121111295
H   H101      1.0  0.46329  0.19422  0.59404  1.0000 0.121111295
H   H102      1.0  0.03397  0.85491  0.59522  1.0000 0.1120058438
H   H103      1.0  0.52798  0.18618  0.19889  1.0000 0.121111295
H   H104      1.0  0.81905  0.36484  0.20840  1.0000 0.1283276794
H   H105      1.0  0.31700  0.35127  0.20297  1.0000 0.1283276794
H   H106      1.0  0.64947  0.27882  0.18922  1.0000 0.1283276794
H   H107      1.0  0.60674  0.40516  0.18839  1.0000 0.1283276794
H   H108      1.0  0.02750  0.52806  0.20264  1.0000 0.1283276794
H   H109      1.0  0.15137  0.43778  0.19297  1.0000 0.1283276794
H   H110      1.0  0.50893  0.56460  0.11484  1.0000 0.121111295
H   H111      1.0  0.10763  0.30895  0.19422  1.0000 0.121111295
H   H112      1.0  0.54145  0.75155  0.96332  1.0000 0.121111295
H   H113      1.0  0.84007  0.64393  0.14656  1.0000 0.1376663684
H   H114      1.0  0.76423  0.56833  0.00874  1.0000 0.1283276794
H   H115      1.0  0.92433  0.61499  0.02664  1.0000 0.1120058438
H   H116      1.0  0.58973  0.43059  0.09230  1.0000 0.121111295
H   H117      1.0  0.58969  0.67749  0.01837  1.0000 0.121111295
H   H118      1.0  0.53671  0.30578  0.09404  1.0000 0.121111295
H   H119      1.0  0.96603  0.64509  0.09522  1.0000 0.1120058438
H   H120      1.0  0.97202  0.18618  0.30111  1.0000 0.121111295
H   H121      1.0  0.68095  0.36484  0.29160  1.0000 0.1283276794
H   H122      1.0  0.18300  0.35127  0.29703  1.0000 0.1283276794
H   H123      1.0  0.85053  0.27882  0.31078  1.0000 0.1283276794
H   H124      1.0  0.89326  0.40516  0.31161  1.0000 0.121111295
H   H125      1.0  0.47250  0.52806  0.29736  1.0000 0.1283276794
H   H126      1.0  0.34863  0.43778  0.30703  1.0000 0.1283276794
H   H127      1.0  0.99107  0.56460  0.38516  1.0000 0.121111295
H   H128      1.0  0.39237  0.30895  0.30578  1.0000 0.121111295
H   H129      1.0  0.95855  0.75155  0.53668  1.0000 0.121111295
H   H130      1.0  0.65993  0.64393  0.35344  1.0000 0.1376663684
H   H131      1.0  0.73577  0.56833  0.49126  1.0000 0.1283276794
H   H132      1.0  0.57567  0.61499  0.47336  1.0000 0.1120058438
H   H133      1.0  0.91027  0.43059  0.40770  1.0000 0.121111295
H   H134      1.0  0.91031  0.67749  0.48163  1.0000 0.121111295
H   H135      1.0  0.96329  0.30578  0.40596  1.0000 0.121111295
H   H136      1.0  0.53397  0.64509  0.40478  1.0000 0.1120058438
C   C1        1.0  0.99020  0.73720  0.19790  1.0000 -0.0837107378
C   C2        1.0  0.59010  0.95560  0.20550  1.0000 -0.0296576468
C   C3        1.0  0.61390  0.87930  0.20540  1.0000 -0.0999561274
C   C4        1.0  0.54040  0.82310  0.20110  1.0000 -0.0470815771
C   C5        1.0  0.11590  0.83650  0.20110  1.0000 -0.0899930556
C   C6        1.0  0.91760  0.79290  0.19260  1.0000 -0.0899930556
C   C7        1.0  0.04250  0.89080  0.19760  1.0000 -0.0368350316
C   C8        1.0  0.66790  0.01680  0.20940  1.0000 0.5594590841
C   C9        1.0  0.16920  0.70270  0.20760  1.0000 0.5594590841
C   C10       1.0  0.94300  0.86860  0.19220  1.0000 -0.0899930556
C   C11       1.0  0.09160  0.75890  0.20180  1.0000 -0.0655762297
C   C12       1.0  0.48970  0.97690  0.20170  1.0000 -0.0899930556
C   C13       1.0  0.07120  0.97200  0.20020  1.0000 0.5594590841
C   C14       1.0  0.56960  0.74210  0.20290  1.0000 0.5735015212
C   C15       1.0  0.79280  0.08440  0.06710  1.0000 0.0943588386
C   C16       1.0  0.76770  0.10570  0.10780  1.0000 0.1376663684
C   C17       1.0  0.41540  0.92320  0.19660  1.0000 -0.0837107378
C   C18       1.0  0.92520  0.07470  0.10660  1.0000 0.1376663684
C   C19       1.0  0.44240  0.84560  0.19690  1.0000 -0.0837107378
C   C20       1.0  0.94780  0.03290  0.03380  1.0000 0.0445662117
C   C21       1.0  0.97310  0.19990  0.96360  1.0000 -0.0899930556
C   C22       1.0  0.67380  0.12940  0.11930  1.0000 -0.1535458993
C   C23       1.0  0.97320  0.95520  0.03550  1.0000 0.0172553034
C   C24       1.0  0.72120  0.08450  0.03570  1.0000 -0.204881555
C   C25       1.0  0.62480  0.11070  0.04720  1.0000 -0.0999561274
C   C26       1.0  0.94670  0.91020  0.07020  1.0000 -0.1651326777
C   C27       1.0  0.97440  0.07840  0.99840  1.0000 0.0069302156
C   C28       1.0  0.94690  0.15620  0.99660  1.0000 -0.1611566158
C   C29       1.0  0.97660  0.83490  0.07050  1.0000 -0.0837107378
C   C30       1.0  0.59950  0.13090  0.08860  1.0000 -0.1211558212
C   C31       1.0  0.50980  0.73720  0.30210  1.0000 -0.0837107378
C   C32       1.0  0.90990  0.95560  0.29450  1.0000 -0.0296576468
C   C33       1.0  0.88610  0.87930  0.29460  1.0000 -0.0999561274
C   C34       1.0  0.95960  0.82310  0.29890  1.0000 -0.0470815771
C   C35       1.0  0.38410  0.83650  0.29890  1.0000 -0.0899930556
C   C36       1.0  0.58240  0.79290  0.30740  1.0000 -0.0899930556
C   C37       1.0  0.45750  0.89080  0.30240  1.0000 -0.0368350316
C   C38       1.0  0.83210  0.01680  0.29060  1.0000 0.5594590841
C   C39       1.0  0.33080  0.70270  0.29240  1.0000 0.5594590841
C   C40       1.0  0.55700  0.86860  0.30780  1.0000 -0.0899930556
C   C41       1.0  0.40840  0.75890  0.29820  1.0000 -0.0655762297
C   C42       1.0  0.01030  0.97690  0.29830  1.0000 -0.0899930556
C   C43       1.0  0.42880  0.97200  0.29980  1.0000 0.5594590841
C   C44       1.0  0.93040  0.74210  0.29710  1.0000 0.5735015212
C   C45       1.0  0.70720  0.08440  0.43290  1.0000 0.0943588386
C   C46       1.0  0.73230  0.10570  0.39220  1.0000 0.1376663684
C   C47       1.0  0.08460  0.92320  0.30340  1.0000 -0.0837107378
C   C48       1.0  0.57480  0.07470  0.39340  1.0000 0.1376663684
C   C49       1.0  0.05760  0.84560  0.30310  1.0000 -0.0837107378
C   C50       1.0  0.55220  0.03290  0.46620  1.0000 0.0445662117
C   C51       1.0  0.52690  0.19990  0.53640  1.0000 -0.0899930556
C   C52       1.0  0.82620  0.12940  0.38070  1.0000 -0.1535458993
C   C53       1.0  0.52680  0.95520  0.46450  1.0000 0.0172553034
C   C54       1.0  0.77880  0.08450  0.46430  1.0000 -0.2065083701
C   C55       1.0  0.87520  0.11070  0.45280  1.0000 -0.0999561274
C   C56       1.0  0.55330  0.91020  0.42980  1.0000 -0.1611566158
C   C57       1.0  0.52560  0.07840  0.50160  1.0000 0.0069302156
C   C58       1.0  0.55310  0.15620  0.50340  1.0000 -0.1535458993
C   C59       1.0  0.52340  0.83490  0.42950  1.0000 -0.0837107378
C   C60       1.0  0.90050  0.13090  0.41140  1.0000 -0.1211558212
C   C61       1.0  0.49020  0.76280  0.80210  1.0000 -0.0837107378
C   C62       1.0  0.09010  0.54440  0.79450  1.0000 -0.0296576468
C   C63       1.0  0.11390  0.62070  0.79460  1.0000 -0.0999561274
C   C64       1.0  0.04040  0.67690  0.79890  1.0000 -0.0470815771
C   C65       1.0  0.61590  0.66350  0.79890  1.0000 -0.0899930556
C   C66       1.0  0.41760  0.70710  0.80740  1.0000 -0.0899930556
C   C67       1.0  0.54250  0.60920  0.80240  1.0000 -0.0368350316
C   C68       1.0  0.16790  0.48320  0.79060  1.0000 0.5594590841
C   C69       1.0  0.66920  0.79730  0.79240  1.0000 0.5594590841
C   C70       1.0  0.44300  0.63140  0.80780  1.0000 -0.0899930556
C   C71       1.0  0.59160  0.74110  0.79820  1.0000 -0.0655762297
C   C72       1.0  0.98970  0.52310  0.79830  1.0000 -0.0899930556
C   C73       1.0  0.57120  0.52800  0.79980  1.0000 0.5594590841
C   C74       1.0  0.06960  0.75790  0.79710  1.0000 0.5735015212
C   C75       1.0  0.29280  0.41560  0.93290  1.0000 0.0943588386
C   C76       1.0  0.26770  0.39430  0.89220  1.0000 0.1376663684
C   C77       1.0  0.91540  0.57680  0.80340  1.0000 -0.0837107378
C   C78       1.0  0.42520  0.42530  0.89340  1.0000 0.1376663684
C   C79       1.0  0.94240  0.65440  0.80310  1.0000 -0.0837107378
C   C80       1.0  0.44780  0.46710  0.96620  1.0000 0.0445662117
C   C81       1.0  0.47310  0.30010  0.03640  1.0000 -0.0899930556
C   C82       1.0  0.17380  0.37060  0.88070  1.0000 -0.1535458993
C   C83       1.0  0.47320  0.54480  0.96450  1.0000 0.0172553034
C   C84       1.0  0.22120  0.41550  0.96430  1.0000 -0.2065083701
C   C85       1.0  0.12480  0.38930  0.95280  1.0000 -0.0999561274
C   C86       1.0  0.44670  0.58980  0.92980  1.0000 -0.1651326777
C   C87       1.0  0.47440  0.42160  0.00160  1.0000 0.0069302156
C   C88       1.0  0.44690  0.34380  0.00340  1.0000 -0.1535458993
C   C89       1.0  0.47660  0.66510  0.92950  1.0000 -0.0837107378
C   C90       1.0  0.09950  0.36910  0.91140  1.0000 -0.1211558212
C   C91       1.0  0.00980  0.76280  0.69790  1.0000 -0.0837107378
C   C92       1.0  0.40990  0.54440  0.70550  1.0000 -0.0296576468
C   C93       1.0  0.38610  0.62070  0.70540  1.0000 -0.0999561274
C   C94       1.0  0.45960  0.67690  0.70110  1.0000 -0.0470815771
C   C95       1.0  0.88410  0.66350  0.70110  1.0000 -0.0899930556
C   C96       1.0  0.08240  0.70710  0.69260  1.0000 -0.0899930556
C   C97       1.0  0.95750  0.60920  0.69760  1.0000 -0.0368350316
C   C98       1.0  0.33210  0.48320  0.70940  1.0000 0.5594590841
C   C99       1.0  0.83080  0.79730  0.70760  1.0000 0.5594590841
C   C100      1.0  0.05700  0.63140  0.69220  1.0000 -0.0899930556
C   C101      1.0  0.90840  0.74110  0.70180  1.0000 -0.0655762297
C   C102      1.0  0.51030  0.52310  0.70170  1.0000 -0.0899930556
C   C103      1.0  0.92880  0.52800  0.70020  1.0000 0.5594590841
C   C104      1.0  0.43040  0.75790  0.70290  1.0000 0.5735015212
C   C105      1.0  0.20720  0.41560  0.56710  1.0000 0.0943588386
C   C106      1.0  0.23230  0.39430  0.60780  1.0000 0.1376663684
C   C107      1.0  0.58460  0.57680  0.69660  1.0000 -0.0837107378
C   C108      1.0  0.07480  0.42530  0.60660  1.0000 0.1376663684
C   C109      1.0  0.55760  0.65440  0.69690  1.0000 -0.0837107378
C   C110      1.0  0.05220  0.46710  0.53380  1.0000 0.0445662117
C   C111      1.0  0.02690  0.30010  0.46360  1.0000 -0.0899930556
C   C112      1.0  0.32620  0.37060  0.61930  1.0000 -0.1535458993
C   C113      1.0  0.02680  0.54480  0.53550  1.0000 0.0172553034
C   C114      1.0  0.27880  0.41550  0.53570  1.0000 -0.2065083701
C   C115      1.0  0.37520  0.38930  0.54720  1.0000 -0.0999561274
C   C116      1.0  0.05330  0.58980  0.57020  1.0000 -0.1611566158
C   C117      1.0  0.02560  0.42160  0.49840  1.0000 0.0069302156
C   C118      1.0  0.05310  0.34380  0.49660  1.0000 -0.1535458993
C   C119      1.0  0.02340  0.66510  0.57050  1.0000 -0.0837107378
C   C120      1.0  0.40050  0.36910  0.58860  1.0000 -0.1211558212
C   C121      1.0  0.00980  0.26280  0.80210  1.0000 -0.0837107378
C   C122      1.0  0.40990  0.04440  0.79450  1.0000 -0.0296576468
C   C123      1.0  0.38610  0.12070  0.79460  1.0000 -0.0999561274
C   C124      1.0  0.45960  0.17690  0.79890  1.0000 -0.0470815771
C   C125      1.0  0.88410  0.16350  0.79890  1.0000 -0.0899930556
C   C126      1.0  0.08240  0.20710  0.80740  1.0000 -0.0899930556
C   C127      1.0  0.95750  0.10920  0.80240  1.0000 -0.0368350316
C   C128      1.0  0.33210  0.98320  0.79060  1.0000 0.5594590841
C   C129      1.0  0.83080  0.29730  0.79240  1.0000 0.5594590841
C   C130      1.0  0.05700  0.13140  0.80780  1.0000 -0.0899930556
C   C131      1.0  0.90840  0.24110  0.79820  1.0000 -0.0655762297
C   C132      1.0  0.51030  0.02310  0.79830  1.0000 -0.0899930556
C   C133      1.0  0.92880  0.02800  0.79980  1.0000 0.5594590841
C   C134      1.0  0.43040  0.25790  0.79710  1.0000 0.5735015212
C   C135      1.0  0.20720  0.91560  0.93290  1.0000 0.0943588386
C   C136      1.0  0.23230  0.89430  0.89220  1.0000 0.1376663684
C   C137      1.0  0.58460  0.07680  0.80340  1.0000 -0.0837107378
C   C138      1.0  0.07480  0.92530  0.89340  1.0000 0.1376663684
C   C139      1.0  0.55760  0.15440  0.80310  1.0000 -0.0837107378
C   C140      1.0  0.05220  0.96710  0.96620  1.0000 0.0445662117
C   C141      1.0  0.02690  0.80010  0.03640  1.0000 -0.0899930556
C   C142      1.0  0.32620  0.87060  0.88070  1.0000 -0.1535458993
C   C143      1.0  0.02680  0.04480  0.96450  1.0000 0.0172553034
C   C144      1.0  0.27880  0.91550  0.96430  1.0000 -0.2065083701
C   C145      1.0  0.37520  0.88930  0.95280  1.0000 -0.0999561274
C   C146      1.0  0.05330  0.08980  0.92980  1.0000 -0.1611566158
C   C147      1.0  0.02560  0.92160  0.00160  1.0000 0.0069302156
C   C148      1.0  0.05310  0.84380  0.00340  1.0000 -0.1535458993
C   C149      1.0  0.02340  0.16510  0.92950  1.0000 -0.0837107378
C   C150      1.0  0.40050  0.86910  0.91140  1.0000 -0.1211558212
C   C151      1.0  0.49020  0.26280  0.69790  1.0000 -0.0837107378
C   C152      1.0  0.09010  0.04440  0.70550  1.0000 -0.0296576468
C   C153      1.0  0.11390  0.12070  0.70540  1.0000 -0.0999561274
C   C154      1.0  0.04040  0.17690  0.70110  1.0000 -0.0470815771
C   C155      1.0  0.61590  0.16350  0.70110  1.0000 -0.0899930556
C   C156      1.0  0.41760  0.20710  0.69260  1.0000 -0.0899930556
C   C157      1.0  0.54250  0.10920  0.69760  1.0000 -0.0368350316
C   C158      1.0  0.16790  0.98320  0.70940  1.0000 0.5594590841
C   C159      1.0  0.66920  0.29730  0.70760  1.0000 0.5594590841
C   C160      1.0  0.44300  0.13140  0.69220  1.0000 -0.0899930556
C   C161      1.0  0.59160  0.24110  0.70180  1.0000 -0.0655762297
C   C162      1.0  0.98970  0.02310  0.70170  1.0000 -0.0899930556
C   C163      1.0  0.57120  0.02800  0.70020  1.0000 0.5594590841
C   C164      1.0  0.06960  0.25790  0.70290  1.0000 0.5735015212
C   C165      1.0  0.29280  0.91560  0.56710  1.0000 0.0943588386
C   C166      1.0  0.26770  0.89430  0.60780  1.0000 0.1376663684
C   C167      1.0  0.91540  0.07680  0.69660  1.0000 -0.0837107378
C   C168      1.0  0.42520  0.92530  0.60660  1.0000 0.1376663684
C   C169      1.0  0.94240  0.15440  0.69690  1.0000 -0.0837107378
C   C170      1.0  0.44780  0.96710  0.53380  1.0000 0.0445662117
C   C171      1.0  0.47310  0.80010  0.46360  1.0000 -0.0899930556
C   C172      1.0  0.17380  0.87060  0.61930  1.0000 -0.1535458993
C   C173      1.0  0.47320  0.04480  0.53550  1.0000 0.0172553034
C   C174      1.0  0.22120  0.91550  0.53570  1.0000 -0.2065083701
C   C175      1.0  0.12480  0.88930  0.54720  1.0000 -0.0999561274
C   C176      1.0  0.44670  0.08980  0.57020  1.0000 -0.1611566158
C   C177      1.0  0.47440  0.92160  0.49840  1.0000 0.0069302156
C   C178      1.0  0.44690  0.84380  0.49660  1.0000 -0.1535458993
C   C179      1.0  0.47660  0.16510  0.57050  1.0000 -0.0837107378
C   C180      1.0  0.09950  0.86910  0.58860  1.0000 -0.1211558212
C   C181      1.0  0.50980  0.23720  0.19790  1.0000 -0.0899930556
C   C182      1.0  0.90990  0.45560  0.20550  1.0000 -0.0296576468
C   C183      1.0  0.88610  0.37930  0.20540  1.0000 -0.0999561274
C   C184      1.0  0.95960  0.32310  0.20110  1.0000 -0.0470815771
C   C185      1.0  0.38410  0.33650  0.20110  1.0000 -0.0899930556
C   C186      1.0  0.58240  0.29290  0.19260  1.0000 -0.0899930556
C   C187      1.0  0.45750  0.39080  0.19760  1.0000 -0.0368350316
C   C188      1.0  0.83210  0.51680  0.20940  1.0000 0.5594590841
C   C189      1.0  0.33080  0.20270  0.20760  1.0000 0.5594590841
C   C190      1.0  0.55700  0.36860  0.19220  1.0000 -0.0899930556
C   C191      1.0  0.40840  0.25890  0.20180  1.0000 -0.0655762297
C   C192      1.0  0.01030  0.47690  0.20170  1.0000 -0.0899930556
C   C193      1.0  0.42880  0.47200  0.20020  1.0000 0.5594590841
C   C194      1.0  0.93040  0.24210  0.20290  1.0000 0.5735015212
C   C195      1.0  0.70720  0.58440  0.06710  1.0000 0.0943588386
C   C196      1.0  0.73230  0.60570  0.10780  1.0000 0.1376663684
C   C197      1.0  0.08460  0.42320  0.19660  1.0000 -0.0837107378
C   C198      1.0  0.57480  0.57470  0.10660  1.0000 0.1376663684
C   C199      1.0  0.05760  0.34560  0.19690  1.0000 -0.0837107378
C   C200      1.0  0.55220  0.53290  0.03380  1.0000 0.0445662117
C   C201      1.0  0.52690  0.69990  0.96360  1.0000 -0.0899930556
C   C202      1.0  0.82620  0.62940  0.11930  1.0000 -0.1535458993
C   C203      1.0  0.52680  0.45520  0.03550  1.0000 0.0172553034
C   C204      1.0  0.77880  0.58450  0.03570  1.0000 -0.2065083701
C   C205      1.0  0.87520  0.61070  0.04720  1.0000 -0.0999561274
C   C206      1.0  0.55330  0.41020  0.07020  1.0000 -0.1611566158
C   C207      1.0  0.52560  0.57840  0.99840  1.0000 0.0069302156
C   C208      1.0  0.55310  0.65620  0.99660  1.0000 -0.1611566158
C   C209      1.0  0.52340  0.33490  0.07050  1.0000 -0.0837107378
C   C210      1.0  0.90050  0.63090  0.08860  1.0000 -0.1211558212
C   C211      1.0  0.99020  0.23720  0.30210  1.0000 -0.0837107378
C   C212      1.0  0.59010  0.45560  0.29450  1.0000 -0.0296576468
C   C213      1.0  0.61390  0.37930  0.29460  1.0000 -0.0999561274
C   C214      1.0  0.54040  0.32310  0.29890  1.0000 -0.0470815771
C   C215      1.0  0.11590  0.33650  0.29890  1.0000 -0.0899930556
C   C216      1.0  0.91760  0.29290  0.30740  1.0000 -0.0899930556
C   C217      1.0  0.04250  0.39080  0.30240  1.0000 -0.0368350316
C   C218      1.0  0.66790  0.51680  0.29060  1.0000 0.5594590841
C   C219      1.0  0.16920  0.20270  0.29240  1.0000 0.5594590841
C   C220      1.0  0.94300  0.36860  0.30780  1.0000 -0.0899930556
C   C221      1.0  0.09160  0.25890  0.29820  1.0000 -0.0655762297
C   C222      1.0  0.48970  0.47690  0.29830  1.0000 -0.0899930556
C   C223      1.0  0.07120  0.47200  0.29980  1.0000 0.5594590841
C   C224      1.0  0.56960  0.24210  0.29710  1.0000 0.5735015212
C   C225      1.0  0.79280  0.58440  0.43290  1.0000 0.0943588386
C   C226      1.0  0.76770  0.60570  0.39220  1.0000 0.1376663684
C   C227      1.0  0.41540  0.42320  0.30340  1.0000 -0.0837107378
C   C228      1.0  0.92520  0.57470  0.39340  1.0000 0.1376663684
C   C229      1.0  0.44240  0.34560  0.30310  1.0000 -0.0837107378
C   C230      1.0  0.94780  0.53290  0.46620  1.0000 0.0445662117
C   C231      1.0  0.97310  0.69990  0.53640  1.0000 -0.0899930556
C   C232      1.0  0.67380  0.62940  0.38070  1.0000 -0.1535458993
C   C233      1.0  0.97320  0.45520  0.46450  1.0000 0.0172553034
C   C234      1.0  0.72120  0.58450  0.46430  1.0000 -0.2065083701
C   C235      1.0  0.62480  0.61070  0.45280  1.0000 -0.0999561274
C   C236      1.0  0.94670  0.41020  0.42980  1.0000 -0.1651326777
C   C237      1.0  0.97440  0.57840  0.50160  1.0000 0.0069302156
C   C238      1.0  0.94690  0.65620  0.50340  1.0000 -0.1611566158
C   C239      1.0  0.97660  0.33490  0.42950  1.0000 -0.0837107378
C   C240      1.0  0.59950  0.63090  0.41140  1.0000 -0.1211558212
N   N1        1.0  0.85470  0.09990  0.13220  1.0000 -0.339389334
N   N2        1.0  0.89190  0.06500  0.06750  1.0000 -0.0368350316
N   N3        1.0  0.64530  0.09990  0.36780  1.0000 -0.339389334
N   N4        1.0  0.60810  0.06500  0.43250  1.0000 -0.0368350316
N   N5        1.0  0.35470  0.40010  0.86780  1.0000 -0.339389334
N   N6        1.0  0.39190  0.43500  0.93250  1.0000 -0.0368350316
N   N7        1.0  0.14530  0.40010  0.63220  1.0000 -0.339389334
N   N8        1.0  0.10810  0.43500  0.56750  1.0000 -0.0368350316
N   N9        1.0  0.14530  0.90010  0.86780  1.0000 -0.339389334
N   N10       1.0  0.10810  0.93500  0.93250  1.0000 -0.0368350316
N   N11       1.0  0.35470  0.90010  0.63220  1.0000 -0.339389334
N   N12       1.0  0.39190  0.93500  0.56750  1.0000 -0.0368350316
N   N13       1.0  0.64530  0.59990  0.13220  1.0000 -0.339389334
N   N14       1.0  0.60810  0.56500  0.06750  1.0000 -0.0368350316
N   N15       1.0  0.85470  0.59990  0.36780  1.0000 -0.339389334
N   N16       1.0  0.89190  0.56500  0.43250  1.0000 -0.0368350316
O   O1        1.0  0.75800  0.99600  0.19820  1.0000 -0.5556379022
O   O2        1.0  0.64990  0.08000  0.22300  1.0000 -0.5376135768
O   O3        1.0  0.50350  0.69080  0.20100  1.0000 -0.5820644559
O   O4        1.0  0.14990  0.63500  0.22150  1.0000 -0.6021524132
O   O5        1.0  0.26000  0.71890  0.19760  1.0000 -0.5470802546
O   O6        1.0  0.16140  0.99000  0.20620  1.0000 -0.5124771358
O   O7        1.0  0.00600  0.02470  0.19770  1.0000 -0.5881529362
O   O8        1.0  0.66140  0.72380  0.20610  1.0000 -0.518813266
O   O9        1.0  0.74200  0.99600  0.30180  1.0000 -0.5556379022
O   O10       1.0  0.85010  0.08000  0.27700  1.0000 -0.5376135768
O   O11       1.0  0.99650  0.69080  0.29900  1.0000 -0.5820644559
O   O12       1.0  0.35010  0.63500  0.27850  1.0000 -0.6021524132
O   O13       1.0  0.24000  0.71890  0.30240  1.0000 -0.5470802546
O   O14       1.0  0.33860  0.99000  0.29380  1.0000 -0.5124771358
O   O15       1.0  0.49400  0.02470  0.30230  1.0000 -0.5881529362
O   O16       1.0  0.83860  0.72380  0.29390  1.0000 -0.518813266
O   O17       1.0  0.25800  0.50400  0.80180  1.0000 -0.5556379022
O   O18       1.0  0.14990  0.42000  0.77700  1.0000 -0.5376135768
O   O19       1.0  0.00350  0.80920  0.79900  1.0000 -0.5820644559
O   O20       1.0  0.64990  0.86500  0.77850  1.0000 -0.6021524132
O   O21       1.0  0.76000  0.78110  0.80240  1.0000 -0.5470802546
O   O22       1.0  0.66140  0.51000  0.79380  1.0000 -0.5124771358
O   O23       1.0  0.50600  0.47530  0.80230  1.0000 -0.5881529362
O   O24       1.0  0.16140  0.77620  0.79390  1.0000 -0.518813266
O   O25       1.0  0.24200  0.50400  0.69820  1.0000 -0.5556379022
O   O26       1.0  0.35010  0.42000  0.72300  1.0000 -0.5376135768
O   O27       1.0  0.49650  0.80920  0.70100  1.0000 -0.5820644559
O   O28       1.0  0.85010  0.86500  0.72150  1.0000 -0.6021524132
O   O29       1.0  0.74000  0.78110  0.69760  1.0000 -0.5470802546
O   O30       1.0  0.83860  0.51000  0.70620  1.0000 -0.5124771358
O   O31       1.0  0.99400  0.47530  0.69770  1.0000 -0.5881529362
O   O32       1.0  0.33860  0.77620  0.70610  1.0000 -0.518813266
O   O33       1.0  0.24200  0.00400  0.80180  1.0000 -0.5556379022
O   O34       1.0  0.35010  0.92000  0.77700  1.0000 -0.5376135768
O   O35       1.0  0.49650  0.30920  0.79900  1.0000 -0.5820644559
O   O36       1.0  0.85010  0.36500  0.77850  1.0000 -0.6021524132
O   O37       1.0  0.74000  0.28110  0.80240  1.0000 -0.5470802546
O   O38       1.0  0.83860  0.01000  0.79380  1.0000 -0.5124771358
O   O39       1.0  0.99400  0.97530  0.80230  1.0000 -0.5881529362
O   O40       1.0  0.33860  0.27620  0.79390  1.0000 -0.518813266
O   O41       1.0  0.25800  0.00400  0.69820  1.0000 -0.5556379022
O   O42       1.0  0.14990  0.92000  0.72300  1.0000 -0.5376135768
O   O43       1.0  0.00350  0.30920  0.70100  1.0000 -0.5820644559
O   O44       1.0  0.64990  0.36500  0.72150  1.0000 -0.6021524132
O   O45       1.0  0.76000  0.28110  0.69760  1.0000 -0.5470802546
O   O46       1.0  0.66140  0.01000  0.70620  1.0000 -0.5124771358
O   O47       1.0  0.50600  0.97530  0.69770  1.0000 -0.5881529362
O   O48       1.0  0.16140  0.27620  0.70610  1.0000 -0.518813266
O   O49       1.0  0.74200  0.49600  0.19820  1.0000 -0.5556379022
O   O50       1.0  0.85010  0.58000  0.22300  1.0000 -0.5376135768
O   O51       1.0  0.99650  0.19080  0.20100  1.0000 -0.5820644559
O   O52       1.0  0.35010  0.13500  0.22150  1.0000 -0.6021524132
O   O53       1.0  0.24000  0.21890  0.19760  1.0000 -0.5470802546
O   O54       1.0  0.33860  0.49000  0.20620  1.0000 -0.5124771358
O   O55       1.0  0.49400  0.52470  0.19770  1.0000 -0.5881529362
O   O56       1.0  0.83860  0.22380  0.20610  1.0000 -0.518813266
O   O57       1.0  0.75800  0.49600  0.30180  1.0000 -0.5556379022
O   O58       1.0  0.64990  0.58000  0.27700  1.0000 -0.5376135768
O   O59       1.0  0.50350  0.19080  0.29900  1.0000 -0.5820644559
O   O60       1.0  0.14990  0.13500  0.27850  1.0000 -0.6021524132
O   O61       1.0  0.26000  0.21890  0.30240  1.0000 -0.5470802546
O   O62       1.0  0.16140  0.49000  0.29380  1.0000 -0.5124771358
O   O63       1.0  0.00600  0.52470  0.30230  1.0000 -0.5881529362
O   O64       1.0  0.66140  0.22380  0.29390  1.0000 -0.518813266
