# DDEC6 charges by PACMAN v1.1 (https://github.com/mtap-research/PACMAN-charge/)
data_2022[Cd][nan]3[ASR]6
_chemical_formula_sum              "Cd6 H76 C112 N12 O24"
_cell_length_a       14.5522
_cell_length_b       14.5522
_cell_length_c       20.6483
_cell_angle_alpha    84.8963
_cell_angle_beta     95.1037
_cell_angle_gamma    52.7572

_symmetry_space_group_name_H-M    "P 1"
_symmetry_Int_Tables_number       1

loop_
  _symmetry_equiv_pos_as_xyz
  'x, y, z'

loop_
  _atom_site_type_symbol
  _atom_site_label
  _atom_site_symmetry_multiplicity
  _atom_site_fract_x
  _atom_site_fract_y
  _atom_site_fract_z
  _atom_site_occupancy
  _atom_site_charge
Cd  Cd1       1.0  0.97136  0.25338  0.58764  1.0000 0.9134718906
Cd  Cd2       1.0  0.25338  0.97136  0.91236  1.0000 0.9134718906
Cd  Cd3       1.0  0.15547  0.15547  0.75000  1.0000 1.0089628827
Cd  Cd4       1.0  0.02864  0.74662  0.41236  1.0000 0.9134718906
Cd  Cd5       1.0  0.74662  0.02864  0.08764  1.0000 0.9134718906
Cd  Cd6       1.0  0.84453  0.84453  0.25000  1.0000 1.0089628827
H   H1        1.0  0.03606  0.54474  0.70706  1.0000 0.1208114891
H   H2        1.0  0.78580  0.53962  0.61658  1.0000 0.1208114891
H   H3        1.0  0.66580  0.74056  0.58573  1.0000 0.1208114891
H   H4        1.0  0.91428  0.74518  0.68135  1.0000 0.1295753388
H   H5        1.0  0.38796  0.95024  0.68336  1.0000 0.1208114891
H   H6        1.0  0.58656  0.84826  0.68893  1.0000 0.1208114891
H   H7        1.0  0.32636  0.18464  0.53274  1.0000 0.1106947595
H   H8        1.0  0.92914  0.95900  0.53693  1.0000 0.1295753388
H   H9        1.0  0.85425  0.85835  0.54722  1.0000 0.1295753388
H   H10       1.0  0.52536  0.07990  0.53668  1.0000 0.1208114891
H   H11       1.0  0.70465  0.45321  0.48823  1.0000 0.1208114891
H   H12       1.0  0.98548  0.42972  0.48327  1.0000 0.1295753388
H   H13       1.0  0.57626  0.72074  0.39503  1.0000 0.1208114891
H   H14       1.0  0.55418  0.62750  0.40133  1.0000 0.1208114891
H   H15       1.0  0.64599  0.06763  0.66667  1.0000 0.1208114891
H   H16       1.0  0.82680  0.59754  0.40173  1.0000 0.1295753388
H   H17       1.0  0.71295  0.17657  0.65058  1.0000 0.1106947595
H   H18       1.0  0.53331  0.56473  0.30416  1.0000 0.1208114891
H   H19       1.0  0.69020  0.70862  0.30356  1.0000 0.1295753388
H   H20       1.0  0.54474  0.03606  0.79294  1.0000 0.1208114891
H   H21       1.0  0.53962  0.78580  0.88342  1.0000 0.1208114891
H   H22       1.0  0.74056  0.66580  0.91427  1.0000 0.1208114891
H   H23       1.0  0.74518  0.91428  0.81865  1.0000 0.1295753388
H   H24       1.0  0.95024  0.38796  0.81664  1.0000 0.1208114891
H   H25       1.0  0.84826  0.58656  0.81107  1.0000 0.1208114891
H   H26       1.0  0.18464  0.32636  0.96726  1.0000 0.1106947595
H   H27       1.0  0.95900  0.92914  0.96307  1.0000 0.1295753388
H   H28       1.0  0.85835  0.85425  0.95278  1.0000 0.1295753388
H   H29       1.0  0.07990  0.52536  0.96332  1.0000 0.1208114891
H   H30       1.0  0.45321  0.70465  0.01177  1.0000 0.1208114891
H   H31       1.0  0.42972  0.98548  0.01673  1.0000 0.1295753388
H   H32       1.0  0.72074  0.57626  0.10497  1.0000 0.1208114891
H   H33       1.0  0.62750  0.55418  0.09867  1.0000 0.1208114891
H   H34       1.0  0.06763  0.64599  0.83333  1.0000 0.1208114891
H   H35       1.0  0.59754  0.82680  0.09827  1.0000 0.1295753388
H   H36       1.0  0.17657  0.71295  0.84942  1.0000 0.1106947595
H   H37       1.0  0.56473  0.53331  0.19584  1.0000 0.1208114891
H   H38       1.0  0.70862  0.69020  0.19644  1.0000 0.1295753388
H   H39       1.0  0.96394  0.45526  0.29294  1.0000 0.1208114891
H   H40       1.0  0.21420  0.46038  0.38342  1.0000 0.1208114891
H   H41       1.0  0.33420  0.25944  0.41427  1.0000 0.1208114891
H   H42       1.0  0.08572  0.25482  0.31865  1.0000 0.1295753388
H   H43       1.0  0.61204  0.04976  0.31664  1.0000 0.1208114891
H   H44       1.0  0.41344  0.15174  0.31107  1.0000 0.1208114891
H   H45       1.0  0.67364  0.81536  0.46726  1.0000 0.1106947595
H   H46       1.0  0.07086  0.04100  0.46307  1.0000 0.1295753388
H   H47       1.0  0.14575  0.14165  0.45278  1.0000 0.1295753388
H   H48       1.0  0.47464  0.92010  0.46332  1.0000 0.1208114891
H   H49       1.0  0.29535  0.54679  0.51177  1.0000 0.1208114891
H   H50       1.0  0.01452  0.57028  0.51673  1.0000 0.1295753388
H   H51       1.0  0.42374  0.27926  0.60497  1.0000 0.1208114891
H   H52       1.0  0.44582  0.37250  0.59867  1.0000 0.1208114891
H   H53       1.0  0.35401  0.93237  0.33333  1.0000 0.1208114891
H   H54       1.0  0.17320  0.40246  0.59827  1.0000 0.1295753388
H   H55       1.0  0.28705  0.82343  0.34942  1.0000 0.1106947595
H   H56       1.0  0.46669  0.43527  0.69584  1.0000 0.1208114891
H   H57       1.0  0.30980  0.29138  0.69644  1.0000 0.1295753388
H   H58       1.0  0.45526  0.96394  0.20706  1.0000 0.1208114891
H   H59       1.0  0.46038  0.21420  0.11658  1.0000 0.1208114891
H   H60       1.0  0.25944  0.33420  0.08573  1.0000 0.1208114891
H   H61       1.0  0.25482  0.08572  0.18135  1.0000 0.1295753388
H   H62       1.0  0.04976  0.61204  0.18336  1.0000 0.1208114891
H   H63       1.0  0.15174  0.41344  0.18893  1.0000 0.1208114891
H   H64       1.0  0.81536  0.67364  0.03274  1.0000 0.1106947595
H   H65       1.0  0.04100  0.07086  0.03693  1.0000 0.1295753388
H   H66       1.0  0.14165  0.14575  0.04722  1.0000 0.1295753388
H   H67       1.0  0.92010  0.47464  0.03668  1.0000 0.1208114891
H   H68       1.0  0.54679  0.29535  0.98823  1.0000 0.1208114891
H   H69       1.0  0.57028  0.01452  0.98327  1.0000 0.1295753388
H   H70       1.0  0.27926  0.42374  0.89503  1.0000 0.1208114891
H   H71       1.0  0.37250  0.44582  0.90133  1.0000 0.1208114891
H   H72       1.0  0.93237  0.35401  0.16667  1.0000 0.1208114891
H   H73       1.0  0.40246  0.17320  0.90173  1.0000 0.1295753388
H   H74       1.0  0.82343  0.28705  0.15058  1.0000 0.1106947595
H   H75       1.0  0.43527  0.46669  0.80416  1.0000 0.1208114891
H   H76       1.0  0.29138  0.30980  0.80356  1.0000 0.1295753388
C   C1        1.0  0.92394  0.52034  0.66610  1.0000 -0.0498994906
C   C2        1.0  0.96040  0.58420  0.68380  1.0000 -0.0904491773
C   C3        1.0  0.81210  0.58090  0.62940  1.0000 -0.0904491773
C   C4        1.0  0.77548  0.76508  0.63160  1.0000 0.188519435
C   C5        1.0  0.20770  0.14330  0.60200  1.0000 0.5544589292
C   C6        1.0  0.73960  0.70160  0.61150  1.0000 -0.1979827031
C   C7        1.0  0.33610  0.07710  0.60650  1.0000 -0.0418154169
C   C8        1.0  0.00030  0.39070  0.68700  1.0000 0.5434816014
C   C9        1.0  0.88800  0.70420  0.66790  1.0000 -0.1979827031
C   C10       1.0  0.41530  0.97650  0.65380  1.0000 -0.0804790948
C   C11       1.0  0.53430  0.91550  0.65700  1.0000 -0.1870674287
C   C12       1.0  0.37860  0.11600  0.56370  1.0000 -0.1068884973
C   C13       1.0  0.87230  0.98130  0.56300  1.0000 -0.0668962533
C   C14       1.0  0.82750  0.92090  0.56930  1.0000 -0.1870674287
C   C15       1.0  0.57675  0.95255  0.61370  1.0000 0.1795652806
C   C16       1.0  0.74340  0.95220  0.60820  1.0000 0.1795652806
C   C17       1.0  0.49780  0.05400  0.56640  1.0000 -0.1979827031
C   C18       1.0  0.88270  0.13930  0.59000  1.0000 0.5221127103
C   C19       1.0  0.75530  0.46830  0.47690  1.0000 0.0871185529
C   C20       1.0  0.90890  0.45510  0.47440  1.0000 -0.0418154169
C   C21       1.0  0.83270  0.07510  0.59520  1.0000 -0.0262827035
C   C22       1.0  0.60740  0.64220  0.38850  1.0000 -0.1794605274
C   C23       1.0  0.70180  0.04660  0.64000  1.0000 -0.2095073331
C   C24       1.0  0.82150  0.54750  0.42930  1.0000 -0.0962633584
C   C25       1.0  0.61450  0.63430  0.31630  1.0000 0.0871185529
C   C26       1.0  0.74420  0.11000  0.63160  1.0000 -0.0904491773
C   C27       1.0  0.57240  0.58740  0.28330  1.0000 -0.1660153736
C   C28       1.0  0.66300  0.67340  0.28240  1.0000 -0.1344378312
C   C29       1.0  0.52034  0.92394  0.83390  1.0000 -0.0498994906
C   C30       1.0  0.58420  0.96040  0.81620  1.0000 -0.0904491773
C   C31       1.0  0.58090  0.81210  0.87060  1.0000 -0.0904491773
C   C32       1.0  0.76508  0.77548  0.86840  1.0000 0.188519435
C   C33       1.0  0.14330  0.20770  0.89800  1.0000 0.5544589292
C   C34       1.0  0.70160  0.73960  0.88850  1.0000 -0.1979827031
C   C35       1.0  0.07710  0.33610  0.89350  1.0000 -0.0418154169
C   C36       1.0  0.39070  0.00030  0.81300  1.0000 0.5434816014
C   C37       1.0  0.70420  0.88800  0.83210  1.0000 -0.1979827031
C   C38       1.0  0.97650  0.41530  0.84620  1.0000 -0.0804790948
C   C39       1.0  0.91550  0.53430  0.84300  1.0000 -0.1870674287
C   C40       1.0  0.11600  0.37860  0.93630  1.0000 -0.1068884973
C   C41       1.0  0.98130  0.87230  0.93700  1.0000 -0.0668962533
C   C42       1.0  0.92090  0.82750  0.93070  1.0000 -0.1870674287
C   C43       1.0  0.95255  0.57675  0.88630  1.0000 0.1795652806
C   C44       1.0  0.95220  0.74340  0.89180  1.0000 0.1795652806
C   C45       1.0  0.05400  0.49780  0.93360  1.0000 -0.1979827031
C   C46       1.0  0.13930  0.88270  0.91000  1.0000 0.5221127103
C   C47       1.0  0.46830  0.75530  0.02310  1.0000 0.0871185529
C   C48       1.0  0.45510  0.90890  0.02560  1.0000 -0.0418154169
C   C49       1.0  0.07510  0.83270  0.90480  1.0000 -0.0262827035
C   C50       1.0  0.64220  0.60740  0.11150  1.0000 -0.1794605274
C   C51       1.0  0.04660  0.70180  0.86000  1.0000 -0.2095073331
C   C52       1.0  0.54750  0.82150  0.07070  1.0000 -0.0962633584
C   C53       1.0  0.63430  0.61450  0.18370  1.0000 0.0871185529
C   C54       1.0  0.11000  0.74420  0.86840  1.0000 -0.0904491773
C   C55       1.0  0.58740  0.57240  0.21670  1.0000 -0.1660153736
C   C56       1.0  0.67340  0.66300  0.21760  1.0000 -0.1344378312
C   C57       1.0  0.07606  0.47966  0.33390  1.0000 -0.0498994906
C   C58       1.0  0.03960  0.41580  0.31620  1.0000 -0.0904491773
C   C59       1.0  0.18790  0.41910  0.37060  1.0000 -0.0904491773
C   C60       1.0  0.22452  0.23492  0.36840  1.0000 0.188519435
C   C61       1.0  0.79230  0.85670  0.39800  1.0000 0.5544589292
C   C62       1.0  0.26040  0.29840  0.38850  1.0000 -0.1979827031
C   C63       1.0  0.66390  0.92290  0.39350  1.0000 -0.0418154169
C   C64       1.0  0.99970  0.60930  0.31300  1.0000 0.5434816014
C   C65       1.0  0.11200  0.29580  0.33210  1.0000 -0.1979827031
C   C66       1.0  0.58470  0.02350  0.34620  1.0000 -0.0804790948
C   C67       1.0  0.46570  0.08450  0.34300  1.0000 -0.1870674287
C   C68       1.0  0.62140  0.88400  0.43630  1.0000 -0.1068884973
C   C69       1.0  0.12770  0.01870  0.43700  1.0000 -0.0668962533
C   C70       1.0  0.17250  0.07910  0.43070  1.0000 -0.1870674287
C   C71       1.0  0.42325  0.04745  0.38630  1.0000 0.1795652806
C   C72       1.0  0.25660  0.04780  0.39180  1.0000 0.1795652806
C   C73       1.0  0.50220  0.94600  0.43360  1.0000 -0.1979827031
C   C74       1.0  0.11730  0.86070  0.41000  1.0000 0.5221127103
C   C75       1.0  0.24470  0.53170  0.52310  1.0000 0.0871185529
C   C76       1.0  0.09110  0.54490  0.52560  1.0000 -0.0418154169
C   C77       1.0  0.16730  0.92490  0.40480  1.0000 -0.0262827035
C   C78       1.0  0.39260  0.35780  0.61150  1.0000 -0.1794605274
C   C79       1.0  0.29820  0.95340  0.36000  1.0000 -0.2095073331
C   C80       1.0  0.17850  0.45250  0.57070  1.0000 -0.0962633584
C   C81       1.0  0.38550  0.36570  0.68370  1.0000 0.0871185529
C   C82       1.0  0.25580  0.89000  0.36840  1.0000 -0.0904491773
C   C83       1.0  0.42760  0.41260  0.71670  1.0000 -0.1660153736
C   C84       1.0  0.33700  0.32660  0.71760  1.0000 -0.1344378312
C   C85       1.0  0.47966  0.07606  0.16610  1.0000 -0.0498994906
C   C86       1.0  0.41580  0.03960  0.18380  1.0000 -0.0904491773
C   C87       1.0  0.41910  0.18790  0.12940  1.0000 -0.0904491773
C   C88       1.0  0.23492  0.22452  0.13160  1.0000 0.188519435
C   C89       1.0  0.85670  0.79230  0.10200  1.0000 0.5544589292
C   C90       1.0  0.29840  0.26040  0.11150  1.0000 -0.1979827031
C   C91       1.0  0.92290  0.66390  0.10650  1.0000 -0.0418154169
C   C92       1.0  0.60930  0.99970  0.18700  1.0000 0.5434816014
C   C93       1.0  0.29580  0.11200  0.16790  1.0000 -0.1979827031
C   C94       1.0  0.02350  0.58470  0.15380  1.0000 -0.0804790948
C   C95       1.0  0.08450  0.46570  0.15700  1.0000 -0.1870674287
C   C96       1.0  0.88400  0.62140  0.06370  1.0000 -0.1068884973
C   C97       1.0  0.01870  0.12770  0.06300  1.0000 -0.0668962533
C   C98       1.0  0.07910  0.17250  0.06930  1.0000 -0.1870674287
C   C99       1.0  0.04745  0.42325  0.11370  1.0000 0.1795652806
C   C100      1.0  0.04780  0.25660  0.10820  1.0000 0.1795652806
C   C101      1.0  0.94600  0.50220  0.06640  1.0000 -0.1979827031
C   C102      1.0  0.86070  0.11730  0.09000  1.0000 0.5221127103
C   C103      1.0  0.53170  0.24470  0.97690  1.0000 0.0871185529
C   C104      1.0  0.54490  0.09110  0.97440  1.0000 -0.0418154169
C   C105      1.0  0.92490  0.16730  0.09520  1.0000 -0.0262827035
C   C106      1.0  0.35780  0.39260  0.88850  1.0000 -0.1794605274
C   C107      1.0  0.95340  0.29820  0.14000  1.0000 -0.2095073331
C   C108      1.0  0.45250  0.17850  0.92930  1.0000 -0.0962633584
C   C109      1.0  0.36570  0.38550  0.81630  1.0000 0.0871185529
C   C110      1.0  0.89000  0.25580  0.13160  1.0000 -0.0904491773
C   C111      1.0  0.41260  0.42760  0.78330  1.0000 -0.1660153736
C   C112      1.0  0.32660  0.33700  0.78240  1.0000 -0.1344378312
N   N1        1.0  0.86705  0.40465  0.50490  1.0000 -0.2926629279
N   N2        1.0  0.69878  0.88898  0.61590  1.0000 -0.1794605274
N   N3        1.0  0.72450  0.55590  0.43070  1.0000 0.0470712874
N   N4        1.0  0.40465  0.86705  0.99510  1.0000 -0.2926629279
N   N5        1.0  0.88898  0.69878  0.88410  1.0000 -0.1794605274
N   N6        1.0  0.55590  0.72450  0.06930  1.0000 0.0470712874
N   N7        1.0  0.13295  0.59535  0.49510  1.0000 -0.2926629279
N   N8        1.0  0.30122  0.11102  0.38410  1.0000 -0.1794605274
N   N9        1.0  0.27550  0.44410  0.56930  1.0000 0.0470712874
N   N10       1.0  0.59535  0.13295  0.00490  1.0000 -0.2926629279
N   N11       1.0  0.11102  0.30122  0.11590  1.0000 -0.1794605274
N   N12       1.0  0.44410  0.27550  0.93070  1.0000 0.0470712874
O   O1        1.0  0.17105  0.11045  0.64540  1.0000 -0.5750650037
O   O2        1.0  0.95772  0.33732  0.67790  1.0000 -0.5713763703
O   O3        1.0  0.13749  0.22709  0.55590  1.0000 -0.5356205274
O   O4        1.0  0.10231  0.33811  0.71710  1.0000 -0.5229979027
O   O5        1.0  0.95032  0.11792  0.55390  1.0000 -0.4917093162
O   O6        1.0  0.85287  0.21547  0.62450  1.0000 -0.5266485233
O   O7        1.0  0.11045  0.17105  0.85460  1.0000 -0.5750650037
O   O8        1.0  0.33732  0.95772  0.82210  1.0000 -0.5713763703
O   O9        1.0  0.22709  0.13749  0.94410  1.0000 -0.5356205274
O   O10       1.0  0.33811  0.10231  0.78290  1.0000 -0.5229979027
O   O11       1.0  0.11792  0.95032  0.94610  1.0000 -0.4917093162
O   O12       1.0  0.21547  0.85287  0.87550  1.0000 -0.5266485233
O   O13       1.0  0.82895  0.88955  0.35460  1.0000 -0.5750650037
O   O14       1.0  0.04228  0.66268  0.32210  1.0000 -0.5713763703
O   O15       1.0  0.86251  0.77291  0.44410  1.0000 -0.5356205274
O   O16       1.0  0.89769  0.66189  0.28290  1.0000 -0.5229979027
O   O17       1.0  0.04968  0.88208  0.44610  1.0000 -0.4917093162
O   O18       1.0  0.14713  0.78453  0.37550  1.0000 -0.5266485233
O   O19       1.0  0.88955  0.82895  0.14540  1.0000 -0.5750650037
O   O20       1.0  0.66268  0.04228  0.17790  1.0000 -0.5713763703
O   O21       1.0  0.77291  0.86251  0.05590  1.0000 -0.5356205274
O   O22       1.0  0.66189  0.89769  0.21710  1.0000 -0.5229979027
O   O23       1.0  0.88208  0.04968  0.05390  1.0000 -0.4917093162
O   O24       1.0  0.78453  0.14713  0.12450  1.0000 -0.5266485233
