# DDEC6 charges by PACMAN v1.1 (https://github.com/mtap-research/PACMAN-charge/)
data_2022[Zn][bex]2[ASR]1
_chemical_formula_sum              "Zn2 H22 C34 N2 O8"
_cell_length_a       7.722
_cell_length_b       9.984
_cell_length_c       14.448
_cell_angle_alpha    104.467
_cell_angle_beta     99.745
_cell_angle_gamma    104.954

_symmetry_space_group_name_H-M    "P 1"
_symmetry_Int_Tables_number       1

loop_
  _symmetry_equiv_pos_as_xyz
  'x, y, z'

loop_
  _atom_site_type_symbol
  _atom_site_label
  _atom_site_symmetry_multiplicity
  _atom_site_fract_x
  _atom_site_fract_y
  _atom_site_fract_z
  _atom_site_occupancy
  _atom_site_charge
Zn  Zn1       1.0  0.71494  0.72620  0.42280  1.0000 0.8189236132
Zn  Zn2       1.0  0.28506  0.27380  0.57720  1.0000 0.8189236132
H   H1        1.0  0.70471  0.20566  0.41521  1.0000 0.1296829043
H   H2        1.0  0.61803  0.91121  0.15253  1.0000 0.1225660091
H   H3        1.0  0.59175  0.31136  0.16733  1.0000 0.1296829043
H   H4        1.0  0.52658  0.14636  0.01093  1.0000 0.1098235232
H   H5        1.0  0.68480  0.07523  0.01304  1.0000 0.1098235232
H   H6        1.0  0.70756  0.96874  0.59516  1.0000 0.1225660091
H   H7        1.0  0.79294  0.05632  0.76287  1.0000 0.1356754509
H   H8        1.0  0.94839  0.70463  0.76649  1.0000 0.1296829043
H   H9        1.0  0.87116  0.63134  0.59914  1.0000 0.1225660091
H   H10       1.0  0.04546  0.16084  0.90917  1.0000 0.1296829043
H   H11       1.0  0.13827  0.24694  0.07847  1.0000 0.1225660091
H   H12       1.0  0.29529  0.79434  0.58479  1.0000 0.1296829043
H   H13       1.0  0.38197  0.08879  0.84747  1.0000 0.1225660091
H   H14       1.0  0.40825  0.68864  0.83267  1.0000 0.1296829043
H   H15       1.0  0.47342  0.85364  0.98907  1.0000 0.1098235232
H   H16       1.0  0.31520  0.92477  0.98696  1.0000 0.1098235232
H   H17       1.0  0.29244  0.03126  0.40484  1.0000 0.1225660091
H   H18       1.0  0.20706  0.94368  0.23713  1.0000 0.1356754509
H   H19       1.0  0.05161  0.29537  0.23351  1.0000 0.1296829043
H   H20       1.0  0.12884  0.36866  0.40086  1.0000 0.1225660091
H   H21       1.0  0.95454  0.83916  0.09083  1.0000 0.1296829043
H   H22       1.0  0.86173  0.75306  0.92153  1.0000 0.1225660091
C   C1        1.0  0.66720  0.43220  0.36220  1.0000 0.5450785366
C   C2        1.0  0.65000  0.28110  0.30010  1.0000 -0.0144607852
C   C3        1.0  0.67810  0.18010  0.34670  1.0000 -0.1334659102
C   C4        1.0  0.66680  0.04080  0.29180  1.0000 -0.0204172012
C   C5        1.0  0.62680  0.00460  0.18950  1.0000 -0.1690628322
C   C6        1.0  0.59950  0.10450  0.14090  1.0000 0.1098235232
C   C7        1.0  0.61090  0.24320  0.19820  1.0000 -0.1802690717
C   C8        1.0  0.69650  0.93400  0.34410  1.0000 0.5341248719
C   C9        1.0  0.56730  0.07060  0.02970  1.0000 -0.2342294993
C   C10       1.0  0.75950  0.91610  0.63010  1.0000 0.0999433008
C   C11       1.0  0.80930  0.96880  0.73120  1.0000 -0.1929035725
C   C12       1.0  0.88360  0.89280  0.78670  1.0000 0.1098235232
C   C13       1.0  0.90250  0.76170  0.73320  1.0000 -0.1929035725
C   C14       1.0  0.85390  0.71750  0.63250  1.0000 0.0999433008
C   C15       1.0  0.94330  0.94730  0.89620  1.0000 0.0612672439
C   C16       1.0  0.02690  0.09570  0.94540  1.0000 -0.1334659102
C   C17       1.0  0.08260  0.14750  0.04720  1.0000 -0.1334659102
C   C18       1.0  0.33280  0.56780  0.63780  1.0000 0.5450785366
C   C19       1.0  0.35000  0.71890  0.69990  1.0000 -0.0144607852
C   C20       1.0  0.32190  0.81990  0.65330  1.0000 -0.1334659102
C   C21       1.0  0.33320  0.95920  0.70820  1.0000 -0.0204172012
C   C22       1.0  0.37320  0.99540  0.81050  1.0000 -0.1690628322
C   C23       1.0  0.40050  0.89550  0.85910  1.0000 0.1098235232
C   C24       1.0  0.38910  0.75680  0.80180  1.0000 -0.1802690717
C   C25       1.0  0.30350  0.06600  0.65590  1.0000 0.5341248719
C   C26       1.0  0.43270  0.92940  0.97030  1.0000 -0.2352076414
C   C27       1.0  0.24050  0.08390  0.36990  1.0000 0.0999433008
C   C28       1.0  0.19070  0.03120  0.26880  1.0000 -0.1929035725
C   C29       1.0  0.11640  0.10720  0.21330  1.0000 0.1098235232
C   C30       1.0  0.09750  0.23830  0.26680  1.0000 -0.1929035725
C   C31       1.0  0.14610  0.28250  0.36750  1.0000 0.0999433008
C   C32       1.0  0.05670  0.05270  0.10380  1.0000 0.0612672439
C   C33       1.0  0.97310  0.90430  0.05460  1.0000 -0.1334659102
C   C34       1.0  0.91740  0.85250  0.95280  1.0000 -0.1334659102
N   N1        1.0  0.78220  0.79190  0.57880  1.0000 -0.2195448073
N   N2        1.0  0.21780  0.20810  0.42120  1.0000 -0.2195448073
O   O1        1.0  0.67510  0.53080  0.32084  1.0000 -0.5139010342
O   O2        1.0  0.67400  0.45760  0.45113  1.0000 -0.5419819149
O   O3        1.0  0.76310  0.97510  0.43528  1.0000 -0.5451119336
O   O4        1.0  0.65060  0.80090  0.29560  1.0000 -0.517573038
O   O5        1.0  0.32490  0.46920  0.67916  1.0000 -0.5139010342
O   O6        1.0  0.32600  0.54240  0.54887  1.0000 -0.5419819149
O   O7        1.0  0.23690  0.02490  0.56472  1.0000 -0.5451119336
O   O8        1.0  0.34940  0.19910  0.70440  1.0000 -0.517573038
