# DDEC6 charges by PACMAN v1.1 (https://github.com/mtap-research/PACMAN-charge/)
data_2022[Mn][pcu]3[ASR]2
_chemical_formula_sum              "Mn8 H34 C98 O28 F42"
_cell_length_a       15.9327
_cell_length_b       17.496
_cell_length_c       18.6707
_cell_angle_alpha    59.003
_cell_angle_beta     71.3631
_cell_angle_gamma    65.47

_symmetry_space_group_name_H-M    "P 1"
_symmetry_Int_Tables_number       1

loop_
  _symmetry_equiv_pos_as_xyz
  'x, y, z'

loop_
  _atom_site_type_symbol
  _atom_site_label
  _atom_site_symmetry_multiplicity
  _atom_site_fract_x
  _atom_site_fract_y
  _atom_site_fract_z
  _atom_site_occupancy
  _atom_site_charge
Mn  Mn1       1.0  0.97195  0.52265  0.58358  1.0000 1.1658235477
Mn  Mn2       1.0  0.14108  0.28721  0.60827  1.0000 1.1077408479
Mn  Mn3       1.0  0.27998  0.33389  0.41244  1.0000 1.0800657556
Mn  Mn4       1.0  0.15878  0.37413  0.72484  1.0000 1.0547076152
Mn  Mn5       1.0  0.02805  0.47735  0.41642  1.0000 1.164914696
Mn  Mn6       1.0  0.85892  0.71279  0.39173  1.0000 1.1077408479
Mn  Mn7       1.0  0.72002  0.66611  0.58756  1.0000 1.0800657556
Mn  Mn8       1.0  0.84122  0.62587  0.27516  1.0000 1.0547076152
H   H1        1.0  0.78911  0.48224  0.52197  1.0000 0.1367625084
H   H2        1.0  0.86899  0.21236  0.67964  1.0000 0.1282159424
H   H3        1.0  0.33286  0.59188  0.17765  1.0000 0.1221721841
H   H4        1.0  0.64503  0.47528  0.53274  1.0000 0.1221721841
H   H5        1.0  0.23184  0.61360  0.65888  1.0000 0.1221721841
H   H6        1.0  0.05709  0.68444  0.22589  1.0000 0.1282159424
H   H7        1.0  0.05707  0.83118  0.11791  1.0000 0.1221721841
H   H8        1.0  0.02633  0.90413  0.51983  1.0000 0.1126717166
H   H9        1.0  0.12182  0.06882  0.63383  1.0000 0.1367625084
H   H10       1.0  0.50199  0.28688  0.50145  1.0000 0.1282159424
H   H11       1.0  0.35492  0.37663  0.67408  1.0000 0.1126717166
H   H12       1.0  0.18770  0.09945  0.95822  1.0000 0.1367625084
H   H13       1.0  0.00124  0.76975  0.54666  1.0000 0.1282159424
H   H14       1.0  0.14669  0.02180  0.80992  1.0000 0.1282159424
H   H15       1.0  0.63324  0.28627  0.52370  1.0000 0.1221721841
H   H16       1.0  0.25014  0.08935  0.40758  1.0000 0.1221721841
H   H17       1.0  0.21395  0.94789  0.06292  1.0000 0.1282159424
H   H18       1.0  0.21089  0.51776  0.47803  1.0000 0.1367625084
H   H19       1.0  0.13101  0.78764  0.32036  1.0000 0.1282159424
H   H20       1.0  0.66714  0.40812  0.82235  1.0000 0.1221721841
H   H21       1.0  0.35497  0.52472  0.46726  1.0000 0.1221721841
H   H22       1.0  0.76816  0.38640  0.34112  1.0000 0.1221721841
H   H23       1.0  0.94291  0.31556  0.77411  1.0000 0.1282159424
H   H24       1.0  0.94293  0.16882  0.88209  1.0000 0.1221721841
H   H25       1.0  0.97367  0.09587  0.48017  1.0000 0.1126717166
H   H26       1.0  0.87818  0.93118  0.36617  1.0000 0.1367625084
H   H27       1.0  0.49801  0.71312  0.49855  1.0000 0.1282159424
H   H28       1.0  0.64508  0.62337  0.32592  1.0000 0.1126717166
H   H29       1.0  0.81230  0.90055  0.04178  1.0000 0.1367625084
H   H30       1.0  0.99876  0.23025  0.45334  1.0000 0.1282159424
H   H31       1.0  0.85331  0.97820  0.19008  1.0000 0.1282159424
H   H32       1.0  0.36676  0.71373  0.47630  1.0000 0.1221721841
H   H33       1.0  0.74986  0.91065  0.59242  1.0000 0.1221721841
H   H34       1.0  0.78605  0.05211  0.93708  1.0000 0.1282159424
C   C1        1.0  0.84430  0.34840  0.59780  1.0000 -0.0284211161
C   C2        1.0  0.19450  0.62290  0.20960  1.0000 -0.0284211161
C   C3        1.0  0.93900  0.35320  0.58600  1.0000 0.5913004166
C   C4        1.0  0.77660  0.42540  0.55600  1.0000 -0.0716945841
C   C5        1.0  0.32990  0.32510  0.57170  1.0000 0.6098848418
C   C6        1.0  0.66860  0.33800  0.61350  1.0000 0.0588582293
C   C7        1.0  0.82330  0.26560  0.65030  1.0000 -0.0900006718
C   C8        1.0  0.10010  0.59050  0.62000  1.0000 0.5913004166
C   C9        1.0  0.19330  0.52770  0.27720  1.0000 0.5913004166
C   C10       1.0  0.41570  0.32910  0.58640  1.0000 -0.0178193529
C   C11       1.0  0.27700  0.63940  0.16300  1.0000 -0.0900006718
C   C12       1.0  0.68990  0.42140  0.56270  1.0000 -0.11851291
C   C13       1.0  0.19630  0.79790  0.07570  1.0000 0.0664976579
C   C14       1.0  0.16950  0.07560  0.87250  1.0000 -0.0178193529
C   C15       1.0  0.19070  0.67190  0.63010  1.0000 -0.1097269941
C   C16       1.0  0.11280  0.69460  0.19310  1.0000 -0.0801879368
C   C17       1.0  0.14420  0.84010  0.57320  1.0000 0.0392378107
C   C18       1.0  0.27900  0.72470  0.09500  1.0000 -0.1625509425
C   C19       1.0  0.19400  0.08780  0.52250  1.0000 0.0013137279
C   C20       1.0  0.22030  0.16840  0.50690  1.0000 0.5992492026
C   C21       1.0  0.16120  0.17090  0.79990  1.0000 0.5992492026
C   C22       1.0  0.11600  0.67770  0.60240  1.0000 -0.007617011
C   C23       1.0  0.57720  0.33480  0.60880  1.0000 0.0588582293
C   C24       1.0  0.20440  0.75270  0.61490  1.0000 -0.149118924
C   C25       1.0  0.11270  0.78220  0.12770  1.0000 -0.11851291
C   C26       1.0  0.73720  0.25990  0.66030  1.0000 -0.1625509425
C   C27       1.0  0.06800  0.84570  0.54760  1.0000 -0.1351739927
C   C28       1.0  0.15710  0.93060  0.55270  1.0000 0.0758023546
C   C29       1.0  0.14450  0.04510  0.59440  1.0000 -0.0900006718
C   C30       1.0  0.18780  0.89360  0.00420  1.0000 0.0664976579
C   C31       1.0  0.49870  0.30480  0.54160  1.0000 -0.0801879368
C   C32       1.0  0.41160  0.35940  0.64280  1.0000 -0.1097269941
C   C33       1.0  0.18530  0.05340  0.94850  1.0000 -0.0801879368
C   C34       1.0  0.05330  0.76490  0.56300  1.0000 -0.0801879368
C   C35       1.0  0.15960  0.00720  0.86150  1.0000 -0.0900006718
C   C36       1.0  0.57700  0.30600  0.55410  1.0000 -0.11851291
C   C37       1.0  0.49210  0.36440  0.65360  1.0000 -0.1680202856
C   C38       1.0  0.12530  0.96480  0.61260  1.0000 -0.1680202856
C   C39       1.0  0.16860  0.91760  0.92650  1.0000 -0.1810383789
C   C40       1.0  0.28690  0.74020  0.64740  1.0000 0.6305495188
C   C41       1.0  0.20160  0.97760  0.47980  1.0000 -0.149118924
C   C42       1.0  0.22050  0.05720  0.46050  1.0000 -0.1045558727
C   C43       1.0  0.19800  0.96250  0.01260  1.0000 -0.1097269941
C   C44       1.0  0.36890  0.73610  0.04530  1.0000 0.6098848418
C   C45       1.0  0.48430  0.40580  0.70740  1.0000 0.6098848418
C   C46       1.0  0.71430  0.17590  0.73030  1.0000 0.6098848418
C   C47       1.0  0.15320  0.85260  0.91140  1.0000 0.5992492026
C   C48       1.0  0.23290  0.95600  0.40820  1.0000 0.6305495188
C   C49       1.0  0.04490  0.94280  0.67570  1.0000 0.6504952596
C   C50       1.0  0.15570  0.65160  0.40220  1.0000 -0.0284211161
C   C51       1.0  0.80550  0.37710  0.79040  1.0000 -0.0284211161
C   C52       1.0  0.06100  0.64680  0.41400  1.0000 0.5913004166
C   C53       1.0  0.22340  0.57460  0.44400  1.0000 -0.0716945841
C   C54       1.0  0.67010  0.67490  0.42830  1.0000 0.6098848418
C   C55       1.0  0.33140  0.66200  0.38650  1.0000 0.0588582293
C   C56       1.0  0.17670  0.73440  0.34970  1.0000 -0.0900006718
C   C57       1.0  0.89990  0.40950  0.38000  1.0000 0.5913004166
C   C58       1.0  0.80670  0.47230  0.72280  1.0000 0.5913004166
C   C59       1.0  0.58430  0.67090  0.41360  1.0000 -0.0178193529
C   C60       1.0  0.72300  0.36060  0.83700  1.0000 -0.0900006718
C   C61       1.0  0.31010  0.57860  0.43730  1.0000 -0.11851291
C   C62       1.0  0.80370  0.20210  0.92430  1.0000 0.0664976579
C   C63       1.0  0.83050  0.92440  0.12750  1.0000 -0.0178193529
C   C64       1.0  0.80930  0.32810  0.36990  1.0000 -0.1097269941
C   C65       1.0  0.88720  0.30540  0.80690  1.0000 -0.0801879368
C   C66       1.0  0.85580  0.15990  0.42680  1.0000 0.0392378107
C   C67       1.0  0.72100  0.27530  0.90500  1.0000 -0.1625509425
C   C68       1.0  0.80600  0.91220  0.47750  1.0000 0.0013137279
C   C69       1.0  0.77970  0.83160  0.49310  1.0000 0.5992492026
C   C70       1.0  0.83880  0.82910  0.20010  1.0000 0.5992492026
C   C71       1.0  0.88400  0.32230  0.39760  1.0000 -0.007617011
C   C72       1.0  0.42280  0.66520  0.39120  1.0000 0.0588582293
C   C73       1.0  0.79560  0.24730  0.38510  1.0000 -0.149118924
C   C74       1.0  0.88730  0.21780  0.87230  1.0000 -0.11851291
C   C75       1.0  0.26280  0.74010  0.33970  1.0000 -0.1625509425
C   C76       1.0  0.93200  0.15430  0.45240  1.0000 -0.1320690427
C   C77       1.0  0.84290  0.06940  0.44730  1.0000 0.0758023546
C   C78       1.0  0.85550  0.95490  0.40560  1.0000 -0.0900006718
C   C79       1.0  0.81220  0.10640  0.99580  1.0000 0.0664976579
C   C80       1.0  0.50130  0.69520  0.45840  1.0000 -0.0801879368
C   C81       1.0  0.58840  0.64060  0.35720  1.0000 -0.1097269941
C   C82       1.0  0.81470  0.94660  0.05150  1.0000 -0.0801879368
C   C83       1.0  0.94670  0.23510  0.43700  1.0000 -0.0801879368
C   C84       1.0  0.84040  0.99280  0.13850  1.0000 -0.0900006718
C   C85       1.0  0.42300  0.69400  0.44590  1.0000 -0.11851291
C   C86       1.0  0.50790  0.63560  0.34640  1.0000 -0.1680202856
C   C87       1.0  0.87470  0.03520  0.38740  1.0000 -0.1680202856
C   C88       1.0  0.83140  0.08240  0.07350  1.0000 -0.1810383789
C   C89       1.0  0.71310  0.25980  0.35260  1.0000 0.6305495188
C   C90       1.0  0.79840  0.02240  0.52020  1.0000 -0.149118924
C   C91       1.0  0.77950  0.94280  0.53950  1.0000 -0.1045558727
C   C92       1.0  0.80200  0.03750  0.98740  1.0000 -0.1097269941
C   C93       1.0  0.63110  0.26390  0.95470  1.0000 0.6098848418
C   C94       1.0  0.51570  0.59420  0.29260  1.0000 0.6098848418
C   C95       1.0  0.28570  0.82410  0.26970  1.0000 0.6098848418
C   C96       1.0  0.84680  0.14740  0.08860  1.0000 0.5992492026
C   C97       1.0  0.76710  0.04400  0.59180  1.0000 0.6305495188
C   C98       1.0  0.95510  0.05720  0.32430  1.0000 0.6504952596
O   O1        1.0  0.07170  0.39470  0.64830  1.0000 -0.8317898526
O   O2        1.0  0.85320  0.62230  0.52410  1.0000 -0.7920643403
O   O3        1.0  0.94970  0.43510  0.54310  1.0000 -0.5499338462
O   O4        1.0  0.00420  0.27970  0.61670  1.0000 -0.4933272316
O   O5        1.0  0.26670  0.46940  0.30960  1.0000 -0.5499338462
O   O6        1.0  0.11720  0.51010  0.29920  1.0000 -0.5283725872
O   O7        1.0  0.02440  0.60190  0.60250  1.0000 -0.5283725872
O   O8        1.0  0.25760  0.32510  0.62410  1.0000 -0.5283725872
O   O9        1.0  0.21300  0.18070  0.56890  1.0000 -0.5283725872
O   O10       1.0  0.33750  0.32200  0.50410  1.0000 -0.5384247615
O   O11       1.0  0.16270  0.51430  0.65210  1.0000 -0.5499338462
O   O12       1.0  0.14530  0.18400  0.73320  1.0000 -0.5083121373
O   O13       1.0  0.25000  0.21940  0.43180  1.0000 -0.5499338462
O   O14       1.0  0.16840  0.23150  0.81250  1.0000 -0.5499338462
O   O15       1.0  0.92830  0.60530  0.35170  1.0000 -0.8317898526
O   O16       1.0  0.14680  0.37770  0.47590  1.0000 -0.7920643403
O   O17       1.0  0.05030  0.56490  0.45690  1.0000 -0.5499338462
O   O18       1.0  0.99580  0.72030  0.38330  1.0000 -0.4933272316
O   O19       1.0  0.73330  0.53060  0.69040  1.0000 -0.5499338462
O   O20       1.0  0.88280  0.48990  0.70080  1.0000 -0.5283725872
O   O21       1.0  0.97560  0.39810  0.39750  1.0000 -0.5283725872
O   O22       1.0  0.74240  0.67490  0.37590  1.0000 -0.5283725872
O   O23       1.0  0.78700  0.81930  0.43110  1.0000 -0.5283725872
O   O24       1.0  0.66250  0.67800  0.49590  1.0000 -0.5384247615
O   O25       1.0  0.83730  0.48570  0.34790  1.0000 -0.5499338462
O   O26       1.0  0.85470  0.81600  0.26680  1.0000 -0.5083121373
O   O27       1.0  0.75000  0.78060  0.56820  1.0000 -0.5499338462
O   O28       1.0  0.83160  0.76850  0.18750  1.0000 -0.5499338462
F   F1        1.0  0.65250  0.15440  0.72780  1.0000 -0.1320690427
F   F2        1.0  0.26100  0.76830  0.70640  1.0000 -0.1896739856
F   F3        1.0  0.34200  0.65650  0.67400  1.0000 -0.1896739856
F   F4        1.0  0.44070  0.66090  0.07110  1.0000 -0.1982775828
F   F5        1.0  0.33990  0.79330  0.58810  1.0000 -0.1896739856
F   F6        1.0  0.78790  0.10150  0.75700  1.0000 -0.1896739856
F   F7        1.0  0.37180  0.76510  0.96300  1.0000 -0.1896739856
F   F8        1.0  0.40080  0.44300  0.73650  1.0000 -0.1896739856
F   F9        1.0  0.39390  0.79930  0.04410  1.0000 -0.1810383789
F   F10       1.0  0.51020  0.49080  0.65840  1.0000 -0.1810383789
F   F11       1.0  0.20550  0.76590  0.93930  1.0000 -0.1680202856
F   F12       1.0  0.15470  0.87740  0.83010  1.0000 -0.1896739856
F   F13       1.0  0.06670  0.84160  0.94500  1.0000 -0.1810383789
F   F14       1.0  0.67400  0.18300  0.80840  1.0000 -0.1896739856
F   F15       1.0  0.54400  0.36650  0.75510  1.0000 -0.1680202856
F   F16       1.0  0.24290  0.02550  0.32820  1.0000 -0.1896739856
F   F17       1.0  0.22910  0.88590  0.40480  1.0000 -0.1896739856
F   F18       1.0  0.33570  0.91390  0.41110  1.0000 -0.1680202856
F   F19       1.0  0.06720  0.85030  0.73030  1.0000 -0.1896739856
F   F20       1.0  0.01040  0.98850  0.72310  1.0000 -0.1982775828
F   F21       1.0  0.96340  0.95020  0.65340  1.0000 -0.2262187465
F   F22       1.0  0.34750  0.84560  0.27220  1.0000 -0.1320690427
F   F23       1.0  0.73900  0.23170  0.29360  1.0000 -0.1896739856
F   F24       1.0  0.65800  0.34350  0.32600  1.0000 -0.1896739856
F   F25       1.0  0.55930  0.33910  0.92890  1.0000 -0.1982775828
F   F26       1.0  0.66010  0.20670  0.41190  1.0000 -0.1896739856
F   F27       1.0  0.21210  0.89850  0.24300  1.0000 -0.1896739856
F   F28       1.0  0.62820  0.23490  0.03700  1.0000 -0.1896739856
F   F29       1.0  0.59920  0.55700  0.26350  1.0000 -0.1896739856
F   F30       1.0  0.60610  0.20070  0.95590  1.0000 -0.1810383789
F   F31       1.0  0.48980  0.50920  0.34160  1.0000 -0.1810383789
F   F32       1.0  0.79450  0.23410  0.06070  1.0000 -0.1680202856
F   F33       1.0  0.84530  0.12260  0.16990  1.0000 -0.1896739856
F   F34       1.0  0.93330  0.15840  0.05500  1.0000 -0.1896739856
F   F35       1.0  0.32600  0.81700  0.19160  1.0000 -0.1896739856
F   F36       1.0  0.45600  0.63350  0.24490  1.0000 -0.1680202856
F   F37       1.0  0.75710  0.97450  0.67180  1.0000 -0.1896739856
F   F38       1.0  0.77090  0.11410  0.59520  1.0000 -0.1896739856
F   F39       1.0  0.66430  0.08610  0.58890  1.0000 -0.1680202856
F   F40       1.0  0.93280  0.14970  0.26970  1.0000 -0.1896739856
F   F41       1.0  0.98960  0.01150  0.27690  1.0000 -0.1982775828
F   F42       1.0  0.03660  0.04980  0.34660  1.0000 -0.2262187465
