# DDEC6 charges by PACMAN v1.1 (https://github.com/mtap-research/PACMAN-charge/)
data_2022[Zn][nan]3[ASR]11
_chemical_formula_sum              "Zn16 H60 C128 O84"
_cell_length_a       18.4806
_cell_length_b       14.6239
_cell_length_c       25.2382
_cell_angle_alpha    90
_cell_angle_beta     90.695
_cell_angle_gamma    90

_symmetry_space_group_name_H-M    "P 1"
_symmetry_Int_Tables_number       1

loop_
  _symmetry_equiv_pos_as_xyz
  'x, y, z'

loop_
  _atom_site_type_symbol
  _atom_site_label
  _atom_site_symmetry_multiplicity
  _atom_site_fract_x
  _atom_site_fract_y
  _atom_site_fract_z
  _atom_site_occupancy
  _atom_site_charge
Zn  Zn1       1.0  0.59827  0.81878  0.04807  1.0000 1.0316059184
Zn  Zn2       1.0  0.51717  0.79453  0.16882  1.0000 0.9419884681
Zn  Zn3       1.0  0.09509  0.71503  0.17676  1.0000 1.0381061761
Zn  Zn4       1.0  0.01044  0.75211  0.05312  1.0000 1.0316059184
Zn  Zn5       1.0  0.40173  0.31878  0.45193  1.0000 1.0316059184
Zn  Zn6       1.0  0.48283  0.29453  0.33118  1.0000 0.9419884681
Zn  Zn7       1.0  0.90491  0.21503  0.32324  1.0000 1.0381061761
Zn  Zn8       1.0  0.98956  0.25211  0.44688  1.0000 1.0316059184
Zn  Zn9       1.0  0.40173  0.18122  0.95193  1.0000 1.0381061761
Zn  Zn10      1.0  0.48283  0.20547  0.83118  1.0000 0.9419884681
Zn  Zn11      1.0  0.90491  0.28497  0.82324  1.0000 1.0381061761
Zn  Zn12      1.0  0.98956  0.24789  0.94688  1.0000 1.0316059184
Zn  Zn13      1.0  0.59827  0.68122  0.54807  1.0000 1.0316059184
Zn  Zn14      1.0  0.51717  0.70547  0.66882  1.0000 0.9419884681
Zn  Zn15      1.0  0.09509  0.78497  0.67676  1.0000 1.0381061761
Zn  Zn16      1.0  0.01044  0.74789  0.55312  1.0000 1.0316059184
H   H1        1.0  0.58890  0.70590  0.97680  1.0000 0.4332855491
H   H2        1.0  0.96030  0.62910  0.99160  1.0000 0.4159795641
H   H3        1.0  0.16960  0.78090  0.24590  1.0000 0.4332855491
H   H4        1.0  0.40250  0.78340  0.96460  1.0000 0.144092053
H   H5        1.0  0.30980  0.74770  0.10690  1.0000 0.1524940262
H   H6        1.0  0.18950  0.74010  0.97410  1.0000 0.1653111725
H   H7        1.0  0.34040  0.70230  0.82510  1.0000 0.1524940262
H   H8        1.0  0.46140  0.91710  0.78190  1.0000 0.1524940262
H   H9        1.0  0.33830  0.92870  0.91350  1.0000 0.1524940262
H   H10       1.0  0.89480  0.65420  0.25100  1.0000 0.1524940262
H   H11       1.0  0.80860  0.73520  0.11260  1.0000 0.1609878539
H   H12       1.0  0.67960  0.67940  0.23470  1.0000 0.1609878539
H   H13       1.0  0.82800  0.73140  0.37790  1.0000 0.1524940262
H   H14       1.0  0.95430  0.53630  0.44160  1.0000 0.1524940262
H   H15       1.0  0.84270  0.48770  0.30680  1.0000 0.1524940262
H   H16       1.0  0.41110  0.20590  0.52320  1.0000 0.4332855491
H   H17       1.0  0.03970  0.12910  0.50840  1.0000 0.4159795641
H   H18       1.0  0.83040  0.28090  0.25410  1.0000 0.4332855491
H   H19       1.0  0.59750  0.28340  0.53540  1.0000 0.144092053
H   H20       1.0  0.69020  0.24770  0.39310  1.0000 0.1524940262
H   H21       1.0  0.81050  0.24010  0.52590  1.0000 0.1653111725
H   H22       1.0  0.65960  0.20230  0.67490  1.0000 0.1524940262
H   H23       1.0  0.53860  0.41710  0.71810  1.0000 0.1524940262
H   H24       1.0  0.66170  0.42870  0.58650  1.0000 0.1524940262
H   H25       1.0  0.10520  0.15420  0.24900  1.0000 0.1524940262
H   H26       1.0  0.19140  0.23520  0.38740  1.0000 0.1609878539
H   H27       1.0  0.32040  0.17940  0.26530  1.0000 0.1609878539
H   H28       1.0  0.17200  0.23140  0.12210  1.0000 0.1524940262
H   H29       1.0  0.04570  0.03630  0.05840  1.0000 0.1524940262
H   H30       1.0  0.15730  0.98770  0.19320  1.0000 0.1524940262
H   H31       1.0  0.41110  0.29410  0.02320  1.0000 0.4332855491
H   H32       1.0  0.03970  0.37090  0.00840  1.0000 0.4159795641
H   H33       1.0  0.83040  0.21910  0.75410  1.0000 0.4332855491
H   H34       1.0  0.59750  0.21660  0.03540  1.0000 0.144092053
H   H35       1.0  0.69020  0.25230  0.89310  1.0000 0.1524940262
H   H36       1.0  0.81050  0.25990  0.02590  1.0000 0.1653111725
H   H37       1.0  0.65960  0.29770  0.17490  1.0000 0.1524940262
H   H38       1.0  0.53860  0.08290  0.21810  1.0000 0.1524940262
H   H39       1.0  0.66170  0.07130  0.08650  1.0000 0.1524940262
H   H40       1.0  0.10520  0.34580  0.74900  1.0000 0.1524940262
H   H41       1.0  0.19140  0.26480  0.88740  1.0000 0.1609878539
H   H42       1.0  0.32040  0.32060  0.76530  1.0000 0.1609878539
H   H43       1.0  0.17200  0.26860  0.62210  1.0000 0.1524940262
H   H44       1.0  0.04570  0.46370  0.55840  1.0000 0.1524940262
H   H45       1.0  0.15730  0.51230  0.69320  1.0000 0.1524940262
H   H46       1.0  0.58890  0.79410  0.47680  1.0000 0.4332855491
H   H47       1.0  0.96030  0.87090  0.49160  1.0000 0.4159795641
H   H48       1.0  0.16960  0.71910  0.74590  1.0000 0.4332855491
H   H49       1.0  0.40250  0.71660  0.46460  1.0000 0.144092053
H   H50       1.0  0.30980  0.75230  0.60690  1.0000 0.1524940262
H   H51       1.0  0.18950  0.75990  0.47410  1.0000 0.1653111725
H   H52       1.0  0.34040  0.79770  0.32510  1.0000 0.1524940262
H   H53       1.0  0.46140  0.58290  0.28190  1.0000 0.1524940262
H   H54       1.0  0.33830  0.57130  0.41350  1.0000 0.1524940262
H   H55       1.0  0.89480  0.84580  0.75100  1.0000 0.1524940262
H   H56       1.0  0.80860  0.76480  0.61260  1.0000 0.1609878539
H   H57       1.0  0.67960  0.82060  0.73470  1.0000 0.1609878539
H   H58       1.0  0.82800  0.76860  0.87790  1.0000 0.1524940262
H   H59       1.0  0.95430  0.96370  0.94160  1.0000 0.1524940262
H   H60       1.0  0.84270  0.01230  0.80680  1.0000 0.1524940262
C   C1        1.0  0.29542  0.76270  0.96113  1.0000 0.2483065127
C   C2        1.0  0.36170  0.77310  0.98497  1.0000 -0.2082964779
C   C3        1.0  0.36788  0.76800  0.04043  1.0000 0.0030560752
C   C4        1.0  0.44036  0.78030  0.06647  1.0000 0.6119289943
C   C5        1.0  0.30638  0.75150  0.07017  1.0000 -0.090759663
C   C6        1.0  0.23979  0.74070  0.04485  1.0000 0.0102944178
C   C7        1.0  0.17120  0.72450  0.07561  1.0000 0.6039690225
C   C8        1.0  0.23433  0.74670  0.99082  1.0000 -0.1691889284
C   C9        1.0  0.33435  0.80860  0.87514  1.0000 0.234386444
C   C10       1.0  0.35690  0.76140  0.83144  1.0000 -0.1794749649
C   C11       1.0  0.40463  0.80230  0.79681  1.0000 0.0293317797
C   C12       1.0  0.43190  0.74840  0.74924  1.0000 0.5521129219
C   C13       1.0  0.42870  0.89040  0.80489  1.0000 -0.1079179571
C   C14       1.0  0.40264  0.93900  0.84879  1.0000 0.0293317797
C   C15       1.0  0.42470  0.03770  0.85824  1.0000 0.5946382432
C   C16       1.0  0.35528  0.89690  0.88419  1.0000 -0.2000497506
C   C17       1.0  0.78630  0.66410  0.25138  1.0000 0.255891241
C   C18       1.0  0.85430  0.66900  0.23053  1.0000 -0.2000497506
C   C19       1.0  0.86161  0.69650  0.17789  1.0000 0.0193575867
C   C20       1.0  0.93630  0.70560  0.15435  1.0000 0.6119289943
C   C21       1.0  0.80279  0.71770  0.14772  1.0000 -0.090759663
C   C22       1.0  0.73501  0.71350  0.16874  1.0000 0.0102944178
C   C23       1.0  0.66945  0.74300  0.13728  1.0000 0.6119289943
C   C24       1.0  0.72577  0.68470  0.22074  1.0000 -0.1794749649
C   C25       1.0  0.82823  0.61390  0.33743  1.0000 0.2359900623
C   C26       1.0  0.84760  0.67290  0.37688  1.0000 -0.1691889284
C   C27       1.0  0.89705  0.64470  0.41563  1.0000 0.0193575867
C   C28       1.0  0.91900  0.71000  0.45981  1.0000 0.568940997
C   C29       1.0  0.92368  0.55610  0.41443  1.0000 -0.090759663
C   C30       1.0  0.90561  0.49650  0.37365  1.0000 0.0030560752
C   C31       1.0  0.93140  0.39970  0.37483  1.0000 0.5946382432
C   C32       1.0  0.85630  0.52630  0.33445  1.0000 -0.1887563809
C   C33       1.0  0.70458  0.26270  0.53887  1.0000 0.2483065127
C   C34       1.0  0.63830  0.27310  0.51503  1.0000 -0.2082964779
C   C35       1.0  0.63212  0.26800  0.45957  1.0000 0.0030560752
C   C36       1.0  0.55964  0.28030  0.43353  1.0000 0.6119289943
C   C37       1.0  0.69362  0.25150  0.42983  1.0000 -0.090759663
C   C38       1.0  0.76021  0.24070  0.45515  1.0000 0.0102944178
C   C39       1.0  0.82880  0.22450  0.42439  1.0000 0.6039690225
C   C40       1.0  0.76567  0.24670  0.50918  1.0000 -0.1691889284
C   C41       1.0  0.66565  0.30860  0.62486  1.0000 0.234386444
C   C42       1.0  0.64310  0.26140  0.66856  1.0000 -0.1794749649
C   C43       1.0  0.59537  0.30230  0.70319  1.0000 0.0293317797
C   C44       1.0  0.56810  0.24840  0.75076  1.0000 0.5521129219
C   C45       1.0  0.57130  0.39040  0.69511  1.0000 -0.1079179571
C   C46       1.0  0.59736  0.43900  0.65121  1.0000 0.0293317797
C   C47       1.0  0.57530  0.53770  0.64176  1.0000 0.5946382432
C   C48       1.0  0.64472  0.39690  0.61581  1.0000 -0.2000497506
C   C49       1.0  0.21370  0.16410  0.24862  1.0000 0.255891241
C   C50       1.0  0.14570  0.16900  0.26947  1.0000 -0.2000497506
C   C51       1.0  0.13839  0.19650  0.32211  1.0000 0.0193575867
C   C52       1.0  0.06370  0.20560  0.34565  1.0000 0.6119289943
C   C53       1.0  0.19721  0.21770  0.35228  1.0000 -0.090759663
C   C54       1.0  0.26499  0.21350  0.33126  1.0000 0.0102944178
C   C55       1.0  0.33055  0.24300  0.36272  1.0000 0.6119289943
C   C56       1.0  0.27423  0.18470  0.27926  1.0000 -0.1794749649
C   C57       1.0  0.17177  0.11390  0.16257  1.0000 0.2359900623
C   C58       1.0  0.15240  0.17290  0.12312  1.0000 -0.1691889284
C   C59       1.0  0.10295  0.14470  0.08437  1.0000 0.0193575867
C   C60       1.0  0.08100  0.21000  0.04019  1.0000 0.568940997
C   C61       1.0  0.07632  0.05610  0.08557  1.0000 -0.090759663
C   C62       1.0  0.09439  0.99650  0.12635  1.0000 0.0030560752
C   C63       1.0  0.06860  0.89970  0.12517  1.0000 0.5946382432
C   C64       1.0  0.14370  0.02630  0.16555  1.0000 -0.1887563809
C   C65       1.0  0.70458  0.23730  0.03887  1.0000 0.2483065127
C   C66       1.0  0.63830  0.22690  0.01503  1.0000 -0.2082964779
C   C67       1.0  0.63212  0.23200  0.95957  1.0000 0.0102944178
C   C68       1.0  0.55964  0.21970  0.93353  1.0000 0.6119289943
C   C69       1.0  0.69362  0.24850  0.92983  1.0000 -0.090759663
C   C70       1.0  0.76021  0.25930  0.95515  1.0000 0.0102944178
C   C71       1.0  0.82880  0.27550  0.92439  1.0000 0.6039690225
C   C72       1.0  0.76567  0.25330  0.00918  1.0000 -0.1691889284
C   C73       1.0  0.66565  0.19140  0.12486  1.0000 0.234386444
C   C74       1.0  0.64310  0.23860  0.16856  1.0000 -0.1887563809
C   C75       1.0  0.59537  0.19770  0.20319  1.0000 0.0293317797
C   C76       1.0  0.56810  0.25160  0.25076  1.0000 0.5521129219
C   C77       1.0  0.57130  0.10960  0.19511  1.0000 -0.1079179571
C   C78       1.0  0.59736  0.06100  0.15121  1.0000 0.0293317797
C   C79       1.0  0.57530  0.96230  0.14176  1.0000 0.5946382432
C   C80       1.0  0.64472  0.10310  0.11581  1.0000 -0.2000497506
C   C81       1.0  0.21370  0.33590  0.74862  1.0000 0.255891241
C   C82       1.0  0.14570  0.33100  0.76947  1.0000 -0.2000497506
C   C83       1.0  0.13839  0.30350  0.82211  1.0000 0.0193575867
C   C84       1.0  0.06370  0.29440  0.84565  1.0000 0.6119289943
C   C85       1.0  0.19721  0.28230  0.85228  1.0000 -0.090759663
C   C86       1.0  0.26499  0.28650  0.83126  1.0000 0.0102944178
C   C87       1.0  0.33055  0.25700  0.86272  1.0000 0.6119289943
C   C88       1.0  0.27423  0.31530  0.77926  1.0000 -0.1691889284
C   C89       1.0  0.17177  0.38610  0.66257  1.0000 0.2359900623
C   C90       1.0  0.15240  0.32710  0.62312  1.0000 -0.1691889284
C   C91       1.0  0.10295  0.35530  0.58437  1.0000 0.0193575867
C   C92       1.0  0.08100  0.29000  0.54019  1.0000 0.568940997
C   C93       1.0  0.07632  0.44390  0.58557  1.0000 -0.090759663
C   C94       1.0  0.09439  0.50350  0.62635  1.0000 0.0030560752
C   C95       1.0  0.06860  0.60030  0.62517  1.0000 0.5946382432
C   C96       1.0  0.14370  0.47370  0.66555  1.0000 -0.1887563809
C   C97       1.0  0.29542  0.73730  0.46113  1.0000 0.2483065127
C   C98       1.0  0.36170  0.72690  0.48497  1.0000 -0.2082964779
C   C99       1.0  0.36788  0.73200  0.54043  1.0000 0.0030560752
C   C100      1.0  0.44036  0.71970  0.56647  1.0000 0.6119289943
C   C101      1.0  0.30638  0.74850  0.57017  1.0000 -0.090759663
C   C102      1.0  0.23979  0.75930  0.54485  1.0000 0.0102944178
C   C103      1.0  0.17120  0.77550  0.57561  1.0000 0.6039690225
C   C104      1.0  0.23433  0.75330  0.49082  1.0000 -0.1691889284
C   C105      1.0  0.33435  0.69140  0.37514  1.0000 0.234386444
C   C106      1.0  0.35690  0.73860  0.33144  1.0000 -0.1887563809
C   C107      1.0  0.40463  0.69770  0.29681  1.0000 0.0293317797
C   C108      1.0  0.43190  0.75160  0.24924  1.0000 0.5521129219
C   C109      1.0  0.42870  0.60960  0.30489  1.0000 -0.1079179571
C   C110      1.0  0.40264  0.56100  0.34879  1.0000 0.0293317797
C   C111      1.0  0.42470  0.46230  0.35824  1.0000 0.5946382432
C   C112      1.0  0.35528  0.60310  0.38419  1.0000 -0.2000497506
C   C113      1.0  0.78630  0.83590  0.75138  1.0000 0.255891241
C   C114      1.0  0.85430  0.83100  0.73053  1.0000 -0.2000497506
C   C115      1.0  0.86161  0.80350  0.67789  1.0000 0.0193575867
C   C116      1.0  0.93630  0.79440  0.65435  1.0000 0.6119289943
C   C117      1.0  0.80279  0.78230  0.64772  1.0000 -0.090759663
C   C118      1.0  0.73501  0.78650  0.66874  1.0000 0.0102944178
C   C119      1.0  0.66945  0.75700  0.63728  1.0000 0.6119289943
C   C120      1.0  0.72577  0.81530  0.72074  1.0000 -0.1794749649
C   C121      1.0  0.82823  0.88610  0.83743  1.0000 0.2359900623
C   C122      1.0  0.84760  0.82710  0.87688  1.0000 -0.1691889284
C   C123      1.0  0.89705  0.85530  0.91563  1.0000 0.0193575867
C   C124      1.0  0.91900  0.79000  0.95981  1.0000 0.568940997
C   C125      1.0  0.92368  0.94390  0.91443  1.0000 -0.090759663
C   C126      1.0  0.90561  0.00350  0.87365  1.0000 0.0030560752
C   C127      1.0  0.93140  0.10030  0.87483  1.0000 0.5946382432
C   C128      1.0  0.85630  0.97370  0.83445  1.0000 -0.1887563809
O   O1        1.0  0.28409  0.76460  0.90660  1.0000 -0.1887563809
O   O2        1.0  0.49226  0.80130  0.03806  1.0000 -0.5429431052
O   O3        1.0  0.44252  0.76940  0.11596  1.0000 -0.5201428598
O   O4        1.0  0.17836  0.71770  0.12535  1.0000 -0.548540339
O   O5        1.0  0.11459  0.71620  0.05057  1.0000 -0.4972218326
O   O6        1.0  0.48860  0.77720  0.72927  1.0000 -0.4894899429
O   O7        1.0  0.39889  0.68180  0.73373  1.0000 -0.4815021308
O   O8        1.0  0.41560  0.06890  0.90282  1.0000 -0.56230478
O   O9        1.0  0.45518  0.07840  0.82054  1.0000 -0.5201428598
O   O10       1.0  0.77153  0.64030  0.30289  1.0000 -0.1887563809
O   O11       1.0  0.98989  0.70070  0.18623  1.0000 -0.56230478
O   O12       1.0  0.93903  0.71640  0.10526  1.0000 -0.5141967089
O   O13       1.0  0.68059  0.77830  0.09307  1.0000 -0.4972218326
O   O14       1.0  0.60834  0.72760  0.15639  1.0000 -0.548540339
O   O15       1.0  0.96916  0.68362  0.49044  1.0000 -0.5201428598
O   O16       1.0  0.88887  0.78560  0.46237  1.0000 -0.4972218326
O   O17       1.0  0.96510  0.37640  0.41357  1.0000 -0.4894899429
O   O18       1.0  0.91582  0.35256  0.33534  1.0000 -0.5201428598
O   O19       1.0  0.61264  0.70230  0.00434  1.0000 -0.8803512008
O   O20       1.0  0.99215  0.62320  0.01422  1.0000 -0.7402072401
O   O21       1.0  0.14193  0.73720  0.24788  1.0000 -0.8402653487
O   O22       1.0  0.71591  0.26460  0.59340  1.0000 -0.1887563809
O   O23       1.0  0.50774  0.30130  0.46194  1.0000 -0.5429431052
O   O24       1.0  0.55748  0.26940  0.38404  1.0000 -0.5256058128
O   O25       1.0  0.82164  0.21770  0.37465  1.0000 -0.548540339
O   O26       1.0  0.88541  0.21620  0.44943  1.0000 -0.4972218326
O   O27       1.0  0.51140  0.27720  0.77073  1.0000 -0.4894899429
O   O28       1.0  0.60111  0.18180  0.76627  1.0000 -0.4815021308
O   O29       1.0  0.58440  0.56890  0.59718  1.0000 -0.56230478
O   O30       1.0  0.54482  0.57840  0.67946  1.0000 -0.5201428598
O   O31       1.0  0.22847  0.14030  0.19711  1.0000 -0.1887563809
O   O32       1.0  0.01011  0.20070  0.31377  1.0000 -0.56230478
O   O33       1.0  0.06097  0.21640  0.39474  1.0000 -0.5141967089
O   O34       1.0  0.31941  0.27830  0.40693  1.0000 -0.4972218326
O   O35       1.0  0.39166  0.22760  0.34361  1.0000 -0.548540339
O   O36       1.0  0.03084  0.18362  0.00956  1.0000 -0.5201428598
O   O37       1.0  0.11113  0.28560  0.03763  1.0000 -0.4972218326
O   O38       1.0  0.03490  0.87640  0.08643  1.0000 -0.4894899429
O   O39       1.0  0.08418  0.85256  0.16466  1.0000 -0.5201428598
O   O40       1.0  0.38736  0.20230  0.49566  1.0000 -0.8803512008
O   O41       1.0  0.00785  0.12320  0.48578  1.0000 -0.7402072401
O   O42       1.0  0.85807  0.23720  0.25212  1.0000 -0.8402653487
O   O43       1.0  0.71591  0.23540  0.09340  1.0000 -0.1887563809
O   O44       1.0  0.50774  0.19870  0.96194  1.0000 -0.5429431052
O   O45       1.0  0.55748  0.23060  0.88404  1.0000 -0.5256058128
O   O46       1.0  0.82164  0.28230  0.87465  1.0000 -0.548540339
O   O47       1.0  0.88541  0.28380  0.94943  1.0000 -0.4972218326
O   O48       1.0  0.51140  0.22280  0.27073  1.0000 -0.4894899429
O   O49       1.0  0.60111  0.31820  0.26627  1.0000 -0.4815021308
O   O50       1.0  0.58440  0.93110  0.09718  1.0000 -0.56230478
O   O51       1.0  0.54482  0.92160  0.17946  1.0000 -0.5201428598
O   O52       1.0  0.22847  0.35970  0.69711  1.0000 -0.1887563809
O   O53       1.0  0.01011  0.29930  0.81377  1.0000 -0.56230478
O   O54       1.0  0.06097  0.28360  0.89474  1.0000 -0.5141967089
O   O55       1.0  0.31941  0.22170  0.90693  1.0000 -0.4972218326
O   O56       1.0  0.39166  0.27240  0.84361  1.0000 -0.548540339
O   O57       1.0  0.03084  0.31638  0.50956  1.0000 -0.5201428598
O   O58       1.0  0.11113  0.21440  0.53763  1.0000 -0.4972218326
O   O59       1.0  0.03490  0.62360  0.58643  1.0000 -0.4894899429
O   O60       1.0  0.08418  0.64744  0.66466  1.0000 -0.5201428598
O   O61       1.0  0.38736  0.29770  0.99566  1.0000 -0.8803512008
O   O62       1.0  0.00785  0.37680  0.98578  1.0000 -0.7402072401
O   O63       1.0  0.85807  0.26280  0.75212  1.0000 -0.8402653487
O   O64       1.0  0.28409  0.73540  0.40660  1.0000 -0.1887563809
O   O65       1.0  0.49226  0.69870  0.53806  1.0000 -0.5429431052
O   O66       1.0  0.44252  0.73060  0.61596  1.0000 -0.5201428598
O   O67       1.0  0.17836  0.78230  0.62535  1.0000 -0.548540339
O   O68       1.0  0.11459  0.78380  0.55057  1.0000 -0.4972218326
O   O69       1.0  0.48860  0.72280  0.22927  1.0000 -0.4894899429
O   O70       1.0  0.39889  0.81820  0.23373  1.0000 -0.4815021308
O   O71       1.0  0.41560  0.43110  0.40282  1.0000 -0.56230478
O   O72       1.0  0.45518  0.42160  0.32054  1.0000 -0.5201428598
O   O73       1.0  0.77153  0.85970  0.80289  1.0000 -0.1887563809
O   O74       1.0  0.98989  0.79930  0.68623  1.0000 -0.56230478
O   O75       1.0  0.93903  0.78360  0.60526  1.0000 -0.5141967089
O   O76       1.0  0.68059  0.72170  0.59307  1.0000 -0.4972218326
O   O77       1.0  0.60834  0.77240  0.65639  1.0000 -0.548540339
O   O78       1.0  0.96916  0.81638  0.99044  1.0000 -0.5201428598
O   O79       1.0  0.88887  0.71440  0.96237  1.0000 -0.4972218326
O   O80       1.0  0.96510  0.12360  0.91357  1.0000 -0.4894899429
O   O81       1.0  0.91582  0.14744  0.83534  1.0000 -0.5201428598
O   O82       1.0  0.61264  0.79770  0.50434  1.0000 -0.8803512008
O   O83       1.0  0.99215  0.87680  0.51422  1.0000 -0.7402072401
O   O84       1.0  0.14193  0.76280  0.74788  1.0000 -0.8402653487
