# DDEC6 charges by PACMAN v1.1 (https://github.com/mtap-research/PACMAN-charge/)
data_2022[Co][sit]3[ASR]1
_chemical_formula_sum              "Co12 H120 C216 O52"
_cell_length_a       17.3572
_cell_length_b       22.166
_cell_length_c       25.035
_cell_angle_alpha    90
_cell_angle_beta     90
_cell_angle_gamma    90

_symmetry_space_group_name_H-M    "P 1"
_symmetry_Int_Tables_number       1

loop_
  _symmetry_equiv_pos_as_xyz
  'x, y, z'

loop_
  _atom_site_type_symbol
  _atom_site_label
  _atom_site_symmetry_multiplicity
  _atom_site_fract_x
  _atom_site_fract_y
  _atom_site_fract_z
  _atom_site_occupancy
  _atom_site_charge
Co  Co1       1.0  0.00319  0.57709  0.17867  1.0000 1.033542889
Co  Co2       1.0  0.49681  0.07709  0.82133  1.0000 1.033542889
Co  Co3       1.0  0.00319  0.57709  0.32133  1.0000 1.033542889
Co  Co4       1.0  0.49681  0.07709  0.67867  1.0000 1.033542889
Co  Co5       1.0  0.61367  0.16499  0.75000  1.0000 1.1088739959
Co  Co6       1.0  0.88633  0.66499  0.25000  1.0000 1.1088739959
Co  Co7       1.0  0.99681  0.42291  0.67867  1.0000 1.033542889
Co  Co8       1.0  0.50319  0.92291  0.32133  1.0000 1.033542889
Co  Co9       1.0  0.99681  0.42291  0.82133  1.0000 1.033542889
Co  Co10      1.0  0.50319  0.92291  0.17867  1.0000 1.033542889
Co  Co11      1.0  0.38633  0.83501  0.25000  1.0000 1.1088739959
Co  Co12      1.0  0.11367  0.33501  0.75000  1.0000 1.1088739959
H   H1        1.0  0.48969  0.51130  0.11436  1.0000 0.1128709185
H   H2        1.0  0.59924  0.31179  0.85927  1.0000 0.1194949726
H   H3        1.0  0.59240  0.38563  0.92398  1.0000 0.1128709185
H   H4        1.0  0.69700  0.61321  0.15272  1.0000 0.1313459915
H   H5        1.0  0.61762  0.41048  0.01625  1.0000 0.1194949726
H   H6        1.0  0.43924  0.21704  0.93707  1.0000 0.1313459915
H   H7        1.0  0.42781  0.29325  0.99798  1.0000 0.1194949726
H   H8        1.0  0.38850  0.39469  0.01668  1.0000 0.1194949726
H   H9        1.0  0.59098  0.57393  0.11250  1.0000 0.1194949726
H   H10       1.0  0.81855  0.46905  0.11097  1.0000 0.1313459915
H   H11       1.0  0.70914  0.42628  0.07583  1.0000 0.1194949726
H   H12       1.0  0.26003  0.53344  0.18881  1.0000 0.1313459915
H   H13       1.0  0.17494  0.49587  0.04639  1.0000 0.1313459915
H   H14       1.0  0.29411  0.46655  0.01674  1.0000 0.1194949726
H   H15       1.0  0.37972  0.49854  0.16167  1.0000 0.1194949726
H   H16       1.0  0.01031  0.01130  0.88564  1.0000 0.1128709185
H   H17       1.0  0.90076  0.81179  0.14073  1.0000 0.1194949726
H   H18       1.0  0.90760  0.88563  0.07602  1.0000 0.1128709185
H   H19       1.0  0.80300  0.11321  0.84728  1.0000 0.1313459915
H   H20       1.0  0.88238  0.91048  0.98375  1.0000 0.1194949726
H   H21       1.0  0.06076  0.71704  0.06293  1.0000 0.1313459915
H   H22       1.0  0.07219  0.79325  0.00202  1.0000 0.1194949726
H   H23       1.0  0.11150  0.89469  0.98332  1.0000 0.1194949726
H   H24       1.0  0.90902  0.07393  0.88750  1.0000 0.1194949726
H   H25       1.0  0.68145  0.96905  0.88903  1.0000 0.1313459915
H   H26       1.0  0.79086  0.92628  0.92417  1.0000 0.1194949726
H   H27       1.0  0.23997  0.03344  0.81119  1.0000 0.1313459915
H   H28       1.0  0.32506  0.99587  0.95361  1.0000 0.1313459915
H   H29       1.0  0.20589  0.96655  0.98326  1.0000 0.1194949726
H   H30       1.0  0.12028  0.99854  0.83833  1.0000 0.1194949726
H   H31       1.0  0.48969  0.51130  0.38564  1.0000 0.1128709185
H   H32       1.0  0.59924  0.31179  0.64073  1.0000 0.1194949726
H   H33       1.0  0.59240  0.38563  0.57602  1.0000 0.1128709185
H   H34       1.0  0.69700  0.61321  0.34728  1.0000 0.1313459915
H   H35       1.0  0.61762  0.41048  0.48375  1.0000 0.1194949726
H   H36       1.0  0.43924  0.21704  0.56293  1.0000 0.1313459915
H   H37       1.0  0.42781  0.29325  0.50202  1.0000 0.1194949726
H   H38       1.0  0.38850  0.39469  0.48332  1.0000 0.1194949726
H   H39       1.0  0.59098  0.57393  0.38750  1.0000 0.1194949726
H   H40       1.0  0.81855  0.46905  0.38903  1.0000 0.1313459915
H   H41       1.0  0.70914  0.42628  0.42417  1.0000 0.1194949726
H   H42       1.0  0.26003  0.53344  0.31119  1.0000 0.1313459915
H   H43       1.0  0.17494  0.49587  0.45361  1.0000 0.1313459915
H   H44       1.0  0.29411  0.46655  0.48326  1.0000 0.1194949726
H   H45       1.0  0.37972  0.49854  0.33833  1.0000 0.1194949726
H   H46       1.0  0.01031  0.01130  0.61436  1.0000 0.1128709185
H   H47       1.0  0.90076  0.81179  0.35927  1.0000 0.1194949726
H   H48       1.0  0.90760  0.88563  0.42398  1.0000 0.1128709185
H   H49       1.0  0.80300  0.11321  0.65272  1.0000 0.1313459915
H   H50       1.0  0.88238  0.91048  0.51625  1.0000 0.1194949726
H   H51       1.0  0.06076  0.71704  0.43707  1.0000 0.1313459915
H   H52       1.0  0.07219  0.79325  0.49798  1.0000 0.1194949726
H   H53       1.0  0.11150  0.89469  0.51668  1.0000 0.1194949726
H   H54       1.0  0.90902  0.07393  0.61250  1.0000 0.1194949726
H   H55       1.0  0.68145  0.96905  0.61097  1.0000 0.1313459915
H   H56       1.0  0.79086  0.92628  0.57583  1.0000 0.1194949726
H   H57       1.0  0.23997  0.03344  0.68881  1.0000 0.1313459915
H   H58       1.0  0.32506  0.99587  0.54639  1.0000 0.1313459915
H   H59       1.0  0.20589  0.96655  0.51674  1.0000 0.1194949726
H   H60       1.0  0.12028  0.99854  0.66167  1.0000 0.1194949726
H   H61       1.0  0.51031  0.48870  0.61436  1.0000 0.1128709185
H   H62       1.0  0.40076  0.68821  0.35927  1.0000 0.1194949726
H   H63       1.0  0.40760  0.61437  0.42398  1.0000 0.1128709185
H   H64       1.0  0.30300  0.38679  0.65272  1.0000 0.1313459915
H   H65       1.0  0.38238  0.58952  0.51625  1.0000 0.1194949726
H   H66       1.0  0.56076  0.78296  0.43707  1.0000 0.1313459915
H   H67       1.0  0.57219  0.70675  0.49798  1.0000 0.1194949726
H   H68       1.0  0.61150  0.60531  0.51668  1.0000 0.1194949726
H   H69       1.0  0.40902  0.42607  0.61250  1.0000 0.1194949726
H   H70       1.0  0.18145  0.53095  0.61097  1.0000 0.1313459915
H   H71       1.0  0.29086  0.57372  0.57583  1.0000 0.1194949726
H   H72       1.0  0.73997  0.46656  0.68881  1.0000 0.1313459915
H   H73       1.0  0.82506  0.50413  0.54639  1.0000 0.1313459915
H   H74       1.0  0.70589  0.53345  0.51674  1.0000 0.1194949726
H   H75       1.0  0.62028  0.50146  0.66167  1.0000 0.1194949726
H   H76       1.0  0.98969  0.98870  0.38564  1.0000 0.1128709185
H   H77       1.0  0.09924  0.18821  0.64073  1.0000 0.1194949726
H   H78       1.0  0.09240  0.11437  0.57602  1.0000 0.1128709185
H   H79       1.0  0.19700  0.88679  0.34728  1.0000 0.1313459915
H   H80       1.0  0.11762  0.08952  0.48375  1.0000 0.1194949726
H   H81       1.0  0.93924  0.28296  0.56293  1.0000 0.1313459915
H   H82       1.0  0.92781  0.20675  0.50202  1.0000 0.1194949726
H   H83       1.0  0.88850  0.10531  0.48332  1.0000 0.1194949726
H   H84       1.0  0.09098  0.92607  0.38750  1.0000 0.1194949726
H   H85       1.0  0.31855  0.03095  0.38903  1.0000 0.1313459915
H   H86       1.0  0.20914  0.07372  0.42417  1.0000 0.1194949726
H   H87       1.0  0.76003  0.96656  0.31119  1.0000 0.1313459915
H   H88       1.0  0.67494  0.00413  0.45361  1.0000 0.1313459915
H   H89       1.0  0.79411  0.03345  0.48326  1.0000 0.1194949726
H   H90       1.0  0.87972  0.00146  0.33833  1.0000 0.1194949726
H   H91       1.0  0.51031  0.48870  0.88564  1.0000 0.1128709185
H   H92       1.0  0.40076  0.68821  0.14073  1.0000 0.1194949726
H   H93       1.0  0.40760  0.61437  0.07602  1.0000 0.1128709185
H   H94       1.0  0.30300  0.38679  0.84728  1.0000 0.1313459915
H   H95       1.0  0.38238  0.58952  0.98375  1.0000 0.1194949726
H   H96       1.0  0.56076  0.78296  0.06293  1.0000 0.1313459915
H   H97       1.0  0.57219  0.70675  0.00202  1.0000 0.1194949726
H   H98       1.0  0.61150  0.60531  0.98332  1.0000 0.1194949726
H   H99       1.0  0.40902  0.42607  0.88750  1.0000 0.1194949726
H   H100      1.0  0.18145  0.53095  0.88903  1.0000 0.1313459915
H   H101      1.0  0.29086  0.57372  0.92417  1.0000 0.1194949726
H   H102      1.0  0.73997  0.46656  0.81119  1.0000 0.1313459915
H   H103      1.0  0.82506  0.50413  0.95361  1.0000 0.1313459915
H   H104      1.0  0.70589  0.53345  0.98326  1.0000 0.1194949726
H   H105      1.0  0.62028  0.50146  0.83833  1.0000 0.1194949726
H   H106      1.0  0.98969  0.98870  0.11436  1.0000 0.1128709185
H   H107      1.0  0.09924  0.18821  0.85927  1.0000 0.1194949726
H   H108      1.0  0.09240  0.11437  0.92398  1.0000 0.1128709185
H   H109      1.0  0.19700  0.88679  0.15272  1.0000 0.1313459915
H   H110      1.0  0.11762  0.08952  0.01625  1.0000 0.1194949726
H   H111      1.0  0.93924  0.28296  0.93707  1.0000 0.1313459915
H   H112      1.0  0.92781  0.20675  0.99798  1.0000 0.1194949726
H   H113      1.0  0.88850  0.10531  0.01668  1.0000 0.1194949726
H   H114      1.0  0.09098  0.92607  0.11250  1.0000 0.1194949726
H   H115      1.0  0.31855  0.03095  0.11097  1.0000 0.1313459915
H   H116      1.0  0.20914  0.07372  0.07583  1.0000 0.1194949726
H   H117      1.0  0.76003  0.96656  0.18881  1.0000 0.1313459915
H   H118      1.0  0.67494  0.00413  0.04639  1.0000 0.1313459915
H   H119      1.0  0.79411  0.03345  0.01674  1.0000 0.1194949726
H   H120      1.0  0.87972  0.00146  0.16167  1.0000 0.1194949726
C   C1        1.0  0.52754  0.20659  0.85036  1.0000 0.5928737697
C   C2        1.0  0.52064  0.25612  0.89133  1.0000 -0.020173077
C   C3        1.0  0.83947  0.57131  0.16339  1.0000 0.5928737697
C   C4        1.0  0.76913  0.54499  0.13714  1.0000 -0.020173077
C   C5        1.0  0.50964  0.34708  0.96884  1.0000 0.0591601384
C   C6        1.0  0.56603  0.46601  0.06846  1.0000 0.0864948196
C   C7        1.0  0.49326  0.48251  0.08745  1.0000 -0.1970383489
C   C8        1.0  0.56547  0.30720  0.88782  1.0000 -0.0899042867
C   C9        1.0  0.34924  0.47863  0.08646  1.0000 0.0701541318
C   C10       1.0  0.42690  0.45739  0.06747  1.0000 0.0864948196
C   C11       1.0  0.56075  0.35189  0.92651  1.0000 -0.1613547938
C   C12       1.0  0.70010  0.57540  0.13675  1.0000 -0.0899042867
C   C13       1.0  0.56976  0.42197  0.02948  1.0000 -0.1917588684
C   C14       1.0  0.46970  0.25132  0.93368  1.0000 -0.0833784986
C   C15       1.0  0.63679  0.49401  0.09120  1.0000 0.0701541318
C   C16       1.0  0.46390  0.29675  0.97073  1.0000 -0.1522173631
C   C17       1.0  0.50421  0.39453  0.00965  1.0000 0.0864948196
C   C18       1.0  0.43305  0.41296  0.02950  1.0000 -0.1970383489
C   C19       1.0  0.63610  0.55138  0.11348  1.0000 -0.1613547938
C   C20       1.0  0.20580  0.51844  0.12030  1.0000 0.0060789308
C   C21       1.0  0.77204  0.48977  0.11285  1.0000 -0.0899042867
C   C22       1.0  0.70620  0.46448  0.09105  1.0000 -0.1522173631
C   C23       1.0  0.26650  0.51910  0.15418  1.0000 -0.0899042867
C   C24       1.0  0.21670  0.49750  0.06960  1.0000 -0.0899042867
C   C25       1.0  0.28770  0.47890  0.05196  1.0000 -0.1613547938
C   C26       1.0  0.33870  0.49860  0.13778  1.0000 -0.1613547938
C   C27       1.0  0.12770  0.53990  0.14120  1.0000 0.5079209831
C   C28       1.0  0.97246  0.70659  0.14964  1.0000 0.5928737697
C   C29       1.0  0.97936  0.75612  0.10867  1.0000 -0.020173077
C   C30       1.0  0.66053  0.07131  0.83661  1.0000 0.5928737697
C   C31       1.0  0.73087  0.04499  0.86286  1.0000 -0.020173077
C   C32       1.0  0.99036  0.84708  0.03116  1.0000 0.0591601384
C   C33       1.0  0.93397  0.96601  0.93154  1.0000 0.0864948196
C   C34       1.0  0.00674  0.98251  0.91255  1.0000 -0.1970383489
C   C35       1.0  0.93453  0.80720  0.11218  1.0000 -0.0899042867
C   C36       1.0  0.15076  0.97863  0.91354  1.0000 0.0701541318
C   C37       1.0  0.07310  0.95739  0.93253  1.0000 0.0864948196
C   C38       1.0  0.93925  0.85189  0.07349  1.0000 -0.1613547938
C   C39       1.0  0.79990  0.07540  0.86325  1.0000 -0.0899042867
C   C40       1.0  0.93024  0.92197  0.97052  1.0000 -0.1917588684
C   C41       1.0  0.03030  0.75132  0.06632  1.0000 -0.0833784986
C   C42       1.0  0.86321  0.99401  0.90880  1.0000 0.0701541318
C   C43       1.0  0.03610  0.79675  0.02927  1.0000 -0.1522173631
C   C44       1.0  0.99579  0.89453  0.99035  1.0000 0.0845185768
C   C45       1.0  0.06695  0.91296  0.97050  1.0000 -0.1970383489
C   C46       1.0  0.86390  0.05138  0.88652  1.0000 -0.1613547938
C   C47       1.0  0.29420  0.01844  0.87970  1.0000 0.0060789308
C   C48       1.0  0.72796  0.98977  0.88715  1.0000 -0.0899042867
C   C49       1.0  0.79380  0.96448  0.90895  1.0000 -0.1522173631
C   C50       1.0  0.23350  0.01910  0.84582  1.0000 -0.0899042867
C   C51       1.0  0.28330  0.99750  0.93040  1.0000 -0.0899042867
C   C52       1.0  0.21230  0.97890  0.94804  1.0000 -0.1613547938
C   C53       1.0  0.16130  0.99860  0.86222  1.0000 -0.1613547938
C   C54       1.0  0.37230  0.03990  0.85880  1.0000 0.5079209831
C   C55       1.0  0.52754  0.20659  0.64964  1.0000 0.5928737697
C   C56       1.0  0.52064  0.25612  0.60867  1.0000 -0.020173077
C   C57       1.0  0.83947  0.57131  0.33661  1.0000 0.5928737697
C   C58       1.0  0.76913  0.54499  0.36286  1.0000 -0.020173077
C   C59       1.0  0.50964  0.34708  0.53116  1.0000 0.0591601384
C   C60       1.0  0.56603  0.46601  0.43154  1.0000 0.0864948196
C   C61       1.0  0.49326  0.48251  0.41255  1.0000 -0.1970383489
C   C62       1.0  0.56547  0.30720  0.61218  1.0000 -0.0899042867
C   C63       1.0  0.34924  0.47863  0.41354  1.0000 0.0701541318
C   C64       1.0  0.42690  0.45739  0.43253  1.0000 0.0864948196
C   C65       1.0  0.56075  0.35189  0.57349  1.0000 -0.1613547938
C   C66       1.0  0.70010  0.57540  0.36325  1.0000 -0.0899042867
C   C67       1.0  0.56976  0.42197  0.47052  1.0000 -0.1917588684
C   C68       1.0  0.46970  0.25132  0.56632  1.0000 -0.0833784986
C   C69       1.0  0.63679  0.49401  0.40880  1.0000 0.0701541318
C   C70       1.0  0.46390  0.29675  0.52927  1.0000 -0.1522173631
C   C71       1.0  0.50421  0.39453  0.49035  1.0000 0.0864948196
C   C72       1.0  0.43305  0.41296  0.47050  1.0000 -0.1970383489
C   C73       1.0  0.63610  0.55138  0.38652  1.0000 -0.1613547938
C   C74       1.0  0.20580  0.51844  0.37970  1.0000 0.0060789308
C   C75       1.0  0.77204  0.48977  0.38715  1.0000 -0.0899042867
C   C76       1.0  0.70620  0.46448  0.40895  1.0000 -0.1522173631
C   C77       1.0  0.26650  0.51910  0.34582  1.0000 -0.0899042867
C   C78       1.0  0.21670  0.49750  0.43040  1.0000 -0.0899042867
C   C79       1.0  0.28770  0.47890  0.44804  1.0000 -0.1613547938
C   C80       1.0  0.33870  0.49860  0.36222  1.0000 -0.1613547938
C   C81       1.0  0.12770  0.53990  0.35880  1.0000 0.5079209831
C   C82       1.0  0.97246  0.70659  0.35036  1.0000 0.5928737697
C   C83       1.0  0.97936  0.75612  0.39133  1.0000 -0.020173077
C   C84       1.0  0.66053  0.07131  0.66339  1.0000 0.5928737697
C   C85       1.0  0.73087  0.04499  0.63714  1.0000 -0.020173077
C   C86       1.0  0.99036  0.84708  0.46884  1.0000 0.0591601384
C   C87       1.0  0.93397  0.96601  0.56846  1.0000 0.0864948196
C   C88       1.0  0.00674  0.98251  0.58745  1.0000 -0.1970383489
C   C89       1.0  0.93453  0.80720  0.38782  1.0000 -0.0899042867
C   C90       1.0  0.15076  0.97863  0.58646  1.0000 0.0701541318
C   C91       1.0  0.07310  0.95739  0.56747  1.0000 0.0864948196
C   C92       1.0  0.93925  0.85189  0.42651  1.0000 -0.1613547938
C   C93       1.0  0.79990  0.07540  0.63675  1.0000 -0.0899042867
C   C94       1.0  0.93024  0.92197  0.52948  1.0000 -0.1917588684
C   C95       1.0  0.03030  0.75132  0.43368  1.0000 -0.0833784986
C   C96       1.0  0.86321  0.99401  0.59120  1.0000 0.0701541318
C   C97       1.0  0.03610  0.79675  0.47073  1.0000 -0.1522173631
C   C98       1.0  0.99579  0.89453  0.50965  1.0000 0.0845185768
C   C99       1.0  0.06695  0.91296  0.52950  1.0000 -0.1970383489
C   C100      1.0  0.86390  0.05138  0.61348  1.0000 -0.1613547938
C   C101      1.0  0.29420  0.01844  0.62030  1.0000 0.0060789308
C   C102      1.0  0.72796  0.98977  0.61285  1.0000 -0.0899042867
C   C103      1.0  0.79380  0.96448  0.59105  1.0000 -0.1522173631
C   C104      1.0  0.23350  0.01910  0.65418  1.0000 -0.0899042867
C   C105      1.0  0.28330  0.99750  0.56960  1.0000 -0.0899042867
C   C106      1.0  0.21230  0.97890  0.55196  1.0000 -0.1613547938
C   C107      1.0  0.16130  0.99860  0.63778  1.0000 -0.1613547938
C   C108      1.0  0.37230  0.03990  0.64120  1.0000 0.5079209831
C   C109      1.0  0.47246  0.79341  0.35036  1.0000 0.5928737697
C   C110      1.0  0.47936  0.74388  0.39133  1.0000 -0.020173077
C   C111      1.0  0.16053  0.42869  0.66339  1.0000 0.5928737697
C   C112      1.0  0.23087  0.45501  0.63714  1.0000 -0.020173077
C   C113      1.0  0.49036  0.65292  0.46884  1.0000 0.0591601384
C   C114      1.0  0.43397  0.53399  0.56846  1.0000 0.0864948196
C   C115      1.0  0.50674  0.51749  0.58745  1.0000 -0.1970383489
C   C116      1.0  0.43453  0.69280  0.38782  1.0000 -0.0899042867
C   C117      1.0  0.65076  0.52137  0.58646  1.0000 0.0701541318
C   C118      1.0  0.57310  0.54261  0.56747  1.0000 0.0864948196
C   C119      1.0  0.43925  0.64811  0.42651  1.0000 -0.1613547938
C   C120      1.0  0.29990  0.42460  0.63675  1.0000 -0.0899042867
C   C121      1.0  0.43024  0.57803  0.52948  1.0000 -0.1917588684
C   C122      1.0  0.53030  0.74868  0.43368  1.0000 -0.0833784986
C   C123      1.0  0.36321  0.50599  0.59120  1.0000 0.0701541318
C   C124      1.0  0.53610  0.70325  0.47073  1.0000 -0.1522173631
C   C125      1.0  0.49579  0.60547  0.50965  1.0000 0.0864948196
C   C126      1.0  0.56695  0.58704  0.52950  1.0000 -0.1970383489
C   C127      1.0  0.36390  0.44862  0.61348  1.0000 -0.1613547938
C   C128      1.0  0.79420  0.48156  0.62030  1.0000 0.0060789308
C   C129      1.0  0.22796  0.51023  0.61285  1.0000 -0.0899042867
C   C130      1.0  0.29380  0.53552  0.59105  1.0000 -0.1522173631
C   C131      1.0  0.73350  0.48090  0.65418  1.0000 -0.0899042867
C   C132      1.0  0.78330  0.50250  0.56960  1.0000 -0.0899042867
C   C133      1.0  0.71230  0.52110  0.55196  1.0000 -0.1613547938
C   C134      1.0  0.66130  0.50140  0.63778  1.0000 -0.1613547938
C   C135      1.0  0.87230  0.46010  0.64120  1.0000 0.5079209831
C   C136      1.0  0.02754  0.29341  0.64964  1.0000 0.5928737697
C   C137      1.0  0.02064  0.24388  0.60867  1.0000 -0.020173077
C   C138      1.0  0.33947  0.92869  0.33661  1.0000 0.5928737697
C   C139      1.0  0.26913  0.95501  0.36286  1.0000 -0.020173077
C   C140      1.0  0.00964  0.15292  0.53116  1.0000 0.0591601384
C   C141      1.0  0.06603  0.03399  0.43154  1.0000 0.0864948196
C   C142      1.0  0.99326  0.01749  0.41255  1.0000 -0.1970383489
C   C143      1.0  0.06547  0.19280  0.61218  1.0000 -0.0899042867
C   C144      1.0  0.84924  0.02137  0.41354  1.0000 0.0701541318
C   C145      1.0  0.92690  0.04261  0.43253  1.0000 0.0864948196
C   C146      1.0  0.06075  0.14811  0.57349  1.0000 -0.1613547938
C   C147      1.0  0.20010  0.92460  0.36325  1.0000 -0.0899042867
C   C148      1.0  0.06976  0.07803  0.47052  1.0000 -0.1917588684
C   C149      1.0  0.96970  0.24868  0.56632  1.0000 -0.0833784986
C   C150      1.0  0.13679  0.00599  0.40880  1.0000 0.0701541318
C   C151      1.0  0.96390  0.20325  0.52927  1.0000 -0.1522173631
C   C152      1.0  0.00421  0.10547  0.49035  1.0000 0.0864948196
C   C153      1.0  0.93305  0.08704  0.47050  1.0000 -0.1970383489
C   C154      1.0  0.13610  0.94862  0.38652  1.0000 -0.1613547938
C   C155      1.0  0.70580  0.98156  0.37970  1.0000 0.0060789308
C   C156      1.0  0.27204  0.01023  0.38715  1.0000 -0.0899042867
C   C157      1.0  0.20620  0.03552  0.40895  1.0000 -0.1522173631
C   C158      1.0  0.76650  0.98090  0.34582  1.0000 -0.0899042867
C   C159      1.0  0.71670  0.00250  0.43040  1.0000 -0.0899042867
C   C160      1.0  0.78770  0.02110  0.44804  1.0000 -0.1613547938
C   C161      1.0  0.83870  0.00140  0.36222  1.0000 -0.1613547938
C   C162      1.0  0.62770  0.96010  0.35880  1.0000 0.5079209831
C   C163      1.0  0.47246  0.79341  0.14964  1.0000 0.5928737697
C   C164      1.0  0.47936  0.74388  0.10867  1.0000 -0.020173077
C   C165      1.0  0.16053  0.42869  0.83661  1.0000 0.5928737697
C   C166      1.0  0.23087  0.45501  0.86286  1.0000 -0.020173077
C   C167      1.0  0.49036  0.65292  0.03116  1.0000 0.0591601384
C   C168      1.0  0.43397  0.53399  0.93154  1.0000 0.0864948196
C   C169      1.0  0.50674  0.51749  0.91255  1.0000 -0.1970383489
C   C170      1.0  0.43453  0.69280  0.11218  1.0000 -0.0899042867
C   C171      1.0  0.65076  0.52137  0.91354  1.0000 0.0701541318
C   C172      1.0  0.57310  0.54261  0.93253  1.0000 0.0864948196
C   C173      1.0  0.43925  0.64811  0.07349  1.0000 -0.1613547938
C   C174      1.0  0.29990  0.42460  0.86325  1.0000 -0.0899042867
C   C175      1.0  0.43024  0.57803  0.97052  1.0000 -0.1917588684
C   C176      1.0  0.53030  0.74868  0.06632  1.0000 -0.0833784986
C   C177      1.0  0.36321  0.50599  0.90880  1.0000 0.0701541318
C   C178      1.0  0.53610  0.70325  0.02927  1.0000 -0.1522173631
C   C179      1.0  0.49579  0.60547  0.99035  1.0000 0.0845185768
C   C180      1.0  0.56695  0.58704  0.97050  1.0000 -0.1970383489
C   C181      1.0  0.36390  0.44862  0.88652  1.0000 -0.1613547938
C   C182      1.0  0.79420  0.48156  0.87970  1.0000 0.0060789308
C   C183      1.0  0.22796  0.51023  0.88715  1.0000 -0.0899042867
C   C184      1.0  0.29380  0.53552  0.90895  1.0000 -0.1522173631
C   C185      1.0  0.73350  0.48090  0.84582  1.0000 -0.0899042867
C   C186      1.0  0.78330  0.50250  0.93040  1.0000 -0.0899042867
C   C187      1.0  0.71230  0.52110  0.94804  1.0000 -0.1613547938
C   C188      1.0  0.66130  0.50140  0.86222  1.0000 -0.1613547938
C   C189      1.0  0.87230  0.46010  0.85880  1.0000 0.5079209831
C   C190      1.0  0.02754  0.29341  0.85036  1.0000 0.5928737697
C   C191      1.0  0.02064  0.24388  0.89133  1.0000 -0.020173077
C   C192      1.0  0.33947  0.92869  0.16339  1.0000 0.5928737697
C   C193      1.0  0.26913  0.95501  0.13714  1.0000 -0.020173077
C   C194      1.0  0.00964  0.15292  0.96884  1.0000 0.0591601384
C   C195      1.0  0.06603  0.03399  0.06846  1.0000 0.0864948196
C   C196      1.0  0.99326  0.01749  0.08745  1.0000 -0.1970383489
C   C197      1.0  0.06547  0.19280  0.88782  1.0000 -0.0899042867
C   C198      1.0  0.84924  0.02137  0.08646  1.0000 0.0701541318
C   C199      1.0  0.92690  0.04261  0.06747  1.0000 0.0864948196
C   C200      1.0  0.06075  0.14811  0.92651  1.0000 -0.1613547938
C   C201      1.0  0.20010  0.92460  0.13675  1.0000 -0.0899042867
C   C202      1.0  0.06976  0.07803  0.02948  1.0000 -0.1917588684
C   C203      1.0  0.96970  0.24868  0.93368  1.0000 -0.0833784986
C   C204      1.0  0.13679  0.00599  0.09120  1.0000 0.0701541318
C   C205      1.0  0.96390  0.20325  0.97073  1.0000 -0.1522173631
C   C206      1.0  0.00421  0.10547  0.00965  1.0000 0.0864948196
C   C207      1.0  0.93305  0.08704  0.02950  1.0000 -0.1970383489
C   C208      1.0  0.13610  0.94862  0.11348  1.0000 -0.1613547938
C   C209      1.0  0.70580  0.98156  0.12030  1.0000 0.0060789308
C   C210      1.0  0.27204  0.01023  0.11285  1.0000 -0.0899042867
C   C211      1.0  0.20620  0.03552  0.09105  1.0000 -0.1522173631
C   C212      1.0  0.76650  0.98090  0.15418  1.0000 -0.0899042867
C   C213      1.0  0.71670  0.00250  0.06960  1.0000 -0.0899042867
C   C214      1.0  0.78770  0.02110  0.05196  1.0000 -0.1613547938
C   C215      1.0  0.83870  0.00140  0.13778  1.0000 -0.1613547938
C   C216      1.0  0.62770  0.96010  0.14120  1.0000 0.5079209831
O   O1        1.0  0.56501  0.21870  0.80940  1.0000 -0.5296815384
O   O2        1.0  0.82882  0.61603  0.19198  1.0000 -0.5510180119
O   O3        1.0  0.49533  0.15752  0.86128  1.0000 -0.5296815384
O   O4        1.0  0.90223  0.54544  0.15561  1.0000 -0.5296815384
O   O5        1.0  0.12350  0.56788  0.18148  1.0000 -0.4228672023
O   O6        1.0  0.07168  0.53007  0.11334  1.0000 -0.4625064555
O   O7        1.0  0.93499  0.71870  0.19060  1.0000 -0.5296815384
O   O8        1.0  0.67118  0.11603  0.80802  1.0000 -0.5510180119
O   O9        1.0  0.00467  0.65752  0.13872  1.0000 -0.5296815384
O   O10       1.0  0.59777  0.04544  0.84439  1.0000 -0.5296815384
O   O11       1.0  0.37650  0.06788  0.81852  1.0000 -0.4228672023
O   O12       1.0  0.42832  0.03007  0.88666  1.0000 -0.4625064555
O   O13       1.0  0.56501  0.21870  0.69060  1.0000 -0.5296815384
O   O14       1.0  0.82882  0.61603  0.30802  1.0000 -0.5510180119
O   O15       1.0  0.49533  0.15752  0.63872  1.0000 -0.5296815384
O   O16       1.0  0.90223  0.54544  0.34439  1.0000 -0.5296815384
O   O17       1.0  0.12350  0.56788  0.31852  1.0000 -0.4228672023
O   O18       1.0  0.07168  0.53007  0.38666  1.0000 -0.4625064555
O   O19       1.0  0.93499  0.71870  0.30940  1.0000 -0.5296815384
O   O20       1.0  0.67118  0.11603  0.69198  1.0000 -0.5510180119
O   O21       1.0  0.00467  0.65752  0.36128  1.0000 -0.5296815384
O   O22       1.0  0.59777  0.04544  0.65561  1.0000 -0.5296815384
O   O23       1.0  0.37650  0.06788  0.68148  1.0000 -0.4228672023
O   O24       1.0  0.42832  0.03007  0.61334  1.0000 -0.4625064555
O   O25       1.0  0.98994  0.61527  0.25000  1.0000 -0.8999976936
O   O26       1.0  0.51006  0.11527  0.75000  1.0000 -0.8999976936
O   O27       1.0  0.43499  0.78130  0.30940  1.0000 -0.5296815384
O   O28       1.0  0.17118  0.38397  0.69198  1.0000 -0.5510180119
O   O29       1.0  0.50467  0.84248  0.36128  1.0000 -0.5296815384
O   O30       1.0  0.09777  0.45456  0.65561  1.0000 -0.5296815384
O   O31       1.0  0.87650  0.43212  0.68148  1.0000 -0.4228672023
O   O32       1.0  0.92832  0.46993  0.61334  1.0000 -0.4625064555
O   O33       1.0  0.06501  0.28130  0.69060  1.0000 -0.5296815384
O   O34       1.0  0.32882  0.88397  0.30802  1.0000 -0.5510180119
O   O35       1.0  0.99533  0.34248  0.63872  1.0000 -0.5296815384
O   O36       1.0  0.40223  0.95456  0.34439  1.0000 -0.5296815384
O   O37       1.0  0.62350  0.93212  0.31852  1.0000 -0.4228672023
O   O38       1.0  0.57168  0.96993  0.38666  1.0000 -0.4625064555
O   O39       1.0  0.43499  0.78130  0.19060  1.0000 -0.5296815384
O   O40       1.0  0.17118  0.38397  0.80802  1.0000 -0.5510180119
O   O41       1.0  0.50467  0.84248  0.13872  1.0000 -0.5296815384
O   O42       1.0  0.09777  0.45456  0.84439  1.0000 -0.5296815384
O   O43       1.0  0.87650  0.43212  0.81852  1.0000 -0.4228672023
O   O44       1.0  0.92832  0.46993  0.88666  1.0000 -0.4625064555
O   O45       1.0  0.06501  0.28130  0.80940  1.0000 -0.5296815384
O   O46       1.0  0.32882  0.88397  0.19198  1.0000 -0.5510180119
O   O47       1.0  0.99533  0.34248  0.86128  1.0000 -0.5296815384
O   O48       1.0  0.40223  0.95456  0.15561  1.0000 -0.5296815384
O   O49       1.0  0.62350  0.93212  0.18148  1.0000 -0.4228672023
O   O50       1.0  0.57168  0.96993  0.11334  1.0000 -0.4625064555
O   O51       1.0  0.01006  0.38473  0.75000  1.0000 -0.8999976936
O   O52       1.0  0.48994  0.88473  0.25000  1.0000 -0.8999976936
