# DDEC6 charges by PACMAN v1.1 (https://github.com/mtap-research/PACMAN-charge/)
data_2022[ZnMn][nan]3[ASR]1
_chemical_formula_sum              "Mn16 Zn32 P32 H96 C256 O224"
_cell_length_a       28.678
_cell_length_b       28.678
_cell_length_c       28.678
_cell_angle_alpha    100.105
_cell_angle_beta     100.105
_cell_angle_gamma    130.473

_symmetry_space_group_name_H-M    "P 1"
_symmetry_Int_Tables_number       1

loop_
  _symmetry_equiv_pos_as_xyz
  'x, y, z'

loop_
  _atom_site_type_symbol
  _atom_site_label
  _atom_site_symmetry_multiplicity
  _atom_site_fract_x
  _atom_site_fract_y
  _atom_site_fract_z
  _atom_site_occupancy
  _atom_site_charge
Mn  Mn1       1.0  0.50203  0.32607  0.57814  1.0000 1.1691885132
Mn  Mn2       1.0  0.42273  0.99799  0.67082  1.0000 1.1806709009
Mn  Mn3       1.0  0.74793  0.92389  0.42186  1.0000 1.1691885132
Mn  Mn4       1.0  0.32717  0.75191  0.32918  1.0000 1.1806709009
Mn  Mn5       1.0  0.17389  0.25203  0.67596  1.0000 1.1691885132
Mn  Mn6       1.0  0.00191  0.17273  0.92474  1.0000 1.1806709009
Mn  Mn7       1.0  0.57607  0.49793  0.32404  1.0000 1.1691885132
Mn  Mn8       1.0  0.24799  0.07717  0.07526  1.0000 1.1806709009
Mn  Mn9       1.0  0.74797  0.42393  0.92186  1.0000 1.1691885132
Mn  Mn10      1.0  0.82727  0.75201  0.82918  1.0000 1.1806709009
Mn  Mn11      1.0  0.50207  0.82611  0.07814  1.0000 1.1691885132
Mn  Mn12      1.0  0.92283  0.99809  0.17082  1.0000 1.1806709009
Mn  Mn13      1.0  0.07611  0.49797  0.82404  1.0000 1.1691885132
Mn  Mn14      1.0  0.24809  0.57727  0.57526  1.0000 1.1806709009
Mn  Mn15      1.0  0.67393  0.25207  0.17596  1.0000 1.1691885132
Mn  Mn16      1.0  0.00201  0.67283  0.42474  1.0000 1.1806709009
Zn  Zn1       1.0  0.39602  0.14755  0.48251  1.0000 1.020856117
Zn  Zn2       1.0  0.60303  0.33674  0.49989  1.0000 1.0141287077
Zn  Zn3       1.0  0.60225  0.08729  0.74944  1.0000 1.020856117
Zn  Zn4       1.0  0.10233  0.10472  0.26759  1.0000 1.020856117
Zn  Zn5       1.0  0.66504  0.91351  0.51749  1.0000 1.020856117
Zn  Zn6       1.0  0.83685  0.10314  0.50011  1.0000 1.0141287077
Zn  Zn7       1.0  0.33785  0.85281  0.25056  1.0000 1.020856117
Zn  Zn8       1.0  0.83713  0.83474  0.73241  1.0000 1.020856117
Zn  Zn9       1.0  0.16351  0.14602  0.74847  1.0000 1.020856117
Zn  Zn10      1.0  0.35314  0.35303  0.76629  1.0000 1.0141287077
Zn  Zn11      1.0  0.10281  0.35225  0.01496  1.0000 1.020856117
Zn  Zn12      1.0  0.08474  0.85233  0.49761  1.0000 1.020856117
Zn  Zn13      1.0  0.39755  0.41504  0.25153  1.0000 1.020856117
Zn  Zn14      1.0  0.58674  0.58685  0.23371  1.0000 1.020856117
Zn  Zn15      1.0  0.33729  0.08785  0.98504  1.0000 1.020856117
Zn  Zn16      1.0  0.35472  0.58713  0.50239  1.0000 1.020856117
Zn  Zn17      1.0  0.85398  0.60245  0.01749  1.0000 1.020856117
Zn  Zn18      1.0  0.64697  0.41326  0.00011  1.0000 1.020856117
Zn  Zn19      1.0  0.64775  0.66271  0.75056  1.0000 1.0261741269
Zn  Zn20      1.0  0.14767  0.64528  0.23241  1.0000 1.020856117
Zn  Zn21      1.0  0.58496  0.83649  0.98251  1.0000 1.020856117
Zn  Zn22      1.0  0.41315  0.64686  0.99989  1.0000 1.0141287077
Zn  Zn23      1.0  0.91215  0.89719  0.24944  1.0000 1.020856117
Zn  Zn24      1.0  0.41287  0.91526  0.76759  1.0000 1.020856117
Zn  Zn25      1.0  0.08649  0.60398  0.75153  1.0000 1.020856117
Zn  Zn26      1.0  0.89686  0.39697  0.73371  1.0000 1.020856117
Zn  Zn27      1.0  0.14719  0.39775  0.48504  1.0000 1.020856117
Zn  Zn28      1.0  0.16526  0.89767  0.00239  1.0000 1.020856117
Zn  Zn29      1.0  0.85245  0.33496  0.24847  1.0000 1.020856117
Zn  Zn30      1.0  0.66326  0.16315  0.26629  1.0000 1.0141287077
Zn  Zn31      1.0  0.91271  0.66215  0.51496  1.0000 1.0261741269
Zn  Zn32      1.0  0.89528  0.16287  0.99761  1.0000 1.020856117
P   P1        1.0  0.45833  0.26671  0.44818  1.0000 1.3084926593
P   P2        1.0  0.54105  0.23957  0.55482  1.0000 1.293053149
P   P3        1.0  0.24229  0.79051  0.30792  1.0000 1.296176807
P   P4        1.0  0.98105  0.04210  0.29883  1.0000 1.3084926593
P   P5        1.0  0.81853  0.01015  0.55182  1.0000 1.3084926593
P   P6        1.0  0.68475  0.98623  0.44518  1.0000 1.293053149
P   P7        1.0  0.48259  0.93437  0.69208  1.0000 1.296176807
P   P8        1.0  0.74327  0.68222  0.70117  1.0000 1.3084926593
P   P9        1.0  0.26015  0.20833  0.69162  1.0000 1.3084926593
P   P10       1.0  0.23623  0.29105  0.80148  1.0000 1.293053149
P   P11       1.0  0.18437  0.99229  0.95178  1.0000 1.296176807
P   P12       1.0  0.93222  0.73105  0.43895  1.0000 1.3084926593
P   P13       1.0  0.51671  0.56853  0.30838  1.0000 1.3084926593
P   P14       1.0  0.48957  0.43475  0.19852  1.0000 1.293053149
P   P15       1.0  0.04051  0.23259  0.04822  1.0000 1.296176807
P   P16       1.0  0.29210  0.49327  0.56105  1.0000 1.3084926593
P   P17       1.0  0.79167  0.48329  0.05182  1.0000 1.3084926593
P   P18       1.0  0.70895  0.51043  0.94518  1.0000 1.293053149
P   P19       1.0  0.00771  0.95949  0.19208  1.0000 1.296176807
P   P20       1.0  0.26895  0.70790  0.20117  1.0000 1.3084926593
P   P21       1.0  0.43147  0.73985  0.94818  1.0000 1.3084926593
P   P22       1.0  0.56525  0.76377  0.05482  1.0000 1.293053149
P   P23       1.0  0.76741  0.81563  0.80792  1.0000 1.296176807
P   P24       1.0  0.50673  0.06778  0.79883  1.0000 1.3084926593
P   P25       1.0  0.98985  0.54167  0.80838  1.0000 1.3084926593
P   P26       1.0  0.01377  0.45895  0.69852  1.0000 1.293053149
P   P27       1.0  0.06563  0.75771  0.54822  1.0000 1.296176807
P   P28       1.0  0.31778  0.01895  0.06105  1.0000 1.3084926593
P   P29       1.0  0.73329  0.18147  0.19162  1.0000 1.3084926593
P   P30       1.0  0.76043  0.31525  0.30148  1.0000 1.293053149
P   P31       1.0  0.20949  0.51741  0.45178  1.0000 1.293053149
P   P32       1.0  0.95790  0.25673  0.93895  1.0000 1.3084926593
H   H1        1.0  0.32267  0.18800  0.39575  1.0000 0.1404492625
H   H2        1.0  0.48970  0.35422  0.39340  1.0000 0.1404492625
H   H3        1.0  0.31248  0.27734  0.30662  1.0000 0.1404492625
H   H4        1.0  0.51078  0.14891  0.60219  1.0000 0.1472262076
H   H5        1.0  0.67880  0.31925  0.60973  1.0000 0.1404492625
H   H6        1.0  0.69123  0.22350  0.68603  1.0000 0.1472262076
H   H7        1.0  0.15338  0.76146  0.35750  1.0000 0.1472262076
H   H8        1.0  0.31525  0.92782  0.35515  1.0000 0.1472262076
H   H9        1.0  0.22623  0.93963  0.44020  1.0000 0.1472262076
H   H10       1.0  0.89040  0.01058  0.34974  1.0000 0.1404492625
H   H11       1.0  0.06118  0.17721  0.35336  1.0000 0.1404492625
H   H12       1.0  0.97207  0.18944  0.44125  1.0000 0.1404492625
H   H13       1.0  0.79225  0.92692  0.60425  1.0000 0.1404492625
H   H14       1.0  0.96082  0.09630  0.60660  1.0000 0.1404492625
H   H15       1.0  0.97072  0.00586  0.69338  1.0000 0.1404492625
H   H16       1.0  0.54672  0.90859  0.39781  1.0000 0.1472262076
H   H17       1.0  0.70952  0.06907  0.39027  1.0000 0.1404492625
H   H18       1.0  0.53747  0.00520  0.31397  1.0000 0.1472262076
H   H19       1.0  0.40396  0.79588  0.64250  1.0000 0.1472262076
H   H20       1.0  0.57267  0.96010  0.64485  1.0000 0.1472262076
H   H21       1.0  0.49943  0.78603  0.55980  1.0000 0.1472262076
H   H22       1.0  0.66084  0.54066  0.65026  1.0000 0.1404492625
H   H23       1.0  0.82385  0.70783  0.64664  1.0000 0.1404492625
H   H24       1.0  0.74819  0.53082  0.55875  1.0000 0.1404492625
H   H25       1.0  0.17692  0.07267  0.63467  1.0000 0.1404492625
H   H26       1.0  0.34630  0.23970  0.63548  1.0000 0.1404492625
H   H27       1.0  0.25586  0.06248  0.53514  1.0000 0.1404492625
H   H28       1.0  0.15859  0.26078  0.86187  1.0000 0.1472262076
H   H29       1.0  0.31907  0.42880  0.85955  1.0000 0.1404492625
H   H30       1.0  0.25520  0.44123  0.96773  1.0000 0.1472262076
H   H31       1.0  0.04588  0.90338  0.89192  1.0000 0.1472262076
H   H32       1.0  0.21010  0.06525  0.88743  1.0000 0.1472262076
H   H33       1.0  0.03603  0.97623  0.78660  1.0000 0.1472262076
H   H34       1.0  0.79066  0.64040  0.37982  1.0000 0.1404492625
H   H35       1.0  0.95783  0.81119  0.38398  1.0000 0.1404492625
H   H36       1.0  0.78082  0.72207  0.28263  1.0000 0.1404492625
H   H37       1.0  0.43800  0.54225  0.36533  1.0000 0.1404492625
H   H38       1.0  0.60422  0.71082  0.36452  1.0000 0.1404492625
H   H39       1.0  0.52734  0.72072  0.46486  1.0000 0.1404492625
H   H40       1.0  0.39891  0.29672  0.13813  1.0000 0.1472262076
H   H41       1.0  0.56925  0.45952  0.14045  1.0000 0.1404492625
H   H42       1.0  0.47350  0.28747  0.03227  1.0000 0.1472262076
H   H43       1.0  0.01146  0.15396  0.10808  1.0000 0.1472262076
H   H44       1.0  0.17782  0.32267  0.11257  1.0000 0.1472262076
H   H45       1.0  0.18963  0.24943  0.21340  1.0000 0.1472262076
H   H46       1.0  0.26058  0.41084  0.62018  1.0000 0.1404492625
H   H47       1.0  0.42721  0.57385  0.61602  1.0000 0.1404492625
H   H48       1.0  0.43944  0.49819  0.71737  1.0000 0.1404492625
H   H49       1.0  0.92733  0.56200  0.10425  1.0000 0.1404492625
H   H50       1.0  0.76030  0.39578  0.10660  1.0000 0.1404492625
H   H51       1.0  0.93752  0.47266  0.19338  1.0000 0.1404492625
H   H52       1.0  0.73922  0.60109  0.89781  1.0000 0.1472262076
H   H53       1.0  0.57120  0.43075  0.89027  1.0000 0.1404492625
H   H54       1.0  0.55877  0.52650  0.81397  1.0000 0.1472262076
H   H55       1.0  0.09662  0.98854  0.14250  1.0000 0.1472262076
H   H56       1.0  0.93475  0.82218  0.14485  1.0000 0.1472262076
H   H57       1.0  0.02377  0.81037  0.05980  1.0000 0.1472262076
H   H58       1.0  0.35960  0.73942  0.15026  1.0000 0.1404492625
H   H59       1.0  0.18882  0.57280  0.14664  1.0000 0.1404492625
H   H60       1.0  0.27793  0.56056  0.05875  1.0000 0.1404492625
H   H61       1.0  0.45775  0.82308  0.89575  1.0000 0.1404492625
H   H62       1.0  0.28918  0.65370  0.89340  1.0000 0.1404492625
H   H63       1.0  0.27928  0.74414  0.80662  1.0000 0.1404492625
H   H64       1.0  0.70328  0.84141  0.10219  1.0000 0.1472262076
H   H65       1.0  0.54048  0.68093  0.10973  1.0000 0.1404492625
H   H66       1.0  0.71253  0.74480  0.18603  1.0000 0.1472262076
H   H67       1.0  0.84604  0.95412  0.85750  1.0000 0.1472262076
H   H68       1.0  0.67733  0.78990  0.85515  1.0000 0.1472262076
H   H69       1.0  0.75057  0.96397  0.94020  1.0000 0.1472262076
H   H70       1.0  0.58916  0.20934  0.84974  1.0000 0.1404492625
H   H71       1.0  0.42616  0.04218  0.85336  1.0000 0.1404492625
H   H72       1.0  0.50181  0.21918  0.94125  1.0000 0.1404492625
H   H73       1.0  0.07308  0.67733  0.86533  1.0000 0.1404492625
H   H74       1.0  0.90370  0.51030  0.86452  1.0000 0.1404492625
H   H75       1.0  0.99414  0.68752  0.96486  1.0000 0.1404492625
H   H76       1.0  0.09141  0.48922  0.63813  1.0000 0.1472262076
H   H77       1.0  0.93093  0.32120  0.64045  1.0000 0.1404492625
H   H78       1.0  0.99480  0.30877  0.53227  1.0000 0.1472262076
H   H79       1.0  0.20412  0.84662  0.60808  1.0000 0.1472262076
H   H80       1.0  0.03990  0.68475  0.61257  1.0000 0.1472262076
H   H81       1.0  0.21397  0.77377  0.71340  1.0000 0.1472262076
H   H82       1.0  0.45934  0.10960  0.12018  1.0000 0.1404492625
H   H83       1.0  0.29218  0.93882  0.11602  1.0000 0.1404492625
H   H84       1.0  0.46918  0.02793  0.21737  1.0000 0.1404492625
H   H85       1.0  0.81200  0.20775  0.13467  1.0000 0.1404492625
H   H86       1.0  0.64578  0.03918  0.13548  1.0000 0.1404492625
H   H87       1.0  0.72266  0.02928  0.03514  1.0000 0.1404492625
H   H88       1.0  0.85109  0.45328  0.36187  1.0000 0.1472262076
H   H89       1.0  0.68075  0.29048  0.35955  1.0000 0.1404492625
H   H90       1.0  0.77650  0.46253  0.46773  1.0000 0.1472262076
H   H91       1.0  0.23854  0.59604  0.39192  1.0000 0.1472262076
H   H92       1.0  0.07218  0.42733  0.38743  1.0000 0.1472262076
H   H93       1.0  0.06037  0.50057  0.28660  1.0000 0.1472262076
H   H94       1.0  0.98942  0.33916  0.87982  1.0000 0.1404492625
H   H95       1.0  0.82280  0.17616  0.88398  1.0000 0.1404492625
H   H96       1.0  0.81056  0.25181  0.78263  1.0000 0.1404492625
C   C1        1.0  0.41160  0.27080  0.40220  1.0000 -0.1593912256
C   C2        1.0  0.34310  0.22280  0.38450  1.0000 -0.0497158464
C   C3        1.0  0.30270  0.22410  0.35000  1.0000 -0.0372686444
C   C4        1.0  0.44370  0.32210  0.38320  1.0000 -0.0497158464
C   C5        1.0  0.33690  0.27600  0.33130  1.0000 -0.0704517206
C   C6        1.0  0.40280  0.32230  0.34830  1.0000 0.0012587558
C   C7        1.0  0.43970  0.38050  0.32960  1.0000 0.6162521232
C   C8        1.0  0.23080  0.17410  0.33150  1.0000 0.5409704095
C   C9        1.0  0.58820  0.23220  0.59880  1.0000 -0.116104536
C   C10       1.0  0.55700  0.18140  0.61480  1.0000 -0.0704517206
C   C11       1.0  0.65760  0.28210  0.61810  1.0000 -0.0614113964
C   C12       1.0  0.56110  0.12340  0.67050  1.0000 0.5973843771
C   C13       1.0  0.66530  0.22660  0.66530  1.0000 -0.0839262492
C   C14       1.0  0.69410  0.27700  0.64870  1.0000 -0.0170049018
C   C15       1.0  0.76710  0.32960  0.66770  1.0000 0.5409704095
C   C16       1.0  0.59300  0.17670  0.65030  1.0000 -0.0069550281
C   C17       1.0  0.23280  0.83830  0.34970  1.0000 -0.1038322386
C   C18       1.0  0.18360  0.80740  0.36760  1.0000 -0.0704517206
C   C19       1.0  0.17720  0.84340  0.40120  1.0000 0.0012587558
C   C20       1.0  0.28010  0.90700  0.36610  1.0000 -0.0704517206
C   C21       1.0  0.22710  0.91370  0.41667  1.0000 -0.0857385217
C   C22       1.0  0.27630  0.94430  0.39780  1.0000 -0.0069550281
C   C23       1.0  0.33080  0.01860  0.41760  1.0000 0.547152764
C   C24       1.0  0.12250  0.81220  0.42090  1.0000 0.5973843771
C   C25       1.0  0.97930  0.08900  0.34770  1.0000 -0.1505604342
C   C26       1.0  0.92490  0.05670  0.36320  1.0000 -0.0614113964
C   C27       1.0  0.92440  0.09560  0.39900  1.0000 -0.0069550281
C   C28       1.0  0.02700  0.15690  0.36530  1.0000 -0.0497158464
C   C29       1.0  0.97390  0.16470  0.41740  1.0000 -0.0704517206
C   C30       1.0  0.02630  0.19760  0.40090  1.0000 -0.0497158464
C   C31       1.0  0.07710  0.26850  0.42100  1.0000 0.5324682522
C   C32       1.0  0.86770  0.05910  0.41780  1.0000 0.6110347443
C   C33       1.0  0.86860  0.00940  0.59780  1.0000 -0.1593912256
C   C34       1.0  0.83830  0.95860  0.61550  1.0000 -0.0497158464
C   C35       1.0  0.87410  0.95270  0.65000  1.0000 -0.0372686444
C   C36       1.0  0.93890  0.06050  0.61680  1.0000 -0.0497158464
C   C37       1.0  0.94470  0.00560  0.66870  1.0000 -0.0704517206
C   C38       1.0  0.97400  0.05450  0.65170  1.0000 0.0012587558
C   C39       1.0  0.05090  0.11010  0.67040  1.0000 0.6162521232
C   C40       1.0  0.84260  0.89930  0.66850  1.0000 0.5409704095
C   C41       1.0  0.63340  0.98940  0.40120  1.0000 -0.116104536
C   C42       1.0  0.56660  0.94220  0.38520  1.0000 -0.0614113964
C   C43       1.0  0.66400  0.03950  0.38190  1.0000 -0.0614113964
C   C44       1.0  0.45290  0.89060  0.32950  1.0000 0.5973843771
C   C45       1.0  0.56130  0.00000  0.33470  1.0000 -0.0839262492
C   C46       1.0  0.62830  0.04540  0.35130  1.0000 -0.0170049018
C   C47       1.0  0.66190  0.09940  0.33230  1.0000 0.5409704095
C   C48       1.0  0.52640  0.94270  0.34970  1.0000 -0.0069550281
C   C49       1.0  0.48860  0.88310  0.65030  1.0000 -0.1038322386
C   C50       1.0  0.43980  0.81600  0.63240  1.0000 -0.0704517206
C   C51       1.0  0.44220  0.77600  0.59880  1.0000 0.0012587558
C   C52       1.0  0.54090  0.91400  0.63390  1.0000 -0.0704517206
C   C53       1.0  0.49703  0.81043  0.58333  1.0000 -0.0857385217
C   C54       1.0  0.54650  0.87850  0.60220  1.0000 -0.0069550281
C   C55       1.0  0.60100  0.91320  0.58240  1.0000 0.547152764
C   C56       1.0  0.39130  0.70160  0.57910  1.0000 0.5973843771
C   C57       1.0  0.74130  0.63160  0.65230  1.0000 -0.1505604342
C   C58       1.0  0.69350  0.56170  0.63680  1.0000 -0.0614113964
C   C59       1.0  0.69660  0.52540  0.60100  1.0000 -0.0069550281
C   C60       1.0  0.79160  0.66170  0.63470  1.0000 -0.0497158464
C   C61       1.0  0.74730  0.55650  0.58260  1.0000 -0.0704517206
C   C62       1.0  0.79670  0.62540  0.59910  1.0000 -0.0497158464
C   C63       1.0  0.84750  0.65610  0.57900  1.0000 0.5324682522
C   C64       1.0  0.64130  0.44990  0.58220  1.0000 0.6110347443
C   C65       1.0  0.25940  0.16160  0.64080  1.0000 -0.1593912256
C   C66       1.0  0.20860  0.09310  0.62030  1.0000 -0.0497158464
C   C67       1.0  0.20270  0.05270  0.57860  1.0000 -0.0372686444
C   C68       1.0  0.31050  0.19370  0.62160  1.0000 -0.0497158464
C   C69       1.0  0.25560  0.08690  0.56090  1.0000 -0.0704517206
C   C70       1.0  0.30450  0.15280  0.58050  1.0000 0.0012587558
C   C71       1.0  0.36010  0.18970  0.55920  1.0000 0.6110347443
C   C72       1.0  0.14930  0.98080  0.55670  1.0000 0.5409704095
C   C73       1.0  0.23940  0.33820  0.85600  1.0000 -0.116104536
C   C74       1.0  0.19220  0.30700  0.87560  1.0000 -0.0704517206
C   C75       1.0  0.28950  0.40760  0.87550  1.0000 -0.0614113964
C   C76       1.0  0.14060  0.31110  0.93770  1.0000 0.5973843771
C   C77       1.0  0.25000  0.41530  0.93870  1.0000 -0.0839262492
C   C78       1.0  0.29540  0.44410  0.91710  1.0000 -0.0170049018
C   C79       1.0  0.34940  0.51710  0.93750  1.0000 0.5409704095
C   C80       1.0  0.19270  0.34300  0.91630  1.0000 -0.0069550281
C   C81       1.0  0.13310  0.98280  0.89450  1.0000 -0.1038322386
C   C82       1.0  0.06600  0.93360  0.87620  1.0000 -0.0704517206
C   C83       1.0  0.02600  0.92720  0.83380  1.0000 0.0012587558
C   C84       1.0  0.16400  0.03010  0.87310  1.0000 -0.0704517206
C   C85       1.0  0.06043  0.97710  0.81340  1.0000 -0.0857385217
C   C86       1.0  0.12850  0.02630  0.83200  1.0000 -0.0069550281
C   C87       1.0  0.16320  0.08080  0.81220  1.0000 0.547152764
C   C88       1.0  0.95160  0.87250  0.81030  1.0000 0.5973843771
C   C89       1.0  0.88160  0.72930  0.39030  1.0000 -0.1505604342
C   C90       1.0  0.81170  0.67490  0.36820  1.0000 -0.0614113964
C   C91       1.0  0.77540  0.67440  0.32880  1.0000 -0.0069550281
C   C92       1.0  0.91170  0.77700  0.37010  1.0000 -0.0497158464
C   C93       1.0  0.80650  0.72390  0.30920  1.0000 -0.0704517206
C   C94       1.0  0.87540  0.77630  0.32870  1.0000 -0.0497158464
C   C95       1.0  0.90610  0.82710  0.30860  1.0000 0.5324682522
C   C96       1.0  0.69990  0.61770  0.30860  1.0000 0.6110347443
C   C97       1.0  0.52080  0.61860  0.35920  1.0000 -0.1593912256
C   C98       1.0  0.47280  0.58830  0.37970  1.0000 -0.0497158464
C   C99       1.0  0.47410  0.62410  0.42140  1.0000 -0.0372686444
C   C100      1.0  0.57210  0.68890  0.37840  1.0000 -0.0497158464
C   C101      1.0  0.52600  0.69470  0.43910  1.0000 -0.0704517206
C   C102      1.0  0.57230  0.72400  0.41950  1.0000 0.0012587558
C   C103      1.0  0.63050  0.80090  0.44080  1.0000 0.6162521232
C   C104      1.0  0.42410  0.59260  0.44330  1.0000 0.5409704095
C   C105      1.0  0.48220  0.38340  0.14400  1.0000 -0.116104536
C   C106      1.0  0.43140  0.31660  0.12440  1.0000 -0.0704517206
C   C107      1.0  0.53210  0.41400  0.12450  1.0000 -0.0614113964
C   C108      1.0  0.37340  0.20290  0.06230  1.0000 0.5973843771
C   C109      1.0  0.47660  0.31130  0.06130  1.0000 -0.0839262492
C   C110      1.0  0.52700  0.37830  0.08290  1.0000 -0.0170049018
C   C111      1.0  0.57960  0.41190  0.06250  1.0000 0.5324682522
C   C112      1.0  0.42670  0.27640  0.08370  1.0000 -0.0069550281
C   C113      1.0  0.08830  0.23860  0.10550  1.0000 -0.1038322386
C   C114      1.0  0.05740  0.18980  0.12380  1.0000 -0.0704517206
C   C115      1.0  0.09340  0.19220  0.16620  1.0000 0.0012587558
C   C116      1.0  0.15700  0.29090  0.12690  1.0000 -0.0704517206
C   C117      1.0  0.16370  0.24703  0.18660  1.0000 -0.0839262492
C   C118      1.0  0.19430  0.29650  0.16800  1.0000 -0.0069550281
C   C119      1.0  0.26860  0.35100  0.18780  1.0000 0.547152764
C   C120      1.0  0.06220  0.14130  0.18970  1.0000 0.5973843771
C   C121      1.0  0.33900  0.49130  0.60970  1.0000 -0.1505604342
C   C122      1.0  0.30670  0.44350  0.63180  1.0000 -0.0614113964
C   C123      1.0  0.34560  0.44660  0.67120  1.0000 -0.0069550281
C   C124      1.0  0.40690  0.54160  0.62990  1.0000 -0.0497158464
C   C125      1.0  0.41470  0.49730  0.69080  1.0000 -0.0704517206
C   C126      1.0  0.44760  0.54670  0.67130  1.0000 -0.0497158464
C   C127      1.0  0.51850  0.59750  0.69140  1.0000 0.5324682522
C   C128      1.0  0.30910  0.39130  0.69140  1.0000 0.6110347443
C   C129      1.0  0.83840  0.47920  0.09780  1.0000 -0.1593912256
C   C130      1.0  0.90690  0.52720  0.11550  1.0000 -0.0497158464
C   C131      1.0  0.94730  0.52590  0.15000  1.0000 -0.0372686444
C   C132      1.0  0.80630  0.42790  0.11680  1.0000 -0.0497158464
C   C133      1.0  0.91310  0.47400  0.16870  1.0000 -0.0704517206
C   C134      1.0  0.84720  0.42770  0.15170  1.0000 0.0012587558
C   C135      1.0  0.81030  0.36950  0.17040  1.0000 0.6110347443
C   C136      1.0  0.01920  0.57590  0.16850  1.0000 0.5409704095
C   C137      1.0  0.66180  0.51780  0.90120  1.0000 -0.116104536
C   C138      1.0  0.69300  0.56860  0.88520  1.0000 -0.0704517206
C   C139      1.0  0.59240  0.46790  0.88190  1.0000 -0.0614113964
C   C140      1.0  0.68890  0.62660  0.82950  1.0000 0.5973843771
C   C141      1.0  0.58470  0.52340  0.83470  1.0000 -0.0839262492
C   C142      1.0  0.55590  0.47300  0.85130  1.0000 -0.0170049018
C   C143      1.0  0.48290  0.42040  0.83230  1.0000 0.5409704095
C   C144      1.0  0.65700  0.57330  0.84970  1.0000 -0.0069550281
C   C145      1.0  0.01720  0.91170  0.15030  1.0000 -0.1053424117
C   C146      1.0  0.06640  0.94260  0.13240  1.0000 -0.0704517206
C   C147      1.0  0.07280  0.90660  0.09880  1.0000 -7.14778e-05
C   C148      1.0  0.96990  0.84300  0.13390  1.0000 -0.0704517206
C   C149      1.0  0.02290  0.83630  0.08333  1.0000 -0.0857385217
C   C150      1.0  0.97370  0.80570  0.10220  1.0000 -0.0069550281
C   C151      1.0  0.91920  0.73140  0.08240  1.0000 0.547152764
C   C152      1.0  0.12750  0.93780  0.07910  1.0000 0.5973843771
C   C153      1.0  0.27070  0.66100  0.15230  1.0000 -0.1505604342
C   C154      1.0  0.32510  0.69330  0.13680  1.0000 -0.0614113964
C   C155      1.0  0.32560  0.65440  0.10100  1.0000 -0.0069550281
C   C156      1.0  0.22300  0.59310  0.13470  1.0000 -0.0497158464
C   C157      1.0  0.27610  0.58530  0.08260  1.0000 -0.0704517206
C   C158      1.0  0.22370  0.55240  0.09910  1.0000 -0.0497158464
C   C159      1.0  0.17290  0.48150  0.07900  1.0000 0.5324682522
C   C160      1.0  0.38230  0.69090  0.08220  1.0000 0.6110347443
C   C161      1.0  0.38140  0.74060  0.90220  1.0000 -0.1593912256
C   C162      1.0  0.41170  0.79140  0.88450  1.0000 -0.0497158464
C   C163      1.0  0.37590  0.79730  0.85000  1.0000 -0.0372686444
C   C164      1.0  0.31110  0.68950  0.88320  1.0000 -0.0497158464
C   C165      1.0  0.30530  0.74440  0.83130  1.0000 -0.0704517206
C   C166      1.0  0.27600  0.69550  0.84830  1.0000 0.0012587558
C   C167      1.0  0.19910  0.63990  0.82960  1.0000 0.6162521232
C   C168      1.0  0.40740  0.85070  0.83150  1.0000 0.5409704095
C   C169      1.0  0.61660  0.76060  0.09880  1.0000 -0.116104536
C   C170      1.0  0.68340  0.80780  0.11480  1.0000 -0.0704517206
C   C171      1.0  0.58600  0.71050  0.11810  1.0000 -0.0614113964
C   C172      1.0  0.79710  0.85940  0.17050  1.0000 0.5973843771
C   C173      1.0  0.68870  0.75000  0.16530  1.0000 -0.0839262492
C   C174      1.0  0.62170  0.70460  0.14870  1.0000 -0.0170049018
C   C175      1.0  0.58810  0.65060  0.16770  1.0000 0.5324682522
C   C176      1.0  0.72360  0.80730  0.15030  1.0000 -0.0069550281
C   C177      1.0  0.76140  0.86690  0.84970  1.0000 -0.1038322386
C   C178      1.0  0.81020  0.93400  0.86760  1.0000 -0.0704517206
C   C179      1.0  0.80780  0.97400  0.90120  1.0000 0.0012587558
C   C180      1.0  0.70910  0.83600  0.86610  1.0000 -0.0704517206
C   C181      1.0  0.75297  0.93957  0.91667  1.0000 -0.0857385217
C   C182      1.0  0.70350  0.87150  0.89780  1.0000 -0.0069550281
C   C183      1.0  0.64900  0.83680  0.91760  1.0000 0.547152764
C   C184      1.0  0.85870  0.04840  0.92090  1.0000 0.5973843771
C   C185      1.0  0.50870  0.11840  0.84770  1.0000 -0.1505604342
C   C186      1.0  0.55650  0.18830  0.86320  1.0000 -0.0614113964
C   C187      1.0  0.55340  0.22460  0.89900  1.0000 -0.0069550281
C   C188      1.0  0.45840  0.08830  0.86530  1.0000 -0.0497158464
C   C189      1.0  0.50270  0.19350  0.91740  1.0000 -0.0704517206
C   C190      1.0  0.45330  0.12460  0.90090  1.0000 -0.0497158464
C   C191      1.0  0.40250  0.09390  0.92100  1.0000 0.5324682522
C   C192      1.0  0.60870  0.30010  0.91780  1.0000 0.6110347443
C   C193      1.0  0.99060  0.58840  0.85920  1.0000 -0.1593912256
C   C194      1.0  0.04140  0.65690  0.87970  1.0000 -0.0497158464
C   C195      1.0  0.04730  0.69730  0.92140  1.0000 -0.0372686444
C   C196      1.0  0.93950  0.55630  0.87840  1.0000 -0.0497158464
C   C197      1.0  0.99440  0.66310  0.93910  1.0000 -0.0704517206
C   C198      1.0  0.94550  0.59720  0.91950  1.0000 0.0012587558
C   C199      1.0  0.88990  0.56030  0.94080  1.0000 0.6110347443
C   C200      1.0  0.10070  0.76920  0.94330  1.0000 0.5409704095
C   C201      1.0  0.01060  0.41180  0.64400  1.0000 -0.116104536
C   C202      1.0  0.05780  0.44300  0.62440  1.0000 -0.0614113964
C   C203      1.0  0.96050  0.34240  0.62450  1.0000 -0.0614113964
C   C204      1.0  0.10940  0.43890  0.56230  1.0000 0.5973843771
C   C205      1.0  0.00000  0.33470  0.56130  1.0000 -0.0839262492
C   C206      1.0  0.95460  0.30590  0.58290  1.0000 -0.0170049018
C   C207      1.0  0.90060  0.23290  0.56250  1.0000 0.5409704095
C   C208      1.0  0.05730  0.40700  0.58370  1.0000 -0.0069550281
C   C209      1.0  0.11690  0.76720  0.60550  1.0000 -0.1038322386
C   C210      1.0  0.18400  0.81640  0.62380  1.0000 -0.0704517206
C   C211      1.0  0.22400  0.82280  0.66620  1.0000 -7.14778e-05
C   C212      1.0  0.08600  0.71990  0.62690  1.0000 -0.0704517206
C   C213      1.0  0.18957  0.77290  0.68660  1.0000 -0.0857385217
C   C214      1.0  0.12150  0.72370  0.66800  1.0000 -0.0069550281
C   C215      1.0  0.08680  0.66920  0.68780  1.0000 0.547152764
C   C216      1.0  0.29840  0.87750  0.68970  1.0000 0.5973843771
C   C217      1.0  0.36840  0.02070  0.10970  1.0000 -0.1505604342
C   C218      1.0  0.43830  0.07510  0.13180  1.0000 -0.0614113964
C   C219      1.0  0.47460  0.07560  0.17120  1.0000 -0.0069550281
C   C220      1.0  0.33830  0.97300  0.12990  1.0000 -0.0497158464
C   C221      1.0  0.44350  0.02610  0.19080  1.0000 -0.0704517206
C   C222      1.0  0.37460  0.97370  0.17130  1.0000 -0.0497158464
C   C223      1.0  0.34390  0.92290  0.19140  1.0000 0.5324682522
C   C224      1.0  0.55010  0.13230  0.19140  1.0000 0.6110347443
C   C225      1.0  0.72920  0.13140  0.14080  1.0000 -0.1593912256
C   C226      1.0  0.77720  0.16170  0.12030  1.0000 -0.0497158464
C   C227      1.0  0.77590  0.12590  0.07860  1.0000 -0.0372686444
C   C228      1.0  0.67790  0.06110  0.12160  1.0000 -0.0497158464
C   C229      1.0  0.72400  0.05530  0.06090  1.0000 -0.0704517206
C   C230      1.0  0.67770  0.02600  0.08050  1.0000 0.0012587558
C   C231      1.0  0.61950  0.94910  0.05920  1.0000 0.6162521232
C   C232      1.0  0.82590  0.15740  0.05670  1.0000 0.5409704095
C   C233      1.0  0.76780  0.36660  0.35600  1.0000 -0.116104536
C   C234      1.0  0.81860  0.43340  0.37560  1.0000 -0.0704517206
C   C235      1.0  0.71790  0.33600  0.37550  1.0000 -0.0614113964
C   C236      1.0  0.87660  0.54710  0.43770  1.0000 0.5973843771
C   C237      1.0  0.77340  0.43870  0.43870  1.0000 -0.0839262492
C   C238      1.0  0.72300  0.37170  0.41710  1.0000 -0.0170049018
C   C239      1.0  0.67040  0.33810  0.43750  1.0000 0.5409704095
C   C240      1.0  0.82330  0.47360  0.41630  1.0000 -0.0069550281
C   C241      1.0  0.16170  0.51140  0.39450  1.0000 -0.1038322386
C   C242      1.0  0.19260  0.56020  0.37620  1.0000 -0.0704517206
C   C243      1.0  0.15660  0.55780  0.33380  1.0000 0.0012587558
C   C244      1.0  0.09300  0.45910  0.37310  1.0000 -0.0704517206
C   C245      1.0  0.08630  0.50297  0.31340  1.0000 -0.0857385217
C   C246      1.0  0.05570  0.45350  0.33200  1.0000 -0.0069550281
C   C247      1.0  0.98140  0.39900  0.31220  1.0000 0.547152764
C   C248      1.0  0.18780  0.60870  0.31030  1.0000 0.5973843771
C   C249      1.0  0.91100  0.25870  0.89030  1.0000 -0.1505604342
C   C250      1.0  0.94330  0.30650  0.86820  1.0000 -0.0614113964
C   C251      1.0  0.90440  0.30340  0.82880  1.0000 -0.0069550281
C   C252      1.0  0.84310  0.20840  0.87010  1.0000 -0.0497158464
C   C253      1.0  0.83530  0.25270  0.80920  1.0000 -0.0704517206
C   C254      1.0  0.80240  0.20330  0.82870  1.0000 -0.0497158464
C   C255      1.0  0.73150  0.15250  0.80860  1.0000 0.5324682522
C   C256      1.0  0.94090  0.35870  0.80860  1.0000 0.6110347443
O   O1        1.0  0.41900  0.19360  0.43660  1.0000 -0.7191340674
O   O2        1.0  0.52690  0.30760  0.44630  1.0000 -0.7191340674
O   O3        1.0  0.46260  0.29820  0.50140  1.0000 -0.7912067783
O   O4        1.0  0.19840  0.17550  0.29810  1.0000 -0.4938625779
O   O5        1.0  0.20100  0.12490  0.34690  1.0000 -0.4986246221
O   O6        1.0  0.40260  0.38490  0.30530  1.0000 -0.510142145
O   O7        1.0  0.49630  0.41150  0.33560  1.0000 -0.4591031887
O   O8        1.0  0.47150  0.17150  0.52880  1.0000 -0.7096593953
O   O9        1.0  0.57170  0.26300  0.51910  1.0000 -0.7022958318
O   O10       1.0  0.54206  0.29030  0.59076  1.0000 -0.7763510607
O   O11       1.0  0.49950  0.08400  0.65730  1.0000 -0.5371828091
O   O12       1.0  0.59600  0.11810  0.69510  1.0000 -0.510142145
O   O13       1.0  0.79960  0.32690  0.69950  1.0000 -0.4404416075
O   O14       1.0  0.79430  0.37680  0.65710  1.0000 -0.4097241587
O   O15       1.0  0.17200  0.72120  0.27960  1.0000 -0.7022958318
O   O16       1.0  0.28940  0.79110  0.34090  1.0000 -0.7585306179
O   O17       1.0  0.26560  0.82170  0.26990  1.0000 -0.7096593953
O   O18       1.0  0.08900  0.75060  0.41300  1.0000 -0.5694755476
O   O19       1.0  0.11410  0.84540  0.44010  1.0000 -0.4669176817
O   O20       1.0  0.32660  0.05050  0.44910  1.0000 -0.4669176817
O   O21       1.0  0.37080  0.04280  0.39960  1.0000 -0.4177467437
O   O22       1.0  0.05360  0.07920  0.31100  1.0000 -0.7096593953
O   O23       1.0  0.94040  0.97220  0.30100  1.0000 -0.7096593953
O   O24       1.0  0.95110  0.03710  0.24820  1.0000 -0.7763510607
O   O25       1.0  0.83300  0.00250  0.40850  1.0000 -0.4404416075
O   O26       1.0  0.86770  0.09810  0.44720  1.0000 -0.5333603632
O   O27       1.0  0.07600  0.30070  0.45350  1.0000 -0.4591031887
O   O28       1.0  0.13350  0.30370  0.41160  1.0000 -0.4986246221
O   O29       1.0  0.75700  0.98240  0.56340  1.0000 -0.7191340674
O   O30       1.0  0.86130  0.08060  0.55370  1.0000 -0.7191340674
O   O31       1.0  0.79680  0.96120  0.49860  1.0000 -0.7912067783
O   O32       1.0  0.87740  0.90030  0.70190  1.0000 -0.4986246221
O   O33       1.0  0.77800  0.85410  0.65310  1.0000 -0.4986246221
O   O34       1.0  0.07960  0.09730  0.69470  1.0000 -0.510142145
O   O35       1.0  0.07590  0.16070  0.66440  1.0000 -0.4591031887
O   O36       1.0  0.64270  0.94270  0.47120  1.0000 -0.7096593953
O   O37       1.0  0.74390  0.05260  0.48090  1.0000 -0.7022958318
O   O38       1.0  0.69954  0.95130  0.40924  1.0000 -0.7763510607
O   O39       1.0  0.42670  0.84220  0.34270  1.0000 -0.5371828091
O   O40       1.0  0.42300  0.90090  0.30490  1.0000 -0.510142145
O   O41       1.0  0.62740  0.10010  0.30050  1.0000 -0.4404416075
O   O42       1.0  0.71970  0.13720  0.34290  1.0000 -0.4097241587
O   O43       1.0  0.44160  0.89240  0.72040  1.0000 -0.7096593953
O   O44       1.0  0.45020  0.94850  0.65910  1.0000 -0.7585306179
O   O45       1.0  0.55180  0.99570  0.73010  1.0000 -0.7096593953
O   O46       1.0  0.33760  0.67600  0.58700  1.0000 -0.5694755476
O   O47       1.0  0.40530  0.67400  0.55990  1.0000 -0.4669176817
O   O48       1.0  0.60140  0.87750  0.55090  1.0000 -0.4669176817
O   O49       1.0  0.64320  0.97120  0.60040  1.0000 -0.4097241587
O   O50       1.0  0.76820  0.74260  0.68900  1.0000 -0.7096593953
O   O51       1.0  0.67120  0.63940  0.69900  1.0000 -0.7096593953
O   O52       1.0  0.78890  0.70290  0.75180  1.0000 -0.7741525185
O   O53       1.0  0.59400  0.42450  0.59150  1.0000 -0.434423567
O   O54       1.0  0.65090  0.42050  0.55280  1.0000 -0.5333603632
O   O55       1.0  0.84720  0.62250  0.54650  1.0000 -0.4591031887
O   O56       1.0  0.89210  0.72190  0.58840  1.0000 -0.4986246221
O   O57       1.0  0.23240  0.16900  0.72540  1.0000 -0.7191340674
O   O58       1.0  0.33060  0.27690  0.71930  1.0000 -0.7191340674
O   O59       1.0  0.21120  0.21260  0.66440  1.0000 -0.7912067783
O   O60       1.0  0.15030  0.94840  0.52290  1.0000 -0.4938625779
O   O61       1.0  0.10410  0.95100  0.57610  1.0000 -0.4986246221
O   O62       1.0  0.34730  0.15260  0.51770  1.0000 -0.510142145
O   O63       1.0  0.41070  0.24630  0.58480  1.0000 -0.4669176817
O   O64       1.0  0.19270  0.22150  0.80000  1.0000 -0.7096593953
O   O65       1.0  0.30260  0.32170  0.80870  1.0000 -0.7022958318
O   O66       1.0  0.20130  0.29206  0.75176  1.0000 -0.7763510607
O   O67       1.0  0.09220  0.24950  0.91550  1.0000 -0.5371828091
O   O68       1.0  0.15090  0.34600  0.97790  1.0000 -0.510142145
O   O69       1.0  0.35010  0.54960  0.97270  1.0000 -0.4404416075
O   O70       1.0  0.38720  0.54430  0.91750  1.0000 -0.4097241587
O   O71       1.0  0.14240  0.92200  0.95080  1.0000 -0.7096593953
O   O72       1.0  0.19850  0.03940  0.99830  1.0000 -0.7585306179
O   O73       1.0  0.24570  0.01560  0.94390  1.0000 -0.7096593953
O   O74       1.0  0.92600  0.83900  0.83840  1.0000 -0.5694755476
O   O75       1.0  0.92400  0.86410  0.76870  1.0000 -0.4591031887
O   O76       1.0  0.12750  0.07660  0.77610  1.0000 -0.4669176817
O   O77       1.0  0.22120  0.12080  0.82800  1.0000 -0.4177467437
O   O78       1.0  0.99260  0.80360  0.47440  1.0000 -0.7096593953
O   O79       1.0  0.88940  0.69040  0.46820  1.0000 -0.7096593953
O   O80       1.0  0.95290  0.70110  0.41400  1.0000 -0.7741525185
O   O81       1.0  0.67450  0.58300  0.33050  1.0000 -0.4404416075
O   O82       1.0  0.67050  0.61770  0.26960  1.0000 -0.5333603632
O   O83       1.0  0.87250  0.82600  0.27530  1.0000 -0.4591031887
O   O84       1.0  0.97190  0.88350  0.32980  1.0000 -0.4986246221
O   O85       1.0  0.44360  0.50700  0.27460  1.0000 -0.7191340674
O   O86       1.0  0.55760  0.61130  0.28070  1.0000 -0.7191340674
O   O87       1.0  0.54820  0.54680  0.33560  1.0000 -0.7912067783
O   O88       1.0  0.42550  0.62740  0.47710  1.0000 -0.4986246221
O   O89       1.0  0.37490  0.52800  0.42390  1.0000 -0.4938625779
O   O90       1.0  0.63490  0.82960  0.48230  1.0000 -0.510142145
O   O91       1.0  0.66150  0.82590  0.41520  1.0000 -0.4591031887
O   O92       1.0  0.42150  0.39270  0.20000  1.0000 -0.7096593953
O   O93       1.0  0.51300  0.49390  0.19130  1.0000 -0.7022958318
O   O94       1.0  0.54030  0.44954  0.24824  1.0000 -0.7763510607
O   O95       1.0  0.33400  0.17670  0.08450  1.0000 -0.5333603632
O   O96       1.0  0.36810  0.17300  0.02210  1.0000 -0.510142145
O   O97       1.0  0.57690  0.37740  0.02730  1.0000 -0.4404416075
O   O98       1.0  0.62680  0.46970  0.08250  1.0000 -0.4097241587
O   O99       1.0  0.97120  0.19160  0.04920  1.0000 -0.7022958318
O   O100      1.0  0.04110  0.20020  0.00170  1.0000 -0.7585306179
O   O101      1.0  0.07170  0.30180  0.05610  1.0000 -0.7096593953
O   O102      1.0  0.00060  0.08760  0.16160  1.0000 -0.5694755476
O   O103      1.0  0.09540  0.15530  0.23130  1.0000 -0.4669176817
O   O104      1.0  0.30050  0.35140  0.22390  1.0000 -0.4669176817
O   O105      1.0  0.29280  0.39320  0.17200  1.0000 -0.4177467437
O   O106      1.0  0.32920  0.51820  0.52560  1.0000 -0.7096593953
O   O107      1.0  0.22220  0.42120  0.53180  1.0000 -0.7096593953
O   O108      1.0  0.28710  0.53890  0.58600  1.0000 -0.7763510607
O   O109      1.0  0.25250  0.34400  0.66950  1.0000 -0.4404416075
O   O110      1.0  0.34810  0.40090  0.73040  1.0000 -0.5333603632
O   O111      1.0  0.55070  0.59720  0.72470  1.0000 -0.4591031887
O   O112      1.0  0.55370  0.64210  0.67020  1.0000 -0.4986246221
O   O113      1.0  0.83100  0.55640  0.06340  1.0000 -0.7191340674
O   O114      1.0  0.72310  0.44240  0.05370  1.0000 -0.7191340674
O   O115      1.0  0.78740  0.45180  0.99860  1.0000 -0.7912067783
O   O116      1.0  0.05160  0.57450  0.20190  1.0000 -0.4938625779
O   O117      1.0  0.04900  0.62510  0.15310  1.0000 -0.4938625779
O   O118      1.0  0.84740  0.36510  0.19470  1.0000 -0.510142145
O   O119      1.0  0.75370  0.33850  0.16440  1.0000 -0.4591031887
O   O120      1.0  0.77850  0.57850  0.97120  1.0000 -0.7096593953
O   O121      1.0  0.67830  0.48700  0.98090  1.0000 -0.7022958318
O   O122      1.0  0.70794  0.45970  0.90924  1.0000 -0.7741525185
O   O123      1.0  0.75050  0.66600  0.84270  1.0000 -0.5371828091
O   O124      1.0  0.65400  0.63190  0.80490  1.0000 -0.510142145
O   O125      1.0  0.45040  0.42310  0.80050  1.0000 -0.4404416075
O   O126      1.0  0.45570  0.37320  0.84290  1.0000 -0.4097241587
O   O127      1.0  0.07800  0.02880  0.22040  1.0000 -0.7022958318
O   O128      1.0  0.96060  0.95890  0.15910  1.0000 -0.7585306179
O   O129      1.0  0.98440  0.92830  0.23010  1.0000 -0.7096593953
O   O130      1.0  0.16100  0.99940  0.08700  1.0000 -0.5694755476
O   O131      1.0  0.13590  0.90460  0.05990  1.0000 -0.4669176817
O   O132      1.0  0.92340  0.69950  0.05090  1.0000 -0.4669176817
O   O133      1.0  0.87920  0.70720  0.10040  1.0000 -0.4097241587
O   O134      1.0  0.19640  0.67080  0.18900  1.0000 -0.7096593953
O   O135      1.0  0.30960  0.77780  0.19900  1.0000 -0.7096593953
O   O136      1.0  0.29890  0.71290  0.25180  1.0000 -0.7763510607
O   O137      1.0  0.41700  0.74750  0.09150  1.0000 -0.434423567
O   O138      1.0  0.38230  0.65190  0.05280  1.0000 -0.5333603632
O   O139      1.0  0.17400  0.44930  0.04650  1.0000 -0.4591031887
O   O140      1.0  0.11650  0.44630  0.08840  1.0000 -0.4986246221
O   O141      1.0  0.49300  0.76760  0.93660  1.0000 -0.7191340674
O   O142      1.0  0.38870  0.66940  0.94630  1.0000 -0.7191340674
O   O143      1.0  0.45320  0.78880  0.00140  1.0000 -0.7912067783
O   O144      1.0  0.37260  0.84970  0.79810  1.0000 -0.4938625779
O   O145      1.0  0.47200  0.89590  0.84690  1.0000 -0.4986246221
O   O146      1.0  0.17040  0.65270  0.80530  1.0000 -0.510142145
O   O147      1.0  0.17410  0.58930  0.83560  1.0000 -0.4591031887
O   O148      1.0  0.60730  0.80730  0.02880  1.0000 -0.7096593953
O   O149      1.0  0.50610  0.69740  0.01910  1.0000 -0.7022958318
O   O150      1.0  0.55046  0.79870  0.09076  1.0000 -0.7763510607
O   O151      1.0  0.82330  0.90780  0.15730  1.0000 -0.5371828091
O   O152      1.0  0.82700  0.84910  0.19510  1.0000 -0.510142145
O   O153      1.0  0.62260  0.64990  0.19950  1.0000 -0.4404416075
O   O154      1.0  0.53030  0.61280  0.15710  1.0000 -0.4097241587
O   O155      1.0  0.80840  0.85760  0.77960  1.0000 -0.7022958318
O   O156      1.0  0.79980  0.80150  0.84090  1.0000 -0.7585306179
O   O157      1.0  0.69820  0.75430  0.76990  1.0000 -0.7096593953
O   O158      1.0  0.91240  0.07400  0.91300  1.0000 -0.5694755476
O   O159      1.0  0.84470  0.07600  0.94010  1.0000 -0.4669176817
O   O160      1.0  0.64860  0.87250  0.94910  1.0000 -0.4669176817
O   O161      1.0  0.60680  0.77880  0.89960  1.0000 -0.4097241587
O   O162      1.0  0.48180  0.00740  0.81100  1.0000 -0.7096593953
O   O163      1.0  0.57880  0.11060  0.80100  1.0000 -0.7096593953
O   O164      1.0  0.46110  0.04710  0.74820  1.0000 -0.7763510607
O   O165      1.0  0.65600  0.32550  0.90850  1.0000 -0.4404416075
O   O166      1.0  0.59910  0.32950  0.94720  1.0000 -0.5333603632
O   O167      1.0  0.40280  0.12750  0.95350  1.0000 -0.4591031887
O   O168      1.0  0.35790  0.02810  0.91160  1.0000 -0.4986246221
O   O169      1.0  0.01760  0.58100  0.77460  1.0000 -0.7191340674
O   O170      1.0  0.91940  0.47310  0.78070  1.0000 -0.7191340674
O   O171      1.0  0.03880  0.53740  0.83560  1.0000 -0.7912067783
O   O172      1.0  0.09970  0.80160  0.97710  1.0000 -0.4938625779
O   O173      1.0  0.14590  0.79900  0.92390  1.0000 -0.4986246221
O   O174      1.0  0.90270  0.59740  0.98230  1.0000 -0.510142145
O   O175      1.0  0.83930  0.50370  0.91520  1.0000 -0.4669176817
O   O176      1.0  0.05730  0.52850  0.70000  1.0000 -0.7096593953
O   O177      1.0  0.94740  0.42830  0.69130  1.0000 -0.7022958318
O   O178      1.0  0.04870  0.45794  0.74824  1.0000 -0.7763510607
O   O179      1.0  0.15780  0.50050  0.58450  1.0000 -0.5371828091
O   O180      1.0  0.09910  0.40400  0.52210  1.0000 -0.510142145
O   O181      1.0  0.89990  0.20040  0.52730  1.0000 -0.4404416075
O   O182      1.0  0.86280  0.20570  0.58250  1.0000 -0.4097241587
O   O183      1.0  0.10760  0.82800  0.54920  1.0000 -0.7022958318
O   O184      1.0  0.05150  0.71060  0.50170  1.0000 -0.7585306179
O   O185      1.0  0.00430  0.73440  0.55610  1.0000 -0.7096593953
O   O186      1.0  0.32400  0.91100  0.66160  1.0000 -0.5694755476
O   O187      1.0  0.32600  0.88590  0.73130  1.0000 -0.4591031887
O   O188      1.0  0.12250  0.67340  0.72390  1.0000 -0.4669176817
O   O189      1.0  0.02880  0.62920  0.67200  1.0000 -0.4097241587
O   O190      1.0  0.25740  0.94640  0.02560  1.0000 -0.7096593953
O   O191      1.0  0.36060  0.05960  0.03180  1.0000 -0.7096593953
O   O192      1.0  0.29710  0.04890  0.08600  1.0000 -0.7741525185
O   O193      1.0  0.57550  0.16700  0.16950  1.0000 -0.4404416075
O   O194      1.0  0.57950  0.13230  0.23040  1.0000 -0.5371828091
O   O195      1.0  0.37750  0.92400  0.22470  1.0000 -0.4591031887
O   O196      1.0  0.27810  0.86650  0.17020  1.0000 -0.4986246221
O   O197      1.0  0.80640  0.24300  0.22540  1.0000 -0.7191340674
O   O198      1.0  0.69240  0.13870  0.21930  1.0000 -0.7191340674
O   O199      1.0  0.70180  0.20320  0.16440  1.0000 -0.7912067783
O   O200      1.0  0.82450  0.12260  0.02290  1.0000 -0.4938625779
O   O201      1.0  0.87510  0.22200  0.07610  1.0000 -0.4986246221
O   O202      1.0  0.61510  0.92040  0.01770  1.0000 -0.510142145
O   O203      1.0  0.58850  0.92410  0.08480  1.0000 -0.4591031887
O   O204      1.0  0.82850  0.35730  0.30000  1.0000 -0.7096593953
O   O205      1.0  0.73700  0.25610  0.30870  1.0000 -0.7022958318
O   O206      1.0  0.70970  0.30046  0.25176  1.0000 -0.7763510607
O   O207      1.0  0.91600  0.57330  0.41550  1.0000 -0.5371828091
O   O208      1.0  0.88190  0.57700  0.47790  1.0000 -0.510142145
O   O209      1.0  0.67310  0.37260  0.47270  1.0000 -0.4404416075
O   O210      1.0  0.62320  0.28030  0.41750  1.0000 -0.4097241587
O   O211      1.0  0.27880  0.55840  0.45080  1.0000 -0.7096593953
O   O212      1.0  0.20890  0.54980  0.49830  1.0000 -0.7585306179
O   O213      1.0  0.17830  0.44820  0.44390  1.0000 -0.7096593953
O   O214      1.0  0.24940  0.66240  0.33840  1.0000 -0.5694755476
O   O215      1.0  0.15460  0.59470  0.26870  1.0000 -0.4669176817
O   O216      1.0  0.94950  0.39860  0.27610  1.0000 -0.4669176817
O   O217      1.0  0.95720  0.35680  0.32800  1.0000 -0.4097241587
O   O218      1.0  0.92080  0.23180  0.97440  1.0000 -0.7096593953
O   O219      1.0  0.02780  0.32880  0.96820  1.0000 -0.7096593953
O   O220      1.0  0.96290  0.21110  0.91400  1.0000 -0.7763510607
O   O221      1.0  0.99750  0.40600  0.83050  1.0000 -0.4404416075
O   O222      1.0  0.90190  0.34910  0.76960  1.0000 -0.5333603632
O   O223      1.0  0.69930  0.15280  0.77530  1.0000 -0.4591031887
O   O224      1.0  0.69630  0.10790  0.82980  1.0000 -0.4986246221
