# DDEC6 charges by PACMAN v1.1 (https://github.com/mtap-research/PACMAN-charge/)
data_2022[Zn][nan]2[ASR]1
_chemical_formula_sum              "Zn8 H304 C324 N12 O64"
_cell_length_a       12.114
_cell_length_b       38.977
_cell_length_c       20.2245
_cell_angle_alpha    90
_cell_angle_beta     110.11
_cell_angle_gamma    90

_symmetry_space_group_name_H-M    "P 1"
_symmetry_Int_Tables_number       1

loop_
  _symmetry_equiv_pos_as_xyz
  'x, y, z'

loop_
  _atom_site_type_symbol
  _atom_site_label
  _atom_site_symmetry_multiplicity
  _atom_site_fract_x
  _atom_site_fract_y
  _atom_site_fract_z
  _atom_site_occupancy
  _atom_site_charge
Zn  Zn1       1.0  0.27234  0.59564  0.76510  1.0000 0.878304845
Zn  Zn2       1.0  0.23673  0.50237  0.75948  1.0000 0.7977098732
Zn  Zn3       1.0  0.72766  0.40436  0.23490  1.0000 0.878304845
Zn  Zn4       1.0  0.76327  0.49763  0.24052  1.0000 0.7977098732
Zn  Zn5       1.0  0.72766  0.09564  0.73490  1.0000 0.878304845
Zn  Zn6       1.0  0.76327  0.00237  0.74052  1.0000 0.7977098732
Zn  Zn7       1.0  0.27234  0.90436  0.26510  1.0000 0.878304845
Zn  Zn8       1.0  0.23673  0.99763  0.25948  1.0000 0.7977098732
H   H1        1.0  0.17070  0.68660  0.93180  1.0000 0.128680241
H   H2        1.0  0.24020  0.70390  0.16890  1.0000 0.1201329241
H   H3        1.0  0.44740  0.68560  0.92420  1.0000 0.128680241
H   H4        1.0  0.33030  0.66580  0.91510  1.0000 0.1201329241
H   H5        1.0  0.32920  0.70590  0.90750  1.0000 0.1201329241
H   H6        1.0  0.96710  0.68660  0.86370  1.0000 0.1201329241
H   H7        1.0  0.01070  0.65170  0.90320  1.0000 0.1023352831
H   H8        1.0  0.75250  0.70270  0.85390  1.0000 0.1201329241
H   H9        1.0  0.55640  0.67880  0.80860  1.0000 0.1201329241
H   H10       1.0  0.69060  0.58580  0.85180  1.0000 0.128680241
H   H11       1.0  0.87690  0.60720  0.88300  1.0000 0.1201329241
H   H12       1.0  0.49850  0.68600  0.12910  1.0000 0.1023352831
H   H13       1.0  0.46800  0.74610  0.11310  1.0000 0.0901223362
H   H14       1.0  0.45190  0.74770  0.18660  1.0000 0.0803587674
H   H15       1.0  0.64410  0.76320  0.19910  1.0000 0.1023352831
H   H16       1.0  0.64740  0.72920  0.24100  1.0000 0.1201329241
H   H17       1.0  0.66340  0.72800  0.16730  1.0000 0.128680241
H   H18       1.0  0.48550  0.72030  0.28300  1.0000 0.1201329241
H   H19       1.0  0.47500  0.60300  0.28170  1.0000 0.1201329241
H   H20       1.0  0.48280  0.58950  0.45520  1.0000 0.128680241
H   H21       1.0  0.37790  0.60410  0.39190  1.0000 0.128680241
H   H22       1.0  0.47580  0.58220  0.37760  1.0000 0.1090714062
H   H23       1.0  0.52250  0.58460  0.18540  1.0000 0.1090714062
H   H24       1.0  0.38960  0.58390  0.17960  1.0000 0.1090714062
H   H25       1.0  0.48040  0.53310  0.10850  1.0000 0.128680241
H   H26       1.0  0.41650  0.51140  0.99560  1.0000 0.1201329241
H   H27       1.0  0.27530  0.60020  0.92070  1.0000 0.1201329241
H   H28       1.0  0.33560  0.62220  0.03300  1.0000 0.1201329241
H   H29       1.0  0.59720  0.68670  0.45120  1.0000 0.1023352831
H   H30       1.0  0.49980  0.74860  0.38400  1.0000 0.0901223362
H   H31       1.0  0.62900  0.73700  0.39620  1.0000 0.0901223362
H   H32       1.0  0.62690  0.77740  0.48030  1.0000 0.1201329241
H   H33       1.0  0.54530  0.75360  0.50600  1.0000 0.1201329241
H   H34       1.0  0.67500  0.74250  0.51770  1.0000 0.1201329241
H   H35       1.0  0.36850  0.67970  0.58660  1.0000 0.1201329241
H   H36       1.0  0.29690  0.70200  0.35100  1.0000 0.1201329241
H   H37       1.0  0.08760  0.67900  0.59340  1.0000 0.128680241
H   H38       1.0  0.20660  0.66020  0.60290  1.0000 0.1201329241
H   H39       1.0  0.20440  0.70010  0.61190  1.0000 0.1201329241
H   H40       1.0  0.56460  0.68280  0.65570  1.0000 0.1090714062
H   H41       1.0  0.53790  0.64670  0.61850  1.0000 0.1023352831
H   H42       1.0  0.77850  0.70480  0.66180  1.0000 0.128680241
H   H43       1.0  0.96780  0.69200  0.70340  1.0000 0.128680241
H   H44       1.0  0.90550  0.59630  0.68520  1.0000 0.1201329241
H   H45       1.0  0.69000  0.60820  0.65660  1.0000 0.1201329241
H   H46       1.0  0.04470  0.68120  0.39130  1.0000 0.1023352831
H   H47       1.0  0.08070  0.74610  0.33880  1.0000 0.0803587674
H   H48       1.0  0.06560  0.74160  0.41220  1.0000 0.0901223362
H   H49       1.0  0.88450  0.75790  0.32810  1.0000 0.1090714062
H   H50       1.0  0.88700  0.72570  0.28220  1.0000 0.1201329241
H   H51       1.0  0.87180  0.72100  0.35560  1.0000 0.128680241
H   H52       1.0  0.05340  0.71990  0.23980  1.0000 0.1201329241
H   H53       1.0  0.06870  0.60290  0.23010  1.0000 0.1090714062
H   H54       1.0  0.05970  0.59480  0.05360  1.0000 0.128680241
H   H55       1.0  0.16580  0.61010  0.11520  1.0000 0.128680241
H   H56       1.0  0.07810  0.58480  0.13180  1.0000 0.1090714062
H   H57       1.0  0.01730  0.58150  0.32890  1.0000 0.1023352831
H   H58       1.0  0.15080  0.58050  0.33600  1.0000 0.1090714062
H   H59       1.0  0.01980  0.53790  0.41470  1.0000 0.1201329241
H   H60       1.0  0.07280  0.51890  0.52990  1.0000 0.1201329241
H   H61       1.0  0.29730  0.59810  0.58750  1.0000 0.1201329241
H   H62       1.0  0.24480  0.61520  0.47340  1.0000 0.1201329241
H   H63       1.0  0.94190  0.68940  0.06910  1.0000 0.1023352831
H   H64       1.0  0.04010  0.75110  0.13780  1.0000 0.0901223362
H   H65       1.0  0.91140  0.73930  0.12680  1.0000 0.0901223362
H   H66       1.0  0.91070  0.77970  0.04280  1.0000 0.1201329241
H   H67       1.0  0.99160  0.75610  0.01620  1.0000 0.1201329241
H   H68       1.0  0.86250  0.74480  0.00570  1.0000 0.1201329241
H   H69       1.0  0.68230  0.47940  0.53000  1.0000 0.1023352831
H   H70       1.0  0.80730  0.49090  0.63950  1.0000 0.1090714062
H   H71       1.0  0.56260  0.54770  0.67620  1.0000 0.128680241
H   H72       1.0  0.43660  0.53480  0.56350  1.0000 0.1090714062
H   H73       1.0  0.74250  0.52000  0.77930  1.0000 0.1416413991
H   H74       1.0  0.78870  0.55210  0.74980  1.0000 0.128680241
H   H75       1.0  0.99300  0.54440  0.73040  1.0000 0.1201329241
H   H76       1.0  0.05920  0.45330  0.81140  1.0000 0.1090714062
H   H77       1.0  0.82930  0.31340  0.06820  1.0000 0.128680241
H   H78       1.0  0.75980  0.29610  0.83110  1.0000 0.1201329241
H   H79       1.0  0.55260  0.31440  0.07580  1.0000 0.128680241
H   H80       1.0  0.66970  0.33420  0.08490  1.0000 0.1201329241
H   H81       1.0  0.67080  0.29410  0.09250  1.0000 0.1201329241
H   H82       1.0  0.03290  0.31340  0.13630  1.0000 0.1201329241
H   H83       1.0  0.98930  0.34830  0.09680  1.0000 0.1023352831
H   H84       1.0  0.24750  0.29730  0.14610  1.0000 0.1201329241
H   H85       1.0  0.44360  0.32120  0.19140  1.0000 0.1201329241
H   H86       1.0  0.30940  0.41420  0.14820  1.0000 0.128680241
H   H87       1.0  0.12310  0.39280  0.11700  1.0000 0.1201329241
H   H88       1.0  0.50150  0.31400  0.87090  1.0000 0.1023352831
H   H89       1.0  0.53200  0.25390  0.88690  1.0000 0.0901223362
H   H90       1.0  0.54810  0.25230  0.81340  1.0000 0.0803587674
H   H91       1.0  0.35590  0.23680  0.80090  1.0000 0.1023352831
H   H92       1.0  0.35260  0.27080  0.75900  1.0000 0.1201329241
H   H93       1.0  0.33660  0.27200  0.83270  1.0000 0.128680241
H   H94       1.0  0.51450  0.27970  0.71700  1.0000 0.1201329241
H   H95       1.0  0.52500  0.39700  0.71830  1.0000 0.1201329241
H   H96       1.0  0.51720  0.41050  0.54480  1.0000 0.128680241
H   H97       1.0  0.62210  0.39590  0.60810  1.0000 0.128680241
H   H98       1.0  0.52420  0.41780  0.62240  1.0000 0.1090714062
H   H99       1.0  0.47750  0.41540  0.81460  1.0000 0.1090714062
H   H100      1.0  0.61040  0.41610  0.82040  1.0000 0.1090714062
H   H101      1.0  0.51960  0.46690  0.89150  1.0000 0.128680241
H   H102      1.0  0.58350  0.48860  0.00440  1.0000 0.1201329241
H   H103      1.0  0.72470  0.39980  0.07930  1.0000 0.1201329241
H   H104      1.0  0.66440  0.37780  0.96700  1.0000 0.1201329241
H   H105      1.0  0.40280  0.31330  0.54880  1.0000 0.1023352831
H   H106      1.0  0.50020  0.25140  0.61600  1.0000 0.0901223362
H   H107      1.0  0.37100  0.26300  0.60380  1.0000 0.0901223362
H   H108      1.0  0.37310  0.22260  0.51970  1.0000 0.1201329241
H   H109      1.0  0.45470  0.24640  0.49400  1.0000 0.1201329241
H   H110      1.0  0.32500  0.25750  0.48230  1.0000 0.1201329241
H   H111      1.0  0.63150  0.32030  0.41340  1.0000 0.1201329241
H   H112      1.0  0.70310  0.29800  0.64900  1.0000 0.1201329241
H   H113      1.0  0.91240  0.32100  0.40660  1.0000 0.128680241
H   H114      1.0  0.79340  0.33980  0.39710  1.0000 0.1201329241
H   H115      1.0  0.79560  0.29990  0.38810  1.0000 0.1201329241
H   H116      1.0  0.43540  0.31720  0.34430  1.0000 0.1090714062
H   H117      1.0  0.46210  0.35330  0.38150  1.0000 0.1023352831
H   H118      1.0  0.22150  0.29520  0.33820  1.0000 0.128680241
H   H119      1.0  0.03220  0.30800  0.29660  1.0000 0.128680241
H   H120      1.0  0.09450  0.40370  0.31480  1.0000 0.1201329241
H   H121      1.0  0.31000  0.39180  0.34340  1.0000 0.1201329241
H   H122      1.0  0.95530  0.31880  0.60870  1.0000 0.1023352831
H   H123      1.0  0.91930  0.25390  0.66120  1.0000 0.0803587674
H   H124      1.0  0.93440  0.25840  0.58780  1.0000 0.0901223362
H   H125      1.0  0.11550  0.24210  0.67190  1.0000 0.1090714062
H   H126      1.0  0.11300  0.27430  0.71780  1.0000 0.1201329241
H   H127      1.0  0.12820  0.27900  0.64440  1.0000 0.128680241
H   H128      1.0  0.94660  0.28010  0.76020  1.0000 0.1201329241
H   H129      1.0  0.93130  0.39710  0.76990  1.0000 0.1090714062
H   H130      1.0  0.94030  0.40520  0.94640  1.0000 0.128680241
H   H131      1.0  0.83420  0.38990  0.88480  1.0000 0.128680241
H   H132      1.0  0.92190  0.41520  0.86820  1.0000 0.1090714062
H   H133      1.0  0.98270  0.41850  0.67110  1.0000 0.1023352831
H   H134      1.0  0.84920  0.41950  0.66400  1.0000 0.1090714062
H   H135      1.0  0.98020  0.46210  0.58530  1.0000 0.1201329241
H   H136      1.0  0.92720  0.48110  0.47010  1.0000 0.1201329241
H   H137      1.0  0.70270  0.40190  0.41250  1.0000 0.1201329241
H   H138      1.0  0.75520  0.38480  0.52660  1.0000 0.1201329241
H   H139      1.0  0.05810  0.31060  0.93090  1.0000 0.1023352831
H   H140      1.0  0.95990  0.24890  0.86220  1.0000 0.0901223362
H   H141      1.0  0.08860  0.26070  0.87320  1.0000 0.0901223362
H   H142      1.0  0.08930  0.22030  0.95720  1.0000 0.1201329241
H   H143      1.0  0.00840  0.24390  0.98380  1.0000 0.1201329241
H   H144      1.0  0.13750  0.25520  0.99430  1.0000 0.1201329241
H   H145      1.0  0.31770  0.52060  0.47000  1.0000 0.1023352831
H   H146      1.0  0.19270  0.50910  0.36050  1.0000 0.1090714062
H   H147      1.0  0.43740  0.45230  0.32380  1.0000 0.128680241
H   H148      1.0  0.56340  0.46520  0.43650  1.0000 0.1090714062
H   H149      1.0  0.25750  0.48000  0.22070  1.0000 0.1416413991
H   H150      1.0  0.21130  0.44790  0.25020  1.0000 0.128680241
H   H151      1.0  0.00700  0.45560  0.26960  1.0000 0.1201329241
H   H152      1.0  0.94080  0.54670  0.18860  1.0000 0.1090714062
H   H153      1.0  0.82930  0.18660  0.56820  1.0000 0.128680241
H   H154      1.0  0.75980  0.20390  0.33110  1.0000 0.1201329241
H   H155      1.0  0.55260  0.18560  0.57580  1.0000 0.128680241
H   H156      1.0  0.66970  0.16580  0.58490  1.0000 0.1201329241
H   H157      1.0  0.67080  0.20590  0.59250  1.0000 0.1201329241
H   H158      1.0  0.03290  0.18660  0.63630  1.0000 0.1201329241
H   H159      1.0  0.98930  0.15170  0.59680  1.0000 0.1023352831
H   H160      1.0  0.24750  0.20270  0.64610  1.0000 0.1201329241
H   H161      1.0  0.44360  0.17880  0.69140  1.0000 0.1201329241
H   H162      1.0  0.30940  0.08580  0.64820  1.0000 0.128680241
H   H163      1.0  0.12310  0.10720  0.61700  1.0000 0.1201329241
H   H164      1.0  0.50150  0.18600  0.37090  1.0000 0.1023352831
H   H165      1.0  0.53200  0.24610  0.38690  1.0000 0.0901223362
H   H166      1.0  0.54810  0.24770  0.31340  1.0000 0.0803587674
H   H167      1.0  0.35590  0.26320  0.30090  1.0000 0.1090714062
H   H168      1.0  0.35260  0.22920  0.25900  1.0000 0.1201329241
H   H169      1.0  0.33660  0.22800  0.33270  1.0000 0.128680241
H   H170      1.0  0.51450  0.22030  0.21700  1.0000 0.1201329241
H   H171      1.0  0.52500  0.10300  0.21830  1.0000 0.1201329241
H   H172      1.0  0.51720  0.08950  0.04480  1.0000 0.128680241
H   H173      1.0  0.62210  0.10410  0.10810  1.0000 0.128680241
H   H174      1.0  0.52420  0.08220  0.12240  1.0000 0.1090714062
H   H175      1.0  0.47750  0.08460  0.31460  1.0000 0.1090714062
H   H176      1.0  0.61040  0.08390  0.32040  1.0000 0.1090714062
H   H177      1.0  0.51960  0.03310  0.39150  1.0000 0.1201329241
H   H178      1.0  0.58350  0.01140  0.50440  1.0000 0.1201329241
H   H179      1.0  0.72470  0.10020  0.57930  1.0000 0.1201329241
H   H180      1.0  0.66440  0.12220  0.46700  1.0000 0.1201329241
H   H181      1.0  0.40280  0.18670  0.04880  1.0000 0.1023352831
H   H182      1.0  0.50020  0.24860  0.11600  1.0000 0.0901223362
H   H183      1.0  0.37100  0.23700  0.10380  1.0000 0.0901223362
H   H184      1.0  0.37310  0.27740  0.01970  1.0000 0.1201329241
H   H185      1.0  0.45470  0.25360  0.99400  1.0000 0.1201329241
H   H186      1.0  0.32500  0.24250  0.98230  1.0000 0.1201329241
H   H187      1.0  0.63150  0.17970  0.91340  1.0000 0.1201329241
H   H188      1.0  0.70310  0.20200  0.14900  1.0000 0.1201329241
H   H189      1.0  0.91240  0.17900  0.90660  1.0000 0.128680241
H   H190      1.0  0.79340  0.16020  0.89710  1.0000 0.1201329241
H   H191      1.0  0.79560  0.20010  0.88810  1.0000 0.1201329241
H   H192      1.0  0.43540  0.18280  0.84430  1.0000 0.1090714062
H   H193      1.0  0.46210  0.14670  0.88150  1.0000 0.1023352831
H   H194      1.0  0.22150  0.20480  0.83820  1.0000 0.128680241
H   H195      1.0  0.03220  0.19200  0.79660  1.0000 0.128680241
H   H196      1.0  0.09450  0.09630  0.81480  1.0000 0.1201329241
H   H197      1.0  0.31000  0.10820  0.84340  1.0000 0.1201329241
H   H198      1.0  0.95530  0.18120  0.10870  1.0000 0.1023352831
H   H199      1.0  0.91930  0.24610  0.16120  1.0000 0.0803587674
H   H200      1.0  0.93440  0.24160  0.08780  1.0000 0.0901223362
H   H201      1.0  0.11550  0.25790  0.17190  1.0000 0.1090714062
H   H202      1.0  0.11300  0.22570  0.21780  1.0000 0.1201329241
H   H203      1.0  0.12820  0.22100  0.14440  1.0000 0.128680241
H   H204      1.0  0.94660  0.21990  0.26020  1.0000 0.1201329241
H   H205      1.0  0.93130  0.10290  0.26990  1.0000 0.1090714062
H   H206      1.0  0.94030  0.09480  0.44640  1.0000 0.128680241
H   H207      1.0  0.83420  0.11010  0.38480  1.0000 0.128680241
H   H208      1.0  0.92190  0.08480  0.36820  1.0000 0.1090714062
H   H209      1.0  0.98270  0.08150  0.17110  1.0000 0.1023352831
H   H210      1.0  0.84920  0.08050  0.16400  1.0000 0.1090714062
H   H211      1.0  0.98020  0.03790  0.08530  1.0000 0.1201329241
H   H212      1.0  0.92720  0.01890  0.97010  1.0000 0.1201329241
H   H213      1.0  0.70270  0.09810  0.91250  1.0000 0.1201329241
H   H214      1.0  0.75520  0.11520  0.02660  1.0000 0.1201329241
H   H215      1.0  0.05810  0.18940  0.43090  1.0000 0.1023352831
H   H216      1.0  0.95990  0.25110  0.36220  1.0000 0.0901223362
H   H217      1.0  0.08860  0.23930  0.37320  1.0000 0.0901223362
H   H218      1.0  0.08930  0.27970  0.45720  1.0000 0.1201329241
H   H219      1.0  0.00840  0.25610  0.48380  1.0000 0.1201329241
H   H220      1.0  0.13750  0.24480  0.49430  1.0000 0.1201329241
H   H221      1.0  0.31770  0.97940  0.97000  1.0000 0.1023352831
H   H222      1.0  0.19270  0.99090  0.86050  1.0000 0.1090714062
H   H223      1.0  0.43740  0.04770  0.82380  1.0000 0.128680241
H   H224      1.0  0.56340  0.03480  0.93650  1.0000 0.1090714062
H   H225      1.0  0.25750  0.02000  0.72070  1.0000 0.1416413991
H   H226      1.0  0.21130  0.05210  0.75020  1.0000 0.128680241
H   H227      1.0  0.00700  0.04440  0.76960  1.0000 0.1201329241
H   H228      1.0  0.94080  0.95330  0.68860  1.0000 0.1090714062
H   H229      1.0  0.17070  0.81340  0.43180  1.0000 0.128680241
H   H230      1.0  0.24020  0.79610  0.66890  1.0000 0.1201329241
H   H231      1.0  0.44740  0.81440  0.42420  1.0000 0.128680241
H   H232      1.0  0.33030  0.83420  0.41510  1.0000 0.1201329241
H   H233      1.0  0.32920  0.79410  0.40750  1.0000 0.1201329241
H   H234      1.0  0.96710  0.81340  0.36370  1.0000 0.1201329241
H   H235      1.0  0.01070  0.84830  0.40320  1.0000 0.1023352831
H   H236      1.0  0.75250  0.79730  0.35390  1.0000 0.1201329241
H   H237      1.0  0.55640  0.82120  0.30860  1.0000 0.1201329241
H   H238      1.0  0.69060  0.91420  0.35180  1.0000 0.128680241
H   H239      1.0  0.87690  0.89280  0.38300  1.0000 0.1201329241
H   H240      1.0  0.49850  0.81400  0.62910  1.0000 0.1023352831
H   H241      1.0  0.46800  0.75390  0.61310  1.0000 0.0901223362
H   H242      1.0  0.45190  0.75230  0.68660  1.0000 0.0803587674
H   H243      1.0  0.64410  0.73680  0.69910  1.0000 0.1023352831
H   H244      1.0  0.64740  0.77080  0.74100  1.0000 0.1201329241
H   H245      1.0  0.66340  0.77200  0.66730  1.0000 0.128680241
H   H246      1.0  0.48550  0.77970  0.78300  1.0000 0.1201329241
H   H247      1.0  0.47500  0.89700  0.78170  1.0000 0.1201329241
H   H248      1.0  0.48280  0.91050  0.95520  1.0000 0.128680241
H   H249      1.0  0.37790  0.89590  0.89190  1.0000 0.128680241
H   H250      1.0  0.47580  0.91780  0.87760  1.0000 0.1090714062
H   H251      1.0  0.52250  0.91540  0.68540  1.0000 0.1090714062
H   H252      1.0  0.38960  0.91610  0.67960  1.0000 0.1090714062
H   H253      1.0  0.48040  0.96690  0.60850  1.0000 0.128680241
H   H254      1.0  0.41650  0.98860  0.49560  1.0000 0.1201329241
H   H255      1.0  0.27530  0.89980  0.42070  1.0000 0.1201329241
H   H256      1.0  0.33560  0.87780  0.53300  1.0000 0.1201329241
H   H257      1.0  0.59720  0.81330  0.95120  1.0000 0.1023352831
H   H258      1.0  0.49980  0.75140  0.88400  1.0000 0.0901223362
H   H259      1.0  0.62900  0.76300  0.89620  1.0000 0.0901223362
H   H260      1.0  0.62690  0.72260  0.98030  1.0000 0.1201329241
H   H261      1.0  0.54530  0.74640  0.00600  1.0000 0.1201329241
H   H262      1.0  0.67500  0.75750  0.01770  1.0000 0.1201329241
H   H263      1.0  0.36850  0.82030  0.08660  1.0000 0.1201329241
H   H264      1.0  0.29690  0.79800  0.85100  1.0000 0.1201329241
H   H265      1.0  0.08760  0.82100  0.09340  1.0000 0.128680241
H   H266      1.0  0.20660  0.83980  0.10290  1.0000 0.1201329241
H   H267      1.0  0.20440  0.79990  0.11190  1.0000 0.1201329241
H   H268      1.0  0.56460  0.81720  0.15570  1.0000 0.1090714062
H   H269      1.0  0.53790  0.85330  0.11850  1.0000 0.1023352831
H   H270      1.0  0.77850  0.79520  0.16180  1.0000 0.128680241
H   H271      1.0  0.96780  0.80800  0.20340  1.0000 0.128680241
H   H272      1.0  0.90550  0.90370  0.18520  1.0000 0.1201329241
H   H273      1.0  0.69000  0.89180  0.15660  1.0000 0.1201329241
H   H274      1.0  0.04470  0.81880  0.89130  1.0000 0.1023352831
H   H275      1.0  0.08070  0.75390  0.83880  1.0000 0.0803587674
H   H276      1.0  0.06560  0.75840  0.91220  1.0000 0.0901223362
H   H277      1.0  0.88450  0.74210  0.82810  1.0000 0.1090714062
H   H278      1.0  0.88700  0.77430  0.78220  1.0000 0.1201329241
H   H279      1.0  0.87180  0.77900  0.85560  1.0000 0.128680241
H   H280      1.0  0.05340  0.78010  0.73980  1.0000 0.1201329241
H   H281      1.0  0.06870  0.89710  0.73010  1.0000 0.1090714062
H   H282      1.0  0.05970  0.90520  0.55360  1.0000 0.128680241
H   H283      1.0  0.16580  0.88990  0.61520  1.0000 0.1201329241
H   H284      1.0  0.07810  0.91520  0.63180  1.0000 0.1090714062
H   H285      1.0  0.01730  0.91850  0.82890  1.0000 0.1023352831
H   H286      1.0  0.15080  0.91950  0.83600  1.0000 0.1090714062
H   H287      1.0  0.01980  0.96210  0.91470  1.0000 0.1201329241
H   H288      1.0  0.07280  0.98110  0.02990  1.0000 0.1201329241
H   H289      1.0  0.29730  0.90190  0.08750  1.0000 0.1201329241
H   H290      1.0  0.24480  0.88480  0.97340  1.0000 0.1201329241
H   H291      1.0  0.94190  0.81060  0.56910  1.0000 0.1023352831
H   H292      1.0  0.04010  0.74890  0.63780  1.0000 0.0901223362
H   H293      1.0  0.91140  0.76070  0.62680  1.0000 0.0901223362
H   H294      1.0  0.91070  0.72030  0.54280  1.0000 0.1201329241
H   H295      1.0  0.99160  0.74390  0.51620  1.0000 0.1201329241
H   H296      1.0  0.86250  0.75520  0.50570  1.0000 0.1201329241
H   H297      1.0  0.68230  0.02060  0.03000  1.0000 0.1023352831
H   H298      1.0  0.80730  0.00910  0.13950  1.0000 0.1090714062
H   H299      1.0  0.56260  0.95230  0.17620  1.0000 0.128680241
H   H300      1.0  0.43660  0.96520  0.06350  1.0000 0.1090714062
H   H301      1.0  0.74250  0.98000  0.27930  1.0000 0.1416413991
H   H302      1.0  0.78870  0.94790  0.24980  1.0000 0.128680241
H   H303      1.0  0.99300  0.95560  0.23040  1.0000 0.1201329241
H   H304      1.0  0.05920  0.04670  0.31140  1.0000 0.1090714062
C   C1        1.0  0.18500  0.68937  0.97970  1.0000 -0.4018858091
C   C2        1.0  0.09130  0.69108  0.00560  1.0000 0.196200615
C   C3        1.0  0.10820  0.69719  0.07510  1.0000 -0.0187636997
C   C4        1.0  0.22570  0.69981  0.12140  1.0000 -0.1997629197
C   C5        1.0  0.29860  0.69187  0.02670  1.0000 0.1904385789
C   C6        1.0  0.32110  0.69634  0.09750  1.0000 -0.029949867
C   C7        1.0  0.37370  0.68650  0.93210  1.0000 -0.2255387695
C   C8        1.0  0.95580  0.67050  0.89740  1.0000 -0.058595037
C   C9        1.0  0.83240  0.65720  0.87120  1.0000 0.0803587674
C   C10       1.0  0.74070  0.67910  0.85130  1.0000 -0.1404236177
C   C11       1.0  0.62160  0.66460  0.82560  1.0000 -0.130558226
C   C12       1.0  0.60800  0.63050  0.82680  1.0000 -0.0187636997
C   C13       1.0  0.70200  0.60930  0.84980  1.0000 -0.130558226
C   C14       1.0  0.81320  0.62220  0.86990  1.0000 -0.1512133458
C   C15       1.0  0.50910  0.60380  0.81760  1.0000 0.5472508578
C   C16       1.0  0.44890  0.69840  0.15060  1.0000 -0.0512188987
C   C17       1.0  0.49100  0.73548  0.15920  1.0000 -0.1512133458
C   C18       1.0  0.62380  0.73930  0.19500  1.0000 -0.3895449953
C   C19       1.0  0.46330  0.68027  0.21970  1.0000 -0.0047953993
C   C20       1.0  0.48440  0.69644  0.28280  1.0000 -0.1997629197
C   C21       1.0  0.50420  0.67984  0.34670  1.0000 -0.029949867
C   C22       1.0  0.50130  0.64506  0.34500  1.0000 0.178281626
C   C23       1.0  0.47850  0.62688  0.28190  1.0000 -0.3500598425
C   C24       1.0  0.46140  0.64433  0.22080  1.0000 0.1904385789
C   C25       1.0  0.46020  0.59880  0.40840  1.0000 -0.2183156402
C   C26       1.0  0.44430  0.59265  0.15820  1.0000 -0.0727624343
C   C27       1.0  0.41000  0.58033  0.08260  1.0000 0.0901223362
C   C28       1.0  0.43720  0.54690  0.07100  1.0000 -0.1512133458
C   C29       1.0  0.39960  0.53410  0.00290  1.0000 -0.0895887928
C   C30       1.0  0.33990  0.55330  0.94730  1.0000 -0.029949867
C   C31       1.0  0.31610  0.58630  0.95860  1.0000 -0.1093791951
C   C32       1.0  0.35220  0.59939  0.02640  1.0000 -0.1404236177
C   C33       1.0  0.30300  0.53850  0.87580  1.0000 0.5683815314
C   C34       1.0  0.53000  0.69847  0.41720  1.0000 -0.058595037
C   C35       1.0  0.56620  0.73601  0.41560  1.0000 -0.1596772265
C   C36       1.0  0.60710  0.75400  0.48640  1.0000 -0.3895449953
C   C37       1.0  0.42810  0.69427  0.44310  1.0000 -0.009080317
C   C38       1.0  0.44670  0.68728  0.51460  1.0000 0.2100997178
C   C39       1.0  0.35460  0.68424  0.53930  1.0000 -0.4057170095
C   C40       1.0  0.23830  0.68808  0.49150  1.0000 0.1904385789
C   C41       1.0  0.21500  0.69345  0.42000  1.0000 -0.029949867
C   C42       1.0  0.31100  0.69724  0.39820  1.0000 -0.1997629197
C   C43       1.0  0.16180  0.68070  0.58630  1.0000 -0.2183156402
C   C44       1.0  0.58430  0.66750  0.62360  1.0000 -0.058595037
C   C45       1.0  0.71370  0.65890  0.65210  1.0000 0.0803587674
C   C46       1.0  0.79920  0.68170  0.66880  1.0000 -0.1512133458
C   C47       1.0  0.91510  0.67390  0.69560  1.0000 -0.1093791951
C   C48       1.0  0.95960  0.64340  0.71150  1.0000 -0.009080317
C   C49       1.0  0.87980  0.61860  0.68750  1.0000 -0.1596772265
C   C50       1.0  0.74490  0.62570  0.66300  1.0000 -0.1596772265
C   C51       1.0  0.08750  0.62980  0.74470  1.0000 0.5367987959
C   C52       1.0  0.09130  0.69478  0.36970  1.0000 -0.058595037
C   C53       1.0  0.04380  0.73220  0.36510  1.0000 -0.1404236177
C   C54       1.0  0.90900  0.73440  0.32940  1.0000 -0.3895449953
C   C55       1.0  0.07410  0.67826  0.29990  1.0000 -0.009080317
C   C56       1.0  0.05380  0.69607  0.23750  1.0000 -0.2080784121
C   C57       1.0  0.03380  0.68132  0.17080  1.0000 -0.029949867
C   C58       1.0  0.04030  0.64538  0.17110  1.0000 0.1904385789
C   C59       1.0  0.06300  0.62667  0.23140  1.0000 -0.3500598425
C   C60       1.0  0.07760  0.64325  0.29460  1.0000 0.1904385789
C   C61       1.0  0.08520  0.60290  0.10130  1.0000 -0.2080784121
C   C62       1.0  0.09530  0.58951  0.35670  1.0000 -0.0759463674
C   C63       1.0  0.12740  0.57720  0.43200  1.0000 0.0803587674
C   C64       1.0  0.07710  0.54979  0.44990  1.0000 -0.1512133458
C   C65       1.0  0.10700  0.53844  0.51900  1.0000 -0.104282053
C   C66       1.0  0.18950  0.55725  0.57100  1.0000 -0.0187636997
C   C67       1.0  0.24090  0.58570  0.55260  1.0000 -0.1093791951
C   C68       1.0  0.21040  0.59577  0.48480  1.0000 -0.1404236177
C   C69       1.0  0.22670  0.54740  0.64930  1.0000 0.5683815314
C   C70       1.0  0.00980  0.70064  0.10340  1.0000 -0.058595037
C   C71       1.0  0.97320  0.73855  0.10660  1.0000 -0.1512133458
C   C72       1.0  0.93070  0.75640  0.03650  1.0000 -0.3895449953
C   C73       1.0  0.54040  0.50450  0.53460  1.0000 0.0637320679
C   C74       1.0  0.65550  0.49260  0.55960  1.0000 -0.1688082891
C   C75       1.0  0.73120  0.49960  0.62600  1.0000 -0.1512133458
C   C76       1.0  0.70030  0.51850  0.67280  1.0000 0.1023352831
C   C77       1.0  0.58720  0.53300  0.64780  1.0000 -0.1596772265
C   C78       1.0  0.51130  0.52510  0.57890  1.0000 -0.1512133458
C   C79       1.0  0.77900  0.52740  0.74590  1.0000 -0.1878778906
C   C80       1.0  0.98690  0.52300  0.74940  1.0000 0.0655039235
C   C81       1.0  0.01980  0.47350  0.79330  1.0000 0.128680241
C   C82       1.0  0.81500  0.31063  0.02030  1.0000 -0.4018858091
C   C83       1.0  0.90870  0.30892  0.99440  1.0000 0.196200615
C   C84       1.0  0.89180  0.30281  0.92490  1.0000 -0.0187636997
C   C85       1.0  0.77430  0.30019  0.87860  1.0000 -0.1997629197
C   C86       1.0  0.70140  0.30813  0.97330  1.0000 0.1904385789
C   C87       1.0  0.67890  0.30366  0.90250  1.0000 -0.029949867
C   C88       1.0  0.62630  0.31350  0.06790  1.0000 -0.2255387695
C   C89       1.0  0.04420  0.32950  0.10260  1.0000 -0.058595037
C   C90       1.0  0.16760  0.34280  0.12880  1.0000 0.0803587674
C   C91       1.0  0.25930  0.32090  0.14870  1.0000 -0.1404236177
C   C92       1.0  0.37840  0.33540  0.17440  1.0000 -0.130558226
C   C93       1.0  0.39200  0.36950  0.17320  1.0000 -0.0187636997
C   C94       1.0  0.29800  0.39070  0.15020  1.0000 -0.130558226
C   C95       1.0  0.18680  0.37780  0.13010  1.0000 -0.1404236177
C   C96       1.0  0.49090  0.39620  0.18240  1.0000 0.5472508578
C   C97       1.0  0.55110  0.30160  0.84940  1.0000 -0.0512188987
C   C98       1.0  0.50900  0.26452  0.84080  1.0000 -0.1512133458
C   C99       1.0  0.37620  0.26070  0.80500  1.0000 -0.3895449953
C   C100      1.0  0.53670  0.31973  0.78030  1.0000 -0.009080317
C   C101      1.0  0.51560  0.30356  0.71720  1.0000 -0.1997629197
C   C102      1.0  0.49580  0.32016  0.65330  1.0000 -0.029949867
C   C103      1.0  0.49870  0.35494  0.65500  1.0000 0.178281626
C   C104      1.0  0.52150  0.37312  0.71810  1.0000 -0.3500598425
C   C105      1.0  0.53860  0.35567  0.77920  1.0000 0.1904385789
C   C106      1.0  0.53980  0.40120  0.59160  1.0000 -0.2183156402
C   C107      1.0  0.55570  0.40735  0.84180  1.0000 -0.0727624343
C   C108      1.0  0.59000  0.41967  0.91740  1.0000 0.0901223362
C   C109      1.0  0.56280  0.45310  0.92900  1.0000 -0.1512133458
C   C110      1.0  0.60040  0.46590  0.99710  1.0000 -0.0895887928
C   C111      1.0  0.66010  0.44670  0.05270  1.0000 -0.029949867
C   C112      1.0  0.68390  0.41370  0.04140  1.0000 -0.1093791951
C   C113      1.0  0.64780  0.40061  0.97360  1.0000 -0.1404236177
C   C114      1.0  0.69700  0.46150  0.12420  1.0000 0.5683815314
C   C115      1.0  0.47000  0.30153  0.58280  1.0000 -0.058595037
C   C116      1.0  0.43380  0.26399  0.58440  1.0000 -0.1596772265
C   C117      1.0  0.39290  0.24600  0.51360  1.0000 -0.3895449953
C   C118      1.0  0.57190  0.30573  0.55690  1.0000 -0.009080317
C   C119      1.0  0.55330  0.31272  0.48540  1.0000 0.2100997178
C   C120      1.0  0.64540  0.31576  0.46070  1.0000 -0.4057170095
C   C121      1.0  0.76170  0.31192  0.50850  1.0000 0.1904385789
C   C122      1.0  0.78500  0.30655  0.58000  1.0000 -0.029949867
C   C123      1.0  0.68900  0.30276  0.60180  1.0000 -0.1878778906
C   C124      1.0  0.83820  0.31930  0.41370  1.0000 -0.2183156402
C   C125      1.0  0.41570  0.33250  0.37640  1.0000 -0.058595037
C   C126      1.0  0.28630  0.34110  0.34790  1.0000 0.0803587674
C   C127      1.0  0.20080  0.31830  0.33120  1.0000 -0.1512133458
C   C128      1.0  0.08490  0.32610  0.30440  1.0000 -0.1093791951
C   C129      1.0  0.04040  0.35660  0.28850  1.0000 -0.009080317
C   C130      1.0  0.12020  0.38140  0.31250  1.0000 -0.1596772265
C   C131      1.0  0.25510  0.37430  0.33700  1.0000 -0.1596772265
C   C132      1.0  0.91250  0.37020  0.25530  1.0000 0.5367987959
C   C133      1.0  0.90870  0.30522  0.63030  1.0000 -0.058595037
C   C134      1.0  0.95620  0.26780  0.63490  1.0000 -0.1404236177
C   C135      1.0  0.09100  0.26560  0.67060  1.0000 -0.3895449953
C   C136      1.0  0.92590  0.32174  0.70010  1.0000 -0.009080317
C   C137      1.0  0.94620  0.30393  0.76250  1.0000 -0.2080784121
C   C138      1.0  0.96620  0.31868  0.82920  1.0000 -0.029949867
C   C139      1.0  0.95970  0.35462  0.82890  1.0000 0.1904385789
C   C140      1.0  0.93700  0.37333  0.76860  1.0000 -0.3500598425
C   C141      1.0  0.92240  0.35675  0.70540  1.0000 0.1904385789
C   C142      1.0  0.91480  0.39710  0.89870  1.0000 -0.2080784121
C   C143      1.0  0.90470  0.41049  0.64330  1.0000 -0.0759463674
C   C144      1.0  0.87260  0.42280  0.56800  1.0000 0.0803587674
C   C145      1.0  0.92290  0.45021  0.55010  1.0000 -0.1512133458
C   C146      1.0  0.89300  0.46156  0.48100  1.0000 -0.104282053
C   C147      1.0  0.81050  0.44275  0.42900  1.0000 -0.0187636997
C   C148      1.0  0.75910  0.41430  0.44740  1.0000 -0.1093791951
C   C149      1.0  0.78960  0.40423  0.51520  1.0000 -0.1404236177
C   C150      1.0  0.77330  0.45260  0.35070  1.0000 0.5683815314
C   C151      1.0  0.99020  0.29936  0.89660  1.0000 -0.058595037
C   C152      1.0  0.02680  0.26145  0.89340  1.0000 -0.1512133458
C   C153      1.0  0.06930  0.24360  0.96350  1.0000 -0.3895449953
C   C154      1.0  0.45960  0.49550  0.46540  1.0000 0.0637320679
C   C155      1.0  0.34450  0.50740  0.44040  1.0000 -0.1688082891
C   C156      1.0  0.26880  0.50040  0.37400  1.0000 -0.1512133458
C   C157      1.0  0.29970  0.48150  0.32720  1.0000 0.1023352831
C   C158      1.0  0.41280  0.46700  0.35220  1.0000 -0.1596772265
C   C159      1.0  0.48870  0.47490  0.42110  1.0000 -0.1512133458
C   C160      1.0  0.22100  0.47260  0.25410  1.0000 -0.1878778906
C   C161      1.0  0.01310  0.47700  0.25060  1.0000 0.0637320679
C   C162      1.0  0.98020  0.52650  0.20670  1.0000 0.128680241
C   C163      1.0  0.81500  0.18937  0.52030  1.0000 -0.4018858091
C   C164      1.0  0.90870  0.19108  0.49440  1.0000 0.196200615
C   C165      1.0  0.89180  0.19719  0.42490  1.0000 -0.0187636997
C   C166      1.0  0.77430  0.19981  0.37860  1.0000 -0.1997629197
C   C167      1.0  0.70140  0.19187  0.47330  1.0000 0.1904385789
C   C168      1.0  0.67890  0.19634  0.40250  1.0000 -0.029949867
C   C169      1.0  0.62630  0.18650  0.56790  1.0000 -0.2255387695
C   C170      1.0  0.04420  0.17050  0.60260  1.0000 -0.058595037
C   C171      1.0  0.16760  0.15720  0.62880  1.0000 0.0803587674
C   C172      1.0  0.25930  0.17910  0.64870  1.0000 -0.1404236177
C   C173      1.0  0.37840  0.16460  0.67440  1.0000 -0.130558226
C   C174      1.0  0.39200  0.13050  0.67320  1.0000 -0.0187636997
C   C175      1.0  0.29800  0.10930  0.65020  1.0000 -0.130558226
C   C176      1.0  0.18680  0.12220  0.63010  1.0000 -0.1512133458
C   C177      1.0  0.49090  0.10380  0.68240  1.0000 0.5472508578
C   C178      1.0  0.55110  0.19840  0.34940  1.0000 -0.0512188987
C   C179      1.0  0.50900  0.23548  0.34080  1.0000 -0.1512133458
C   C180      1.0  0.37620  0.23930  0.30500  1.0000 -0.3895449953
C   C181      1.0  0.53670  0.18027  0.28030  1.0000 -0.009080317
C   C182      1.0  0.51560  0.19644  0.21720  1.0000 -0.1997629197
C   C183      1.0  0.49580  0.17984  0.15330  1.0000 -0.029949867
C   C184      1.0  0.49870  0.14506  0.15500  1.0000 0.178281626
C   C185      1.0  0.52150  0.12688  0.21810  1.0000 -0.3500598425
C   C186      1.0  0.53860  0.14433  0.27920  1.0000 0.1904385789
C   C187      1.0  0.53980  0.09880  0.09160  1.0000 -0.2183156402
C   C188      1.0  0.55570  0.09265  0.34180  1.0000 -0.0727624343
C   C189      1.0  0.59000  0.08033  0.41740  1.0000 0.0901223362
C   C190      1.0  0.56280  0.04690  0.42900  1.0000 -0.1512133458
C   C191      1.0  0.60040  0.03410  0.49710  1.0000 -0.0895887928
C   C192      1.0  0.66010  0.05330  0.55270  1.0000 -0.029949867
C   C193      1.0  0.68390  0.08630  0.54140  1.0000 -0.1093791951
C   C194      1.0  0.64780  0.09939  0.47360  1.0000 -0.1404236177
C   C195      1.0  0.69700  0.03850  0.62420  1.0000 0.5683815314
C   C196      1.0  0.47000  0.19847  0.08280  1.0000 -0.058595037
C   C197      1.0  0.43380  0.23601  0.08440  1.0000 -0.1596772265
C   C198      1.0  0.39290  0.25400  0.01360  1.0000 -0.3895449953
C   C199      1.0  0.57190  0.19427  0.05690  1.0000 -0.009080317
C   C200      1.0  0.55330  0.18728  0.98540  1.0000 0.2100997178
C   C201      1.0  0.64540  0.18424  0.96070  1.0000 -0.4057170095
C   C202      1.0  0.76170  0.18808  0.00850  1.0000 0.1904385789
C   C203      1.0  0.78500  0.19345  0.08000  1.0000 -0.029949867
C   C204      1.0  0.68900  0.19724  0.10180  1.0000 -0.1997629197
C   C205      1.0  0.83820  0.18070  0.91370  1.0000 -0.2183156402
C   C206      1.0  0.41570  0.16750  0.87640  1.0000 -0.058595037
C   C207      1.0  0.28630  0.15890  0.84790  1.0000 0.0803587674
C   C208      1.0  0.20080  0.18170  0.83120  1.0000 -0.1512133458
C   C209      1.0  0.08490  0.17390  0.80440  1.0000 -0.1093791951
C   C210      1.0  0.04040  0.14340  0.78850  1.0000 -0.009080317
C   C211      1.0  0.12020  0.11860  0.81250  1.0000 -0.1596772265
C   C212      1.0  0.25510  0.12570  0.83700  1.0000 -0.1596772265
C   C213      1.0  0.91250  0.12980  0.75530  1.0000 0.5367987959
C   C214      1.0  0.90870  0.19478  0.13030  1.0000 -0.058595037
C   C215      1.0  0.95620  0.23220  0.13490  1.0000 -0.1404236177
C   C216      1.0  0.09100  0.23440  0.17060  1.0000 -0.3895449953
C   C217      1.0  0.92590  0.17826  0.20010  1.0000 -0.009080317
C   C218      1.0  0.94620  0.19607  0.26250  1.0000 -0.2080784121
C   C219      1.0  0.96620  0.18132  0.32920  1.0000 -0.029949867
C   C220      1.0  0.95970  0.14538  0.32890  1.0000 0.1904385789
C   C221      1.0  0.93700  0.12667  0.26860  1.0000 -0.3500598425
C   C222      1.0  0.92240  0.14325  0.20540  1.0000 0.1904385789
C   C223      1.0  0.91480  0.10290  0.39870  1.0000 -0.2080784121
C   C224      1.0  0.90470  0.08951  0.14330  1.0000 -0.0727624343
C   C225      1.0  0.87260  0.07720  0.06800  1.0000 0.0803587674
C   C226      1.0  0.92290  0.04979  0.05010  1.0000 -0.1512133458
C   C227      1.0  0.89300  0.03844  0.98100  1.0000 -0.104282053
C   C228      1.0  0.81050  0.05725  0.92900  1.0000 -0.0187636997
C   C229      1.0  0.75910  0.08570  0.94740  1.0000 -0.1093791951
C   C230      1.0  0.78960  0.09577  0.01520  1.0000 -0.1404236177
C   C231      1.0  0.77330  0.04740  0.85070  1.0000 0.5683815314
C   C232      1.0  0.99020  0.20064  0.39660  1.0000 -0.058595037
C   C233      1.0  0.02680  0.23855  0.39340  1.0000 -0.1512133458
C   C234      1.0  0.06930  0.25640  0.46350  1.0000 -0.3895449953
C   C235      1.0  0.45960  0.00450  0.96540  1.0000 0.0637320679
C   C236      1.0  0.34450  0.99260  0.94040  1.0000 -0.1688082891
C   C237      1.0  0.26880  0.99960  0.87400  1.0000 -0.1512133458
C   C238      1.0  0.29970  0.01850  0.82720  1.0000 0.1023352831
C   C239      1.0  0.41280  0.03300  0.85220  1.0000 -0.1596772265
C   C240      1.0  0.48870  0.02510  0.92110  1.0000 -0.1512133458
C   C241      1.0  0.22100  0.02740  0.75410  1.0000 -0.1878778906
C   C242      1.0  0.01310  0.02300  0.75060  1.0000 0.0637320679
C   C243      1.0  0.98020  0.97350  0.70670  1.0000 0.128680241
C   C244      1.0  0.18500  0.81063  0.47970  1.0000 -0.4018858091
C   C245      1.0  0.09130  0.80892  0.50560  1.0000 0.196200615
C   C246      1.0  0.10820  0.80281  0.57510  1.0000 -0.0187636997
C   C247      1.0  0.22570  0.80019  0.62140  1.0000 -0.1997629197
C   C248      1.0  0.29860  0.80813  0.52670  1.0000 0.1904385789
C   C249      1.0  0.32110  0.80366  0.59750  1.0000 -0.029949867
C   C250      1.0  0.37370  0.81350  0.43210  1.0000 -0.2255387695
C   C251      1.0  0.95580  0.82950  0.39740  1.0000 -0.058595037
C   C252      1.0  0.83240  0.84280  0.37120  1.0000 0.0803587674
C   C253      1.0  0.74070  0.82090  0.35130  1.0000 -0.1404236177
C   C254      1.0  0.62160  0.83540  0.32560  1.0000 -0.130558226
C   C255      1.0  0.60800  0.86950  0.32680  1.0000 -0.0187636997
C   C256      1.0  0.70200  0.89070  0.34980  1.0000 -0.130558226
C   C257      1.0  0.81320  0.87780  0.36990  1.0000 -0.1512133458
C   C258      1.0  0.50910  0.89620  0.31760  1.0000 0.5472508578
C   C259      1.0  0.44890  0.80160  0.65060  1.0000 -0.0512188987
C   C260      1.0  0.49100  0.76452  0.65920  1.0000 -0.1512133458
C   C261      1.0  0.62380  0.76070  0.69500  1.0000 -0.3895449953
C   C262      1.0  0.46330  0.81973  0.71970  1.0000 -0.009080317
C   C263      1.0  0.48440  0.80356  0.78280  1.0000 -0.1997629197
C   C264      1.0  0.50420  0.82016  0.84670  1.0000 -0.029949867
C   C265      1.0  0.50130  0.85494  0.84500  1.0000 0.178281626
C   C266      1.0  0.47850  0.87312  0.78190  1.0000 -0.3500598425
C   C267      1.0  0.46140  0.85567  0.72080  1.0000 0.1904385789
C   C268      1.0  0.46020  0.90120  0.90840  1.0000 -0.2183156402
C   C269      1.0  0.44430  0.90735  0.65820  1.0000 -0.0727624343
C   C270      1.0  0.41000  0.91967  0.58260  1.0000 0.0901223362
C   C271      1.0  0.43720  0.95310  0.57100  1.0000 -0.1512133458
C   C272      1.0  0.39960  0.96590  0.50290  1.0000 -0.0895887928
C   C273      1.0  0.33990  0.94670  0.44730  1.0000 -0.029949867
C   C274      1.0  0.31610  0.91370  0.45860  1.0000 -0.1093791951
C   C275      1.0  0.35220  0.90061  0.52640  1.0000 -0.1404236177
C   C276      1.0  0.30300  0.96150  0.37580  1.0000 0.5683815314
C   C277      1.0  0.53000  0.80153  0.91720  1.0000 -0.058595037
C   C278      1.0  0.56620  0.76399  0.91560  1.0000 -0.1596772265
C   C279      1.0  0.60710  0.74600  0.98640  1.0000 -0.3895449953
C   C280      1.0  0.42810  0.80573  0.94310  1.0000 -0.009080317
C   C281      1.0  0.44670  0.81272  0.01460  1.0000 0.2100997178
C   C282      1.0  0.35460  0.81576  0.03930  1.0000 -0.4057170095
C   C283      1.0  0.23830  0.81192  0.99150  1.0000 0.1904385789
C   C284      1.0  0.21500  0.80655  0.92000  1.0000 -0.029949867
C   C285      1.0  0.31100  0.80276  0.89820  1.0000 -0.1997629197
C   C286      1.0  0.16180  0.81930  0.08630  1.0000 -0.2183156402
C   C287      1.0  0.58430  0.83250  0.12360  1.0000 -0.058595037
C   C288      1.0  0.71370  0.84110  0.15210  1.0000 0.0803587674
C   C289      1.0  0.79920  0.81830  0.16880  1.0000 -0.1512133458
C   C290      1.0  0.91510  0.82610  0.19560  1.0000 -0.1093791951
C   C291      1.0  0.95960  0.85660  0.21150  1.0000 -0.009080317
C   C292      1.0  0.87980  0.88140  0.18750  1.0000 -0.1596772265
C   C293      1.0  0.74490  0.87430  0.16300  1.0000 -0.1596772265
C   C294      1.0  0.08750  0.87020  0.24470  1.0000 0.5367987959
C   C295      1.0  0.09130  0.80522  0.86970  1.0000 -0.058595037
C   C296      1.0  0.04380  0.76780  0.86510  1.0000 -0.1404236177
C   C297      1.0  0.90900  0.76560  0.82940  1.0000 -0.3895449953
C   C298      1.0  0.07410  0.82174  0.79990  1.0000 -0.009080317
C   C299      1.0  0.05380  0.80393  0.73750  1.0000 -0.2080784121
C   C300      1.0  0.03380  0.81868  0.67080  1.0000 -0.029949867
C   C301      1.0  0.04030  0.85462  0.67110  1.0000 0.1904385789
C   C302      1.0  0.06300  0.87333  0.73140  1.0000 -0.3500598425
C   C303      1.0  0.07760  0.85675  0.79460  1.0000 0.1904385789
C   C304      1.0  0.08520  0.89710  0.60130  1.0000 -0.2080784121
C   C305      1.0  0.09530  0.91049  0.85670  1.0000 -0.0759463674
C   C306      1.0  0.12740  0.92280  0.93200  1.0000 0.0803587674
C   C307      1.0  0.07710  0.95021  0.94990  1.0000 -0.1512133458
C   C308      1.0  0.10700  0.96156  0.01900  1.0000 -0.104282053
C   C309      1.0  0.18950  0.94275  0.07100  1.0000 -0.0187636997
C   C310      1.0  0.24090  0.91430  0.05260  1.0000 -0.1093791951
C   C311      1.0  0.21040  0.90423  0.98480  1.0000 -0.1512133458
C   C312      1.0  0.22670  0.95260  0.14930  1.0000 0.5683815314
C   C313      1.0  0.00980  0.79936  0.60340  1.0000 -0.058595037
C   C314      1.0  0.97320  0.76145  0.60660  1.0000 -0.1512133458
C   C315      1.0  0.93070  0.74360  0.53650  1.0000 -0.3895449953
C   C316      1.0  0.54040  0.99550  0.03460  1.0000 0.0637320679
C   C317      1.0  0.65550  0.00740  0.05960  1.0000 -0.1596772265
C   C318      1.0  0.73120  0.00040  0.12600  1.0000 -0.1512133458
C   C319      1.0  0.70030  0.98150  0.17280  1.0000 0.1023352831
C   C320      1.0  0.58720  0.96700  0.14780  1.0000 -0.1596772265
C   C321      1.0  0.51130  0.97490  0.07890  1.0000 -0.1512133458
C   C322      1.0  0.77900  0.97260  0.24590  1.0000 -0.1878778906
C   C323      1.0  0.98690  0.97700  0.24940  1.0000 0.0637320679
C   C324      1.0  0.01980  0.02650  0.29330  1.0000 0.128680241
N   N1        1.0  0.89280  0.51150  0.76330  1.0000 0.1600752531
N   N2        1.0  0.91550  0.47930  0.79120  1.0000 -0.2871994467
N   N3        1.0  0.06990  0.49901  0.76710  1.0000 -0.332415493
N   N4        1.0  0.10720  0.48850  0.23670  1.0000 0.1600752531
N   N5        1.0  0.08450  0.52070  0.20880  1.0000 -0.2871994467
N   N6        1.0  0.93010  0.50099  0.23290  1.0000 -0.332415493
N   N7        1.0  0.10720  0.01150  0.73670  1.0000 0.1600752531
N   N8        1.0  0.08450  0.97930  0.70880  1.0000 -0.2871994467
N   N9        1.0  0.93010  0.99901  0.73290  1.0000 -0.332415493
N   N10       1.0  0.89280  0.98850  0.26330  1.0000 0.1600752531
N   N11       1.0  0.91550  0.02070  0.29120  1.0000 -0.2871994467
N   N12       1.0  0.06990  0.00099  0.26710  1.0000 -0.332415493
O   O1        1.0  0.97620  0.68692  0.96180  1.0000 -0.1688082891
O   O2        1.0  0.39500  0.69004  0.00590  1.0000 -0.1512133458
O   O3        1.0  0.42500  0.61550  0.81200  1.0000 -0.3738261105
O   O4        1.0  0.52070  0.56630  0.81780  1.0000 -0.6684367748
O   O5        1.0  0.01670  0.63018  0.10610  1.0000 -0.130558226
O   O6        1.0  0.09840  0.62531  0.35720  1.0000 -0.1759972142
O   O7        1.0  0.17990  0.52114  0.66310  1.0000 -0.5368868502
O   O8        1.0  0.29340  0.56690  0.69170  1.0000 -0.5141326876
O   O9        1.0  0.14250  0.68500  0.51390  1.0000 -0.1512133458
O   O10       1.0  0.56050  0.68347  0.55770  1.0000 -0.1596772265
O   O11       1.0  0.10160  0.60620  0.70520  1.0000 -0.5201954933
O   O12       1.0  0.15210  0.65430  0.76070  1.0000 -0.5201954933
O   O13       1.0  0.52320  0.62784  0.40900  1.0000 -0.1404236177
O   O14       1.0  0.44170  0.62852  0.15710  1.0000 -0.1688082891
O   O15       1.0  0.31700  0.50690  0.86660  1.0000 -0.4989958757
O   O16       1.0  0.25120  0.55544  0.82500  1.0000 -0.4989958757
O   O17       1.0  0.02380  0.31308  0.03820  1.0000 -0.1688082891
O   O18       1.0  0.60500  0.30996  0.99410  1.0000 -0.1512133458
O   O19       1.0  0.57500  0.38450  0.18800  1.0000 -0.3738261105
O   O20       1.0  0.47930  0.43370  0.18220  1.0000 -0.6684367748
O   O21       1.0  0.98330  0.36982  0.89390  1.0000 -0.130558226
O   O22       1.0  0.90160  0.37469  0.64280  1.0000 -0.1759972142
O   O23       1.0  0.82010  0.47886  0.33690  1.0000 -0.5368868502
O   O24       1.0  0.70660  0.43310  0.30830  1.0000 -0.5141326876
O   O25       1.0  0.85750  0.31500  0.48610  1.0000 -0.1512133458
O   O26       1.0  0.43950  0.31653  0.44230  1.0000 -0.1596772265
O   O27       1.0  0.89840  0.39380  0.29480  1.0000 -0.5201954933
O   O28       1.0  0.84790  0.34570  0.23930  1.0000 -0.5201954933
O   O29       1.0  0.47680  0.37216  0.59100  1.0000 -0.1404236177
O   O30       1.0  0.55830  0.37148  0.84290  1.0000 -0.1688082891
O   O31       1.0  0.68300  0.49310  0.13340  1.0000 -0.4989958757
O   O32       1.0  0.74880  0.44456  0.17500  1.0000 -0.4989958757
O   O33       1.0  0.02380  0.18692  0.53820  1.0000 -0.1688082891
O   O34       1.0  0.60500  0.19004  0.49410  1.0000 -0.1512133458
O   O35       1.0  0.57500  0.11550  0.68800  1.0000 -0.3738261105
O   O36       1.0  0.47930  0.06630  0.68220  1.0000 -0.6684367748
O   O37       1.0  0.98330  0.13018  0.39390  1.0000 -0.130558226
O   O38       1.0  0.90160  0.12531  0.14280  1.0000 -0.1759972142
O   O39       1.0  0.82010  0.02114  0.83690  1.0000 -0.5368868502
O   O40       1.0  0.70660  0.06690  0.80830  1.0000 -0.5141326876
O   O41       1.0  0.85750  0.18500  0.98610  1.0000 -0.1512133458
O   O42       1.0  0.43950  0.18347  0.94230  1.0000 -0.1596772265
O   O43       1.0  0.89840  0.10620  0.79480  1.0000 -0.5201954933
O   O44       1.0  0.84790  0.15430  0.73930  1.0000 -0.5201954933
O   O45       1.0  0.47680  0.12784  0.09100  1.0000 -0.1404236177
O   O46       1.0  0.55830  0.12852  0.34290  1.0000 -0.1688082891
O   O47       1.0  0.68300  0.00690  0.63340  1.0000 -0.4989958757
O   O48       1.0  0.74880  0.05544  0.67500  1.0000 -0.4989958757
O   O49       1.0  0.97620  0.81308  0.46180  1.0000 -0.1688082891
O   O50       1.0  0.39500  0.80996  0.50590  1.0000 -0.1512133458
O   O51       1.0  0.42500  0.88450  0.31200  1.0000 -0.3738261105
O   O52       1.0  0.52070  0.93370  0.31780  1.0000 -0.6684367748
O   O53       1.0  0.01670  0.86982  0.60610  1.0000 -0.130558226
O   O54       1.0  0.09840  0.87469  0.85720  1.0000 -0.1759972142
O   O55       1.0  0.17990  0.97886  0.16310  1.0000 -0.5368868502
O   O56       1.0  0.29340  0.93310  0.19170  1.0000 -0.5141326876
O   O57       1.0  0.14250  0.81500  0.01390  1.0000 -0.1512133458
O   O58       1.0  0.56050  0.81653  0.05770  1.0000 -0.1596772265
O   O59       1.0  0.10160  0.89380  0.20520  1.0000 -0.5201954933
O   O60       1.0  0.15210  0.84570  0.26070  1.0000 -0.5201954933
O   O61       1.0  0.52320  0.87216  0.90900  1.0000 -0.1404236177
O   O62       1.0  0.44170  0.87148  0.65710  1.0000 -0.1688082891
O   O63       1.0  0.31700  0.99310  0.36660  1.0000 -0.4989958757
O   O64       1.0  0.25120  0.94456  0.32500  1.0000 -0.4989958757
