# DDEC6 charges by PACMAN v1.1 (https://github.com/mtap-research/PACMAN-charge/)
data_2022[Cd][nan]3[ASR]9
_chemical_formula_sum              "Cd8 H40 C84 N4 O34"
_cell_length_a       13.612
_cell_length_b       15.365
_cell_length_c       18.167
_cell_angle_alpha    111.586
_cell_angle_beta     95.079
_cell_angle_gamma    92.129

_symmetry_space_group_name_H-M    "P 1"
_symmetry_Int_Tables_number       1

loop_
  _symmetry_equiv_pos_as_xyz
  'x, y, z'

loop_
  _atom_site_type_symbol
  _atom_site_label
  _atom_site_symmetry_multiplicity
  _atom_site_fract_x
  _atom_site_fract_y
  _atom_site_fract_z
  _atom_site_occupancy
  _atom_site_charge
Cd  Cd1       1.0  0.94459  0.27515  0.75279  1.0000 1.0392750301
Cd  Cd2       1.0  0.98361  0.05371  0.60585  1.0000 0.9996303715
Cd  Cd3       1.0  0.45491  0.40062  0.29854  1.0000 0.9586508669
Cd  Cd4       1.0  0.58132  0.23558  0.13606  1.0000 0.9522931971
Cd  Cd5       1.0  0.05541  0.72485  0.24721  1.0000 1.0392750301
Cd  Cd6       1.0  0.01639  0.94629  0.39415  1.0000 0.9996303715
Cd  Cd7       1.0  0.54509  0.59938  0.70146  1.0000 0.9586508669
Cd  Cd8       1.0  0.41868  0.76442  0.86394  1.0000 0.9522931971
H   H1        1.0  0.47810  0.38350  0.14680  1.0000 0.3711769678
H   H2        1.0  0.56820  0.42390  0.19020  1.0000 0.3756239064
H   H3        1.0  0.79680  0.37830  0.57250  1.0000 0.1207541473
H   H4        1.0  0.36260  0.88270  0.03600  1.0000 0.110774561
H   H5        1.0  0.36840  0.96200  0.85630  1.0000 0.110774561
H   H6        1.0  0.31970  0.34450  0.92870  1.0000 0.1296363681
H   H7        1.0  0.19520  0.29310  0.82290  1.0000 0.1207541473
H   H8        1.0  0.20090  0.03460  0.82430  1.0000 0.1207541473
H   H9        1.0  0.28020  0.13440  0.06010  1.0000 0.1296363681
H   H10       1.0  0.21770  0.89530  0.10810  1.0000 0.1207541473
H   H11       1.0  0.22060  0.04360  0.33990  1.0000 0.1296363681
H   H12       1.0  0.30640  0.16690  0.32540  1.0000 0.110774561
H   H13       1.0  0.61630  0.68320  0.57260  1.0000 0.110774561
H   H14       1.0  0.62370  0.43000  0.57320  1.0000 0.110774561
H   H15       1.0  0.74850  0.49140  0.40600  1.0000 0.1370711945
H   H16       1.0  0.79780  0.75800  0.54450  1.0000 0.1207541473
H   H17       1.0  0.77150  0.84880  0.36510  1.0000 0.1207541473
H   H18       1.0  0.67120  0.71840  0.28980  1.0000 0.1207541473
H   H19       1.0  0.76780  0.15630  0.31760  1.0000 0.1207541473
H   H20       1.0  0.85750  0.12760  0.41790  1.0000 0.1296363681
H   H21       1.0  0.52190  0.61650  0.85320  1.0000 0.3711769678
H   H22       1.0  0.43180  0.57610  0.80980  1.0000 0.3756239064
H   H23       1.0  0.20320  0.62170  0.42750  1.0000 0.1207541473
H   H24       1.0  0.63740  0.11730  0.96400  1.0000 0.110774561
H   H25       1.0  0.63160  0.03800  0.14370  1.0000 0.110774561
H   H26       1.0  0.68030  0.65550  0.07130  1.0000 0.1296363681
H   H27       1.0  0.80480  0.70690  0.17710  1.0000 0.1207541473
H   H28       1.0  0.79910  0.96540  0.17570  1.0000 0.1207541473
H   H29       1.0  0.71980  0.86560  0.93990  1.0000 0.1296363681
H   H30       1.0  0.78230  0.10470  0.89190  1.0000 0.1207541473
H   H31       1.0  0.77940  0.95640  0.66010  1.0000 0.1296363681
H   H32       1.0  0.69360  0.83310  0.67460  1.0000 0.110774561
H   H33       1.0  0.38370  0.31680  0.42740  1.0000 0.110774561
H   H34       1.0  0.37630  0.57000  0.42680  1.0000 0.110774561
H   H35       1.0  0.25150  0.50860  0.59400  1.0000 0.1370711945
H   H36       1.0  0.20220  0.24200  0.45550  1.0000 0.1207541473
H   H37       1.0  0.22850  0.15120  0.63490  1.0000 0.1207541473
H   H38       1.0  0.32880  0.28160  0.71020  1.0000 0.1207541473
H   H39       1.0  0.23220  0.84370  0.68240  1.0000 0.1207541473
H   H40       1.0  0.14250  0.87240  0.58210  1.0000 0.1296363681
C   C1        1.0  0.88970  0.23300  0.57370  1.0000 0.5972792305
C   C2        1.0  0.83510  0.24950  0.50690  1.0000 -0.0394676902
C   C3        1.0  0.78950  0.33290  0.52110  1.0000 -0.1520169628
C   C4        1.0  0.73310  0.35070  0.46070  1.0000 0.0486618756
C   C5        1.0  0.72460  0.28380  0.38410  1.0000 -0.0581610628
C   C6        1.0  0.65570  0.29160  0.31730  1.0000 0.5885090925
C   C7        1.0  0.38710  0.18410  0.20840  1.0000 0.5885090925
C   C8        1.0  0.31840  0.10330  0.20750  1.0000 -0.0581610628
C   C9        1.0  0.29080  0.02140  0.14210  1.0000 0.0486618756
C   C10       1.0  0.31760  0.01000  0.06090  1.0000 0.0418098032
C   C11       1.0  0.35150  0.92820  0.01440  1.0000 -0.0108592478
C   C12       1.0  0.35520  0.97440  0.90840  1.0000 0.0266622476
C   C13       1.0  0.32060  0.06030  0.95110  1.0000 0.0486618756
C   C14       1.0  0.29480  0.12770  0.91220  1.0000 0.0555580504
C   C15       1.0  0.32940  0.22310  0.94430  1.0000 -0.0581610628
C   C16       1.0  0.40560  0.26350  0.01560  1.0000 0.5707911747
C   C17       1.0  0.29450  0.28210  0.90880  1.0000 -0.0925579086
C   C18       1.0  0.22210  0.25120  0.84370  1.0000 -0.1216883988
C   C19       1.0  0.19100  0.15640  0.81070  1.0000 -0.0108592478
C   C20       1.0  0.11310  0.12230  0.73970  1.0000 0.5613113441
C   C21       1.0  0.22500  0.09730  0.84560  1.0000 -0.1520169628
C   C22       1.0  0.30250  0.07720  0.02930  1.0000 -0.125859616
C   C23       1.0  0.23580  0.95040  0.15190  1.0000 -0.1520169628
C   C24       1.0  0.20650  0.95820  0.22540  1.0000 -0.0108592478
C   C25       1.0  0.14760  0.87940  0.23570  1.0000 0.5613113441
C   C26       1.0  0.23640  0.03850  0.28970  1.0000 -0.0981556714
C   C27       1.0  0.28960  0.11160  0.28150  1.0000 -0.1216883988
C   C28       1.0  0.60500  0.57180  0.31810  1.0000 0.5707911747
C   C29       1.0  0.67260  0.65820  0.37130  1.0000 -0.0522785388
C   C30       1.0  0.70980  0.66980  0.44860  1.0000 0.0486618756
C   C31       1.0  0.68470  0.59700  0.48240  1.0000 0.0486618756
C   C32       1.0  0.63400  0.62190  0.54940  1.0000 0.0056505016
C   C33       1.0  0.63980  0.47280  0.55010  1.0000 0.0170807684
C   C34       1.0  0.69350  0.44320  0.48510  1.0000 0.0486618756
C   C35       1.0  0.71430  0.50850  0.45070  1.0000 -0.1216883988
C   C36       1.0  0.77310  0.74880  0.49260  1.0000 -0.1588471808
C   C37       1.0  0.79990  0.81400  0.46040  1.0000 -0.0108592478
C   C38       1.0  0.87140  0.89590  0.50620  1.0000 0.5707911747
C   C39       1.0  0.75800  0.80300  0.38560  1.0000 -0.110152328
C   C40       1.0  0.69690  0.72570  0.34110  1.0000 -0.0981556714
C   C41       1.0  0.77270  0.20070  0.36930  1.0000 -0.110152328
C   C42       1.0  0.82660  0.18330  0.42910  1.0000 -0.0925579086
C   C43       1.0  0.11030  0.76700  0.42630  1.0000 0.5972792305
C   C44       1.0  0.16490  0.75050  0.49310  1.0000 -0.0394676902
C   C45       1.0  0.21050  0.66710  0.47890  1.0000 -0.1520169628
C   C46       1.0  0.26690  0.64930  0.53930  1.0000 0.0486618756
C   C47       1.0  0.27540  0.71620  0.61590  1.0000 -0.0581610628
C   C48       1.0  0.34430  0.70840  0.68270  1.0000 0.5885090925
C   C49       1.0  0.61290  0.81590  0.79160  1.0000 0.5885090925
C   C50       1.0  0.68160  0.89670  0.79250  1.0000 -0.0581610628
C   C51       1.0  0.70920  0.97860  0.85790  1.0000 0.0486618756
C   C52       1.0  0.68240  0.99000  0.93910  1.0000 0.0418098032
C   C53       1.0  0.64850  0.07180  0.98560  1.0000 -0.0108592478
C   C54       1.0  0.64480  0.02560  0.09160  1.0000 0.0266622476
C   C55       1.0  0.67940  0.93970  0.04890  1.0000 0.0486618756
C   C56       1.0  0.70520  0.87230  0.08780  1.0000 0.0555580504
C   C57       1.0  0.67060  0.77690  0.05570  1.0000 -0.0581610628
C   C58       1.0  0.59440  0.73650  0.98440  1.0000 0.5707911747
C   C59       1.0  0.70550  0.71790  0.09120  1.0000 -0.0925579086
C   C60       1.0  0.77790  0.74880  0.15630  1.0000 -0.1216883988
C   C61       1.0  0.80900  0.84360  0.18930  1.0000 -0.0108592478
C   C62       1.0  0.88690  0.87770  0.26030  1.0000 0.5613113441
C   C63       1.0  0.77500  0.90270  0.15440  1.0000 -0.1520169628
C   C64       1.0  0.69750  0.92280  0.97070  1.0000 -0.1216883988
C   C65       1.0  0.76420  0.04960  0.84810  1.0000 -0.1520169628
C   C66       1.0  0.79350  0.04180  0.77460  1.0000 -0.0108592478
C   C67       1.0  0.85240  0.12060  0.76430  1.0000 0.5613113441
C   C68       1.0  0.76360  0.96150  0.71030  1.0000 -0.0981556714
C   C69       1.0  0.71040  0.88840  0.71850  1.0000 -0.1216883988
C   C70       1.0  0.39500  0.42820  0.68190  1.0000 0.5707911747
C   C71       1.0  0.32740  0.34180  0.62870  1.0000 -0.0522785388
C   C72       1.0  0.29020  0.33020  0.55140  1.0000 0.0486618756
C   C73       1.0  0.31530  0.40300  0.51760  1.0000 0.0486618756
C   C74       1.0  0.36600  0.37810  0.45060  1.0000 0.0056505016
C   C75       1.0  0.36020  0.52720  0.44990  1.0000 0.0170807684
C   C76       1.0  0.30650  0.55680  0.51490  1.0000 0.0486618756
C   C77       1.0  0.28570  0.49150  0.54930  1.0000 -0.1216883988
C   C78       1.0  0.22690  0.25120  0.50740  1.0000 -0.1588471808
C   C79       1.0  0.20010  0.18600  0.53960  1.0000 -0.0150416341
C   C80       1.0  0.12860  0.10410  0.49380  1.0000 0.5707911747
C   C81       1.0  0.24200  0.19700  0.61440  1.0000 -0.110152328
C   C82       1.0  0.30310  0.27430  0.65890  1.0000 -0.0981556714
C   C83       1.0  0.22730  0.79930  0.63070  1.0000 -0.110152328
C   C84       1.0  0.17340  0.81670  0.57090  1.0000 -0.0925579086
N   N1        1.0  0.37000  0.90900  0.93900  1.0000 -0.231781663
N   N2        1.0  0.61020  0.55870  0.58130  1.0000 -0.231781663
N   N3        1.0  0.63000  0.09100  0.06100  1.0000 -0.231781663
N   N4        1.0  0.38980  0.44130  0.41870  1.0000 -0.231781663
O   O1        1.0  0.88210  0.28930  0.64370  1.0000 -0.5685075127
O   O2        1.0  0.93800  0.16240  0.55840  1.0000 -0.5494253439
O   O3        1.0  0.58140  0.33420  0.33770  1.0000 -0.5582859121
O   O4        1.0  0.52040  0.38050  0.18180  1.0000 -0.7131269477
O   O5        1.0  0.46200  0.16190  0.17380  1.0000 -0.5494253439
O   O6        1.0  0.36130  0.26360  0.24280  1.0000 -0.5494253439
O   O7        1.0  0.47350  0.21560  0.02280  1.0000 -0.5685075127
O   O8        1.0  0.39610  0.34470  0.06170  1.0000 -0.5245360337
O   O9        1.0  0.07410  0.18190  0.71760  1.0000 -0.5685075127
O   O10       1.0  0.09360  0.03710  0.70460  1.0000 -0.4873431526
O   O11       1.0  0.13830  0.88480  0.30440  1.0000 -0.5582859121
O   O12       1.0  0.11340  0.81130  0.17690  1.0000 -0.5245360337
O   O13       1.0  0.67880  0.25420  0.24850  1.0000 -0.5582859121
O   O14       1.0  0.53820  0.54600  0.34730  1.0000 -0.5582859121
O   O15       1.0  0.62720  0.53600  0.24890  1.0000 -0.5342266761
O   O16       1.0  0.89130  0.95530  0.47530  1.0000 -0.5685075127
O   O17       1.0  0.90760  0.90700  0.57460  1.0000 -0.505200436
O   O18       1.0  0.11790  0.71070  0.35630  1.0000 -0.5582859121
O   O19       1.0  0.06200  0.83760  0.44160  1.0000 -0.5494253439
O   O20       1.0  0.41860  0.66580  0.66230  1.0000 -0.5582859121
O   O21       1.0  0.47960  0.61950  0.81820  1.0000 -0.7131269477
O   O22       1.0  0.53800  0.83810  0.82620  1.0000 -0.5494253439
O   O23       1.0  0.63870  0.73640  0.75720  1.0000 -0.5494253439
O   O24       1.0  0.52650  0.78440  0.97720  1.0000 -0.5685075127
O   O25       1.0  0.60390  0.65530  0.93830  1.0000 -0.5245360337
O   O26       1.0  0.92590  0.81810  0.28240  1.0000 -0.5685075127
O   O27       1.0  0.90640  0.96290  0.29540  1.0000 -0.4873431526
O   O28       1.0  0.86170  0.11520  0.69560  1.0000 -0.5582859121
O   O29       1.0  0.88660  0.18870  0.82310  1.0000 -0.5245360337
O   O30       1.0  0.32120  0.74580  0.75150  1.0000 -0.5582859121
O   O31       1.0  0.46180  0.45400  0.65270  1.0000 -0.5582859121
O   O32       1.0  0.37280  0.46400  0.75110  1.0000 -0.5352209412
O   O33       1.0  0.10870  0.04470  0.52470  1.0000 -0.5685075127
O   O34       1.0  0.09240  0.09300  0.42540  1.0000 -0.5044082008
