# DDEC6 charges by PACMAN v1.1 (https://github.com/mtap-research/PACMAN-charge/)
data_2022[Cr][nan]3[ASR]1
_chemical_formula_sum              "Cr4 H16 C32 O20"
_cell_length_a       12.202
_cell_length_b       12.202
_cell_length_c       12.202
_cell_angle_alpha    103.922
_cell_angle_beta     103.922
_cell_angle_gamma    121.252

_symmetry_space_group_name_H-M    "P 1"
_symmetry_Int_Tables_number       1

loop_
  _symmetry_equiv_pos_as_xyz
  'x, y, z'

loop_
  _atom_site_type_symbol
  _atom_site_label
  _atom_site_symmetry_multiplicity
  _atom_site_fract_x
  _atom_site_fract_y
  _atom_site_fract_z
  _atom_site_occupancy
  _atom_site_charge
Cr  Cr1       1.0  0.19168  0.80832  0.00000  1.0000 1.4505210248
Cr  Cr2       1.0  0.80832  0.19168  0.00000  1.0000 1.4505210248
Cr  Cr3       1.0  0.44168  0.94168  0.88336  1.0000 1.4505210248
Cr  Cr4       1.0  0.05832  0.55832  0.11664  1.0000 1.4505210248
H   H1        1.0  0.47630  0.30390  0.95320  1.0000 0.1307224603
H   H2        1.0  0.35070  0.52310  0.04680  1.0000 0.1307224603
H   H3        1.0  0.77310  0.22630  0.67240  1.0000 0.1307224603
H   H4        1.0  0.55390  0.10070  0.32760  1.0000 0.1307224603
H   H5        1.0  0.77370  0.22690  0.32760  1.0000 0.1307224603
H   H6        1.0  0.89930  0.44610  0.67240  1.0000 0.1307224603
H   H7        1.0  0.47690  0.64930  0.95320  1.0000 0.1307224603
H   H8        1.0  0.69610  0.52370  0.04680  1.0000 0.1307224603
H   H9        1.0  0.43600  0.87500  0.06100  1.0000 0.4094618065
H   H10       1.0  0.81400  0.37500  0.93900  1.0000 0.4094618065
H   H11       1.0  0.62500  0.18600  0.06100  1.0000 0.4094618065
H   H12       1.0  0.12500  0.56400  0.93900  1.0000 0.4094618065
H   H13       1.0  0.13870  0.13870  0.00000  1.0000 0.1448587504
H   H14       1.0  0.38870  0.88870  0.50000  1.0000 0.1448587504
H   H15       1.0  0.11130  0.61130  0.50000  1.0000 0.1448587504
H   H16       1.0  0.86130  0.86130  0.00000  1.0000 0.1448587504
C   C1        1.0  0.29210  0.06310  0.95120  1.0000 0.6234563914
C   C2        1.0  0.30360  0.19406  0.97026  1.0000 -0.0465050341
C   C3        1.0  0.42002  0.31048  0.97026  1.0000 -0.1264931421
C   C4        1.0  0.11190  0.34090  0.04880  1.0000 0.6234563914
C   C5        1.0  0.22380  0.33333  0.02974  1.0000 -0.0465050341
C   C6        1.0  0.34022  0.44976  0.02974  1.0000 -0.1264931421
C   C7        1.0  0.59090  0.04210  0.72900  1.0000 0.6234563914
C   C8        1.0  0.58334  0.05360  0.60954  1.0000 -0.0465050341
C   C9        1.0  0.69976  0.17002  0.60954  1.0000 -0.1264931421
C   C10       1.0  0.31310  0.86190  0.27100  1.0000 0.6234563914
C   C11       1.0  0.44406  0.97380  0.39046  1.0000 -0.0465050341
C   C12       1.0  0.56048  0.09022  0.39046  1.0000 -0.1264931421
C   C13       1.0  0.95790  0.40910  0.27100  1.0000 0.6234563914
C   C14       1.0  0.94640  0.41666  0.39046  1.0000 -0.0465050341
C   C15       1.0  0.82998  0.30024  0.39046  1.0000 -0.1264931421
C   C16       1.0  0.13810  0.68690  0.72900  1.0000 0.6234563914
C   C17       1.0  0.02620  0.55594  0.60954  1.0000 -0.0465050341
C   C18       1.0  0.90978  0.43952  0.60954  1.0000 -0.1264931421
C   C19       1.0  0.65910  0.88810  0.95120  1.0000 0.6234563914
C   C20       1.0  0.66667  0.77620  0.97026  1.0000 -0.0465050341
C   C21       1.0  0.55024  0.65978  0.97026  1.0000 -0.1264931421
C   C22       1.0  0.93690  0.70790  0.04880  1.0000 0.6234563914
C   C23       1.0  0.80594  0.69640  0.02974  1.0000 -0.0465050341
C   C24       1.0  0.68952  0.57998  0.02974  1.0000 -0.1264931421
C   C25       1.0  0.20550  0.20550  0.00000  1.0000 -0.0888316381
C   C26       1.0  0.43833  0.43833  0.00000  1.0000 0.0536814713
C   C27       1.0  0.45550  0.95550  0.50000  1.0000 -0.0888316381
C   C28       1.0  0.68833  0.18833  0.50000  1.0000 0.0536814713
C   C29       1.0  0.04450  0.54450  0.50000  1.0000 -0.0888316381
C   C30       1.0  0.81167  0.31167  0.50000  1.0000 0.0536814713
C   C31       1.0  0.79450  0.79450  0.00000  1.0000 -0.0888316381
C   C32       1.0  0.56167  0.56167  0.00000  1.0000 0.0536814713
O   O1        1.0  0.23030  0.99100  0.00150  1.0000 -0.5324225473
O   O2        1.0  0.34510  0.03470  0.88620  1.0000 -0.5635800707
O   O3        1.0  0.98950  0.22880  0.99850  1.0000 -0.5324225473
O   O4        1.0  0.14850  0.45890  0.11380  1.0000 -0.5635800707
O   O5        1.0  0.47880  0.98030  0.73930  1.0000 -0.5324225473
O   O6        1.0  0.70890  0.09510  0.81040  1.0000 -0.5635800707
O   O7        1.0  0.24100  0.73950  0.26070  1.0000 -0.5324225473
O   O8        1.0  0.28470  0.89850  0.18960  1.0000 -0.5635800707
O   O9        1.0  0.01970  0.52120  0.26070  1.0000 -0.5324225473
O   O10       1.0  0.90490  0.29110  0.18960  1.0000 -0.5635800707
O   O11       1.0  0.26050  0.75900  0.73930  1.0000 -0.5324225473
O   O12       1.0  0.10150  0.71530  0.81040  1.0000 -0.5635800707
O   O13       1.0  0.77120  0.01050  0.00150  1.0000 -0.5324225473
O   O14       1.0  0.54110  0.85150  0.88620  1.0000 -0.5635800707
O   O15       1.0  0.00900  0.76970  0.99850  1.0000 -0.5324225473
O   O16       1.0  0.96530  0.65490  0.11380  1.0000 -0.5635800707
O   O17       1.0  0.37570  0.87500  0.00070  1.0000 -0.9400475296
O   O18       1.0  0.87430  0.37500  0.99930  1.0000 -0.9400475296
O   O19       1.0  0.62500  0.12570  0.00070  1.0000 -0.9400475296
O   O20       1.0  0.12500  0.62430  0.99930  1.0000 -0.9400475296
