# DDEC6 charges by PACMAN v1.1 (https://github.com/mtap-research/PACMAN-charge/)
data_2022[Zn][nan]3[ASR]27
_chemical_formula_sum              "Zn8 H24 C64 O36"
_cell_length_a       10.1714
_cell_length_b       20.6701
_cell_length_c       16.6485
_cell_angle_alpha    90
_cell_angle_beta     108.771
_cell_angle_gamma    90

_symmetry_space_group_name_H-M    "P 1"
_symmetry_Int_Tables_number       1

loop_
  _symmetry_equiv_pos_as_xyz
  'x, y, z'

loop_
  _atom_site_type_symbol
  _atom_site_label
  _atom_site_symmetry_multiplicity
  _atom_site_fract_x
  _atom_site_fract_y
  _atom_site_fract_z
  _atom_site_occupancy
  _atom_site_charge
Zn  Zn1       1.0  0.40666  0.33394  0.62544  1.0000 0.9260685143
Zn  Zn2       1.0  0.28646  0.82927  0.70632  1.0000 1.010861029
Zn  Zn3       1.0  0.59334  0.83394  0.87456  1.0000 0.9260685143
Zn  Zn4       1.0  0.71354  0.32927  0.79368  1.0000 1.010861029
Zn  Zn5       1.0  0.59334  0.66606  0.37456  1.0000 0.9242921369
Zn  Zn6       1.0  0.71354  0.17073  0.29368  1.0000 1.010861029
Zn  Zn7       1.0  0.40666  0.16606  0.12544  1.0000 0.9260685143
Zn  Zn8       1.0  0.28646  0.67073  0.20632  1.0000 1.010861029
H   H1        1.0  0.71712  0.53324  0.82190  1.0000 0.1315106592
H   H2        1.0  0.68932  0.64048  0.84141  1.0000 0.1479309602
H   H3        1.0  0.32322  0.51955  0.67402  1.0000 0.1561140987
H   H4        1.0  0.39201  0.64761  0.57051  1.0000 0.1396372887
H   H5        1.0  0.06317  0.67679  0.36188  1.0000 0.1315106592
H   H6        1.0  0.00418  0.64891  0.58521  1.0000 0.1479309602
H   H7        1.0  0.28288  0.03324  0.67810  1.0000 0.1315106592
H   H8        1.0  0.31068  0.14048  0.65859  1.0000 0.1479309602
H   H9        1.0  0.67678  0.01955  0.82598  1.0000 0.1561140987
H   H10       1.0  0.60799  0.14761  0.92949  1.0000 0.1396372887
H   H11       1.0  0.93683  0.17679  0.13812  1.0000 0.1315106592
H   H12       1.0  0.99582  0.14891  0.91479  1.0000 0.1479309602
H   H13       1.0  0.28288  0.46676  0.17810  1.0000 0.1315106592
H   H14       1.0  0.31068  0.35952  0.15859  1.0000 0.1479309602
H   H15       1.0  0.67678  0.48045  0.32598  1.0000 0.1561140987
H   H16       1.0  0.60799  0.35239  0.42949  1.0000 0.1396372887
H   H17       1.0  0.93683  0.32321  0.63812  1.0000 0.1315106592
H   H18       1.0  0.99582  0.35109  0.41479  1.0000 0.1479309602
H   H19       1.0  0.71712  0.96676  0.32190  1.0000 0.1315106592
H   H20       1.0  0.68932  0.85952  0.34141  1.0000 0.1479309602
H   H21       1.0  0.32322  0.98045  0.17402  1.0000 0.1561140987
H   H22       1.0  0.39201  0.85239  0.07051  1.0000 0.1396372887
H   H23       1.0  0.06317  0.82321  0.86188  1.0000 0.1315106592
H   H24       1.0  0.00418  0.85109  0.08521  1.0000 0.1479309602
C   C1        1.0  0.53400  0.44270  0.73550  1.0000 0.5933910506
C   C2        1.0  0.52220  0.51580  0.74730  1.0000 -0.0009477065
C   C3        1.0  0.63150  0.55260  0.79570  1.0000 -0.0994918169
C   C4        1.0  0.61570  0.61700  0.80570  1.0000 -0.0850816229
C   C5        1.0  0.49230  0.64850  0.76380  1.0000 -0.12551866
C   C6        1.0  0.38110  0.61040  0.71370  1.0000 0.2284218269
C   C7        1.0  0.39740  0.54450  0.70660  1.0000 -0.1909837452
C   C8        1.0  0.48040  0.72020  0.77180  1.0000 0.627320339
C   C9        1.0  0.20480  0.64830  0.59240  1.0000 0.2637946206
C   C10       1.0  0.29680  0.65210  0.54420  1.0000 -0.2052315874
C   C11       1.0  0.24390  0.66240  0.45800  1.0000 -0.0360008115
C   C12       1.0  0.09900  0.66890  0.41990  1.0000 -0.0994918169
C   C13       1.0  0.01130  0.66380  0.46520  1.0000 -0.0009477065
C   C14       1.0  0.06430  0.65290  0.55360  1.0000 -0.2187061561
C   C15       1.0  0.33720  0.66667  0.40770  1.0000 0.5836497592
C   C16       1.0  0.85550  0.66810  0.42340  1.0000 0.5559802996
C   C17       1.0  0.46600  0.94270  0.76450  1.0000 0.5933910506
C   C18       1.0  0.47780  0.01580  0.75270  1.0000 -0.0009477065
C   C19       1.0  0.36850  0.05260  0.70430  1.0000 -0.0994918169
C   C20       1.0  0.38430  0.11700  0.69430  1.0000 -0.0850816229
C   C21       1.0  0.50770  0.14850  0.73620  1.0000 -0.12551866
C   C22       1.0  0.61890  0.11040  0.78630  1.0000 0.2284218269
C   C23       1.0  0.60260  0.04450  0.79340  1.0000 -0.1909837452
C   C24       1.0  0.51960  0.22020  0.72820  1.0000 0.627320339
C   C25       1.0  0.79520  0.14830  0.90760  1.0000 0.2637946206
C   C26       1.0  0.70320  0.15210  0.95580  1.0000 -0.2013158031
C   C27       1.0  0.75610  0.16240  0.04200  1.0000 -0.0360008115
C   C28       1.0  0.90100  0.16890  0.08010  1.0000 -0.0994918169
C   C29       1.0  0.98870  0.16380  0.03480  1.0000 -0.0009477065
C   C30       1.0  0.93570  0.15290  0.94640  1.0000 -0.2187061561
C   C31       1.0  0.66280  0.16667  0.09230  1.0000 0.5836497592
C   C32       1.0  0.14450  0.16810  0.07660  1.0000 0.5559802996
C   C33       1.0  0.46600  0.55730  0.26450  1.0000 0.5933910506
C   C34       1.0  0.47780  0.48420  0.25270  1.0000 -0.0009477065
C   C35       1.0  0.36850  0.44740  0.20430  1.0000 -0.0994918169
C   C36       1.0  0.38430  0.38300  0.19430  1.0000 -0.0850816229
C   C37       1.0  0.50770  0.35150  0.23620  1.0000 -0.12551866
C   C38       1.0  0.61890  0.38960  0.28630  1.0000 0.2284218269
C   C39       1.0  0.60260  0.45550  0.29340  1.0000 -0.1909837452
C   C40       1.0  0.51960  0.27980  0.22820  1.0000 0.627320339
C   C41       1.0  0.79520  0.35170  0.40760  1.0000 0.2656488018
C   C42       1.0  0.70320  0.34790  0.45580  1.0000 -0.2052315874
C   C43       1.0  0.75610  0.33760  0.54200  1.0000 -0.0360008115
C   C44       1.0  0.90100  0.33110  0.58010  1.0000 -0.0994918169
C   C45       1.0  0.98870  0.33620  0.53480  1.0000 -0.0009477065
C   C46       1.0  0.93570  0.34710  0.44640  1.0000 -0.2187061561
C   C47       1.0  0.66280  0.33333  0.59230  1.0000 0.5836497592
C   C48       1.0  0.14450  0.33190  0.57660  1.0000 0.5559802996
C   C49       1.0  0.53400  0.05730  0.23550  1.0000 0.5933910506
C   C50       1.0  0.52220  0.98420  0.24730  1.0000 -0.0009477065
C   C51       1.0  0.63150  0.94740  0.29570  1.0000 -0.0994918169
C   C52       1.0  0.61570  0.88300  0.30570  1.0000 -0.0850816229
C   C53       1.0  0.49230  0.85150  0.26380  1.0000 -0.12551866
C   C54       1.0  0.38110  0.88960  0.21370  1.0000 0.2284218269
C   C55       1.0  0.39740  0.95550  0.20660  1.0000 -0.1909837452
C   C56       1.0  0.48040  0.77980  0.27180  1.0000 0.627320339
C   C57       1.0  0.20480  0.85170  0.09240  1.0000 0.2637946206
C   C58       1.0  0.29680  0.84790  0.04420  1.0000 -0.2013158031
C   C59       1.0  0.24390  0.83760  0.95800  1.0000 -0.0360008115
C   C60       1.0  0.09900  0.83110  0.91990  1.0000 -0.0994918169
C   C61       1.0  0.01130  0.83620  0.96520  1.0000 -0.0009477065
C   C62       1.0  0.06430  0.84710  0.05360  1.0000 -0.2187061561
C   C63       1.0  0.33720  0.83333  0.90770  1.0000 0.5836497592
C   C64       1.0  0.85550  0.83190  0.92340  1.0000 0.5559802996
O   O1        1.0  0.65920  0.41910  0.77470  1.0000 -0.608284573
O   O2        1.0  0.43690  0.41240  0.69240  1.0000 -0.4908313034
O   O3        1.0  0.55860  0.74370  0.83940  1.0000 -0.5174282444
O   O4        1.0  0.39590  0.75100  0.71170  1.0000 -0.5806000782
O   O5        1.0  0.24950  0.63800  0.67720  1.0000 -0.2013158031
O   O6        1.0  0.46280  0.65470  0.44060  1.0000 -0.5147777302
O   O7        1.0  0.28150  0.68310  0.33010  1.0000 -0.5927340788
O   O8        1.0  0.77520  0.65880  0.46510  1.0000 -0.531036864
O   O9        1.0  0.81120  0.68020  0.34490  1.0000 -0.5466891033
O   O10       1.0  0.34080  0.91910  0.72530  1.0000 -0.608284573
O   O11       1.0  0.56310  0.91240  0.80760  1.0000 -0.4908313034
O   O12       1.0  0.44140  0.24370  0.66060  1.0000 -0.5174282444
O   O13       1.0  0.60410  0.25100  0.78830  1.0000 -0.5806000782
O   O14       1.0  0.75050  0.13800  0.82280  1.0000 -0.2013158031
O   O15       1.0  0.53720  0.15470  0.05940  1.0000 -0.5147777302
O   O16       1.0  0.71850  0.18310  0.16990  1.0000 -0.5927340788
O   O17       1.0  0.22480  0.15880  0.03490  1.0000 -0.531036864
O   O18       1.0  0.18880  0.18020  0.15510  1.0000 -0.5466891033
O   O19       1.0  0.34080  0.58090  0.22530  1.0000 -0.608284573
O   O20       1.0  0.56310  0.58760  0.30760  1.0000 -0.4908313034
O   O21       1.0  0.44140  0.25630  0.16060  1.0000 -0.5174282444
O   O22       1.0  0.60410  0.24900  0.28830  1.0000 -0.5806000782
O   O23       1.0  0.75050  0.36200  0.32280  1.0000 -0.2013158031
O   O24       1.0  0.53720  0.34530  0.55940  1.0000 -0.5147777302
O   O25       1.0  0.71850  0.31690  0.66990  1.0000 -0.5927340788
O   O26       1.0  0.22480  0.34120  0.53490  1.0000 -0.531036864
O   O27       1.0  0.18880  0.31980  0.65510  1.0000 -0.5466891033
O   O28       1.0  0.65920  0.08090  0.27470  1.0000 -0.608284573
O   O29       1.0  0.43690  0.08760  0.19240  1.0000 -0.4908313034
O   O30       1.0  0.55860  0.75630  0.33940  1.0000 -0.5174282444
O   O31       1.0  0.39590  0.74900  0.21170  1.0000 -0.5806000782
O   O32       1.0  0.24950  0.86200  0.17720  1.0000 -0.2013158031
O   O33       1.0  0.46280  0.84530  0.94060  1.0000 -0.5147777302
O   O34       1.0  0.28150  0.81690  0.83010  1.0000 -0.5927340788
O   O35       1.0  0.77520  0.84120  0.96510  1.0000 -0.531036864
O   O36       1.0  0.81120  0.81980  0.84490  1.0000 -0.5466891033
