# DDEC6 charges by PACMAN v1.1 (https://github.com/mtap-research/PACMAN-charge/)
data_2022[Ni][nan]2[ASR]1
_chemical_formula_sum              "Ni3 H44 C88 O22"
_cell_length_a       11.107
_cell_length_b       14.1808
_cell_length_c       16.2585
_cell_angle_alpha    79.68
_cell_angle_beta     75.872
_cell_angle_gamma    75.348

_symmetry_space_group_name_H-M    "P 1"
_symmetry_Int_Tables_number       1

loop_
  _symmetry_equiv_pos_as_xyz
  'x, y, z'

loop_
  _atom_site_type_symbol
  _atom_site_label
  _atom_site_symmetry_multiplicity
  _atom_site_fract_x
  _atom_site_fract_y
  _atom_site_fract_z
  _atom_site_occupancy
  _atom_site_charge
Ni  Ni1       1.0  0.16859  0.53861  0.06414  1.0000 0.9265148439
Ni  Ni2       1.0  0.83141  0.46139  0.93586  1.0000 0.9265148439
Ni  Ni3       1.0  0.50000  0.50000  0.00000  1.0000 0.7334684231
H   H1        1.0  0.42534  0.65044  0.78618  1.0000 0.1282909163
H   H2        1.0  0.37689  0.73400  0.65935  1.0000 0.1196610648
H   H3        1.0  0.74479  0.73368  0.56488  1.0000 0.1196610648
H   H4        1.0  0.79395  0.65044  0.69131  1.0000 0.1282909163
H   H5        1.0  0.40362  0.91647  0.63875  1.0000 0.1196610648
H   H6        1.0  0.23918  0.04664  0.63820  1.0000 0.1196610648
H   H7        1.0  0.98203  0.20404  0.44396  1.0000 0.1282909163
H   H8        1.0  0.27015  0.02624  0.23532  1.0000 0.1282909163
H   H9        1.0  0.43153  0.89591  0.23692  1.0000 0.1282909163
H   H10       1.0  0.63408  0.69770  0.44559  1.0000 0.1282909163
H   H11       1.0  0.17587  0.24150  0.59925  1.0000 0.1196610648
H   H12       1.0  0.07099  0.32077  0.71541  1.0000 0.1196610648
H   H13       1.0  0.76947  0.21021  0.72983  1.0000 0.1119912438
H   H14       1.0  0.87489  0.13081  0.61181  1.0000 0.1196610648
H   H15       1.0  0.89129  0.12823  0.34229  1.0000 0.1196610648
H   H16       1.0  0.79272  0.20013  0.23073  1.0000 0.1119912438
H   H17       1.0  0.11168  0.28298  0.09876  1.0000 0.1282909163
H   H18       1.0  0.21049  0.20846  0.21083  1.0000 0.1196610648
H   H19       1.0  0.44173  0.66379  0.32760  1.0000 0.1282909163
H   H20       1.0  0.49452  0.57958  0.21166  1.0000 0.1282909163
H   H21       1.0  0.79645  0.69674  0.12030  1.0000 0.1476658978
H   H22       1.0  0.73367  0.79013  0.23339  1.0000 0.1282909163
H   H23       1.0  0.57466  0.34956  0.21382  1.0000 0.1282909163
H   H24       1.0  0.62311  0.26600  0.34065  1.0000 0.1196610648
H   H25       1.0  0.25521  0.26632  0.43512  1.0000 0.1196610648
H   H26       1.0  0.20605  0.34956  0.30869  1.0000 0.1282909163
H   H27       1.0  0.59638  0.08353  0.36125  1.0000 0.1196610648
H   H28       1.0  0.76082  0.95336  0.36180  1.0000 0.1196610648
H   H29       1.0  0.01797  0.79596  0.55604  1.0000 0.1282909163
H   H30       1.0  0.72985  0.97376  0.76468  1.0000 0.1282909163
H   H31       1.0  0.56847  0.10409  0.76308  1.0000 0.1282909163
H   H32       1.0  0.36592  0.30230  0.55441  1.0000 0.1282909163
H   H33       1.0  0.82413  0.75850  0.40075  1.0000 0.1196610648
H   H34       1.0  0.92901  0.67923  0.28459  1.0000 0.1196610648
H   H35       1.0  0.23053  0.78979  0.27017  1.0000 0.1119912438
H   H36       1.0  0.12511  0.86919  0.38819  1.0000 0.1196610648
H   H37       1.0  0.10871  0.87177  0.65771  1.0000 0.1196610648
H   H38       1.0  0.20728  0.79987  0.76927  1.0000 0.1119912438
H   H39       1.0  0.88832  0.71702  0.90124  1.0000 0.1282909163
H   H40       1.0  0.78951  0.79154  0.78917  1.0000 0.1196610648
H   H41       1.0  0.55827  0.33621  0.67240  1.0000 0.1282909163
H   H42       1.0  0.50548  0.42042  0.78834  1.0000 0.1282909163
H   H43       1.0  0.20355  0.30326  0.87970  1.0000 0.1476658978
H   H44       1.0  0.26633  0.20987  0.76661  1.0000 0.1282909163
C   C1        1.0  0.61530  0.64350  0.75310  1.0000 -0.0427181698
C   C2        1.0  0.48970  0.66810  0.74200  1.0000 -0.0998252732
C   C3        1.0  0.46070  0.71840  0.66610  1.0000 -0.1295351736
C   C4        1.0  0.55510  0.74600  0.59940  1.0000 0.0810382116
C   C5        1.0  0.68000  0.71820  0.60980  1.0000 -0.1503669498
C   C6        1.0  0.70960  0.66800  0.68560  1.0000 -0.0890660655
C   C7        1.0  0.52010  0.79910  0.51790  1.0000 0.0276510837
C   C8        1.0  0.42680  0.88700  0.51610  1.0000 0.0276510837
C   C9        1.0  0.37100  0.93800  0.58950  1.0000 -0.1295351736
C   C10       1.0  0.27290  0.01590  0.58910  1.0000 -0.1379245075
C   C11       1.0  0.21860  0.05310  0.51500  1.0000 0.0276510837
C   C12       1.0  0.10610  0.12690  0.51650  1.0000 0.0276510837
C   C13       1.0  0.05820  0.15740  0.44200  1.0000 -0.1886032077
C   C14       1.0  0.11930  0.12110  0.36530  1.0000 0.0276510837
C   C15       1.0  0.23160  0.04670  0.36170  1.0000 0.0276510837
C   C16       1.0  0.29660  0.00090  0.28640  1.0000 -0.1295351736
C   C17       1.0  0.39320  0.92360  0.28720  1.0000 -0.1295351736
C   C18       1.0  0.44010  0.88150  0.36310  1.0000 0.0276510837
C   C19       1.0  0.53500  0.79470  0.36650  1.0000 0.0276510837
C   C20       1.0  0.57200  0.75560  0.44380  1.0000 -0.1953206412
C   C21       1.0  0.38280  0.92780  0.43900  1.0000 -0.0038904745
C   C22       1.0  0.27870  0.01040  0.43810  1.0000 -0.0038904745
C   C23       1.0  0.03910  0.17580  0.59380  1.0000 0.0810382116
C   C24       1.0  0.09390  0.23420  0.62570  1.0000 -0.1503669498
C   C25       1.0  0.03110  0.28190  0.69540  1.0000 -0.0890660655
C   C26       1.0  0.90870  0.27300  0.73630  1.0000 -0.0133554657
C   C27       1.0  0.85200  0.21640  0.70390  1.0000 -0.0998252732
C   C28       1.0  0.91540  0.16820  0.63300  1.0000 -0.1503669498
C   C29       1.0  0.06140  0.16350  0.28890  1.0000 0.0810382116
C   C30       1.0  0.93570  0.15980  0.29360  1.0000 -0.1503669498
C   C31       1.0  0.87700  0.20240  0.22650  1.0000 -0.0998252732
C   C32       1.0  0.94110  0.24860  0.15310  1.0000 -0.0133554657
C   C33       1.0  0.06700  0.25170  0.14760  1.0000 -0.07145814
C   C34       1.0  0.12560  0.20780  0.21540  1.0000 -0.1503669498
C   C35       1.0  0.58130  0.73650  0.29240  1.0000 0.0741520174
C   C36       1.0  0.51230  0.67270  0.28490  1.0000 -0.1246463559
C   C37       1.0  0.54460  0.62140  0.21580  1.0000 -0.1102739569
C   C38       1.0  0.65040  0.63110  0.15240  1.0000 -0.0427181698
C   C39       1.0  0.72230  0.69150  0.16070  1.0000 -0.064215982
C   C40       1.0  0.68570  0.74640  0.23000  1.0000 -0.1503669498
C   C41       1.0  0.64370  0.59140  0.83720  1.0000 0.4837288954
C   C42       1.0  0.84210  0.32230  0.81440  1.0000 0.5698531963
C   C43       1.0  0.87110  0.29860  0.08340  1.0000 0.5698531963
C   C44       1.0  0.67090  0.58080  0.07530  1.0000 0.4971636035
C   C45       1.0  0.38470  0.35650  0.24690  1.0000 -0.0427181698
C   C46       1.0  0.51030  0.33190  0.25800  1.0000 -0.0998252732
C   C47       1.0  0.53930  0.28160  0.33390  1.0000 -0.1295351736
C   C48       1.0  0.44490  0.25400  0.40060  1.0000 0.0810382116
C   C49       1.0  0.32000  0.28180  0.39020  1.0000 -0.1503669498
C   C50       1.0  0.29040  0.33200  0.31440  1.0000 -0.0890660655
C   C51       1.0  0.47990  0.20090  0.48210  1.0000 0.0276510837
C   C52       1.0  0.57320  0.11300  0.48390  1.0000 0.0276510837
C   C53       1.0  0.62900  0.06200  0.41050  1.0000 -0.1295351736
C   C54       1.0  0.72710  0.98410  0.41090  1.0000 -0.1379245075
C   C55       1.0  0.78140  0.94690  0.48500  1.0000 0.0276510837
C   C56       1.0  0.89390  0.87310  0.48350  1.0000 0.0276510837
C   C57       1.0  0.94180  0.84260  0.55800  1.0000 -0.1886032077
C   C58       1.0  0.88070  0.87890  0.63470  1.0000 0.0276510837
C   C59       1.0  0.76840  0.95330  0.63830  1.0000 0.0241884873
C   C60       1.0  0.70340  0.99910  0.71360  1.0000 -0.1295351736
C   C61       1.0  0.60680  0.07640  0.71280  1.0000 -0.1295351736
C   C62       1.0  0.55990  0.11850  0.63690  1.0000 0.0276510837
C   C63       1.0  0.46500  0.20530  0.63350  1.0000 0.0276510837
C   C64       1.0  0.42800  0.24440  0.55620  1.0000 -0.1886032077
C   C65       1.0  0.61720  0.07220  0.56100  1.0000 -0.0038904745
C   C66       1.0  0.72130  0.98960  0.56190  1.0000 -0.0038904745
C   C67       1.0  0.96090  0.82420  0.40620  1.0000 0.0810382116
C   C68       1.0  0.90610  0.76580  0.37430  1.0000 -0.1503669498
C   C69       1.0  0.96890  0.71810  0.30460  1.0000 -0.0890660655
C   C70       1.0  0.09130  0.72700  0.26370  1.0000 -0.0133554657
C   C71       1.0  0.14800  0.78360  0.29610  1.0000 -0.0998252732
C   C72       1.0  0.08460  0.83180  0.36700  1.0000 -0.1503669498
C   C73       1.0  0.93860  0.83650  0.71110  1.0000 0.0810382116
C   C74       1.0  0.06430  0.84020  0.70640  1.0000 -0.1503669498
C   C75       1.0  0.12300  0.79760  0.77350  1.0000 -0.0998252732
C   C76       1.0  0.05890  0.75140  0.84690  1.0000 -0.0133554657
C   C77       1.0  0.93300  0.74830  0.85240  1.0000 -0.07145814
C   C78       1.0  0.87440  0.79220  0.78460  1.0000 -0.1503669498
C   C79       1.0  0.41870  0.26350  0.70760  1.0000 0.0741520174
C   C80       1.0  0.48770  0.32730  0.71510  1.0000 -0.1246463559
C   C81       1.0  0.45540  0.37860  0.78420  1.0000 -0.1102739569
C   C82       1.0  0.34960  0.36890  0.84760  1.0000 -0.0427181698
C   C83       1.0  0.27770  0.30850  0.83930  1.0000 -0.064215982
C   C84       1.0  0.31430  0.25360  0.77000  1.0000 -0.1503669498
C   C85       1.0  0.35630  0.40860  0.16280  1.0000 0.4837288954
C   C86       1.0  0.15790  0.67770  0.18560  1.0000 0.5698531963
C   C87       1.0  0.12890  0.70140  0.91660  1.0000 0.5698531963
C   C88       1.0  0.32910  0.41920  0.92470  1.0000 0.4971636035
O   O1        1.0  0.55770  0.61190  0.90740  1.0000 -0.1102739569
O   O2        1.0  0.75420  0.56120  0.84461  1.0000 -0.4615928881
O   O3        1.0  0.90320  0.36700  0.84330  1.0000 -0.5341007315
O   O4        1.0  0.73030  0.31380  0.84600  1.0000 -0.4918521993
O   O5        1.0  0.76670  0.27790  0.08680  1.0000 -0.4976252817
O   O6        1.0  0.92090  0.35830  0.02600  1.0000 -0.546370139
O   O7        1.0  0.57600  0.60280  0.03370  1.0000 -0.1379245075
O   O8        1.0  0.77770  0.55540  0.03146  1.0000 -0.4471510701
O   O9        1.0  0.32940  0.59710  0.02640  1.0000 -0.41679511
O   O10       1.0  0.54060  0.55320  0.87860  1.0000 -0.0511862055
O   O11       1.0  0.57430  0.53500  0.08640  1.0000 -0.0844590418
O   O12       1.0  0.44230  0.38810  0.09260  1.0000 -0.1102739569
O   O13       1.0  0.24580  0.43880  0.15539  1.0000 -0.4615928881
O   O14       1.0  0.09680  0.63300  0.15670  1.0000 -0.5341007315
O   O15       1.0  0.26970  0.68620  0.15400  1.0000 -0.4918521993
O   O16       1.0  0.23330  0.72210  0.91320  1.0000 -0.4976252817
O   O17       1.0  0.07910  0.64170  0.97400  1.0000 -0.546370139
O   O18       1.0  0.42400  0.39720  0.96630  1.0000 -0.1295351736
O   O19       1.0  0.22230  0.44460  0.96854  1.0000 -0.4471510701
O   O20       1.0  0.67060  0.40290  0.97360  1.0000 -0.41679511
O   O21       1.0  0.45940  0.44680  0.12140  1.0000 -0.0511862055
O   O22       1.0  0.42570  0.46500  0.91360  1.0000 -0.0844590418
