# DDEC6 charges by PACMAN v1.1 (https://github.com/mtap-research/PACMAN-charge/)
data_2022[Ni][dia]3[ASR]2
_chemical_formula_sum              "Ni4 H64 C84 S4 N8 O30"
_cell_length_a       11.6188
_cell_length_b       12.3844
_cell_length_c       19.5572
_cell_angle_alpha    99.513
_cell_angle_beta     87.616
_cell_angle_gamma    116.645

_symmetry_space_group_name_H-M    "P 1"
_symmetry_Int_Tables_number       1

loop_
  _symmetry_equiv_pos_as_xyz
  'x, y, z'

loop_
  _atom_site_type_symbol
  _atom_site_label
  _atom_site_symmetry_multiplicity
  _atom_site_fract_x
  _atom_site_fract_y
  _atom_site_fract_z
  _atom_site_occupancy
  _atom_site_charge
Ni  Ni1       1.0  0.15173  0.66864  0.24031  1.0000 0.801303543
Ni  Ni2       1.0  0.48829  0.80715  0.27615  1.0000 0.9727088882
Ni  Ni3       1.0  0.84827  0.33136  0.75969  1.0000 0.801303543
Ni  Ni4       1.0  0.51171  0.19285  0.72385  1.0000 0.9727088882
H   H1        1.0  0.29340  0.69270  0.34650  1.0000 0.3919256104
H   H2        1.0  0.30650  0.59650  0.28800  1.0000 0.3998461438
H   H3        1.0  0.52930  0.58090  0.10210  1.0000 0.2823307363
H   H4        1.0  0.07480  0.03410  0.09800  1.0000 0.2823307363
H   H5        1.0  0.97960  0.78760  0.27040  1.0000 0.1192596376
H   H6        1.0  0.82510  0.81890  0.22030  1.0000 0.1413866515
H   H7        1.0  0.81660  0.57720  0.05510  1.0000 0.1413866515
H   H8        1.0  0.97560  0.55710  0.10920  1.0000 0.1117361058
H   H9        1.0  0.67740  0.77640  0.13050  1.0000 0.1192596376
H   H10       1.0  0.73930  0.76570  0.05850  1.0000 0.1192596376
H   H11       1.0  0.96130  0.42600  0.28030  1.0000 0.1117361058
H   H12       1.0  0.89000  0.21850  0.25050  1.0000 0.1413866515
H   H13       1.0  0.13990  0.28090  0.09900  1.0000 0.1413866515
H   H14       1.0  0.20480  0.48650  0.13260  1.0000 0.1117361058
H   H15       1.0  0.96180  0.05430  0.19030  1.0000 0.1117361058
H   H16       1.0  0.85830  0.05230  0.14070  1.0000 0.1291564198
H   H17       1.0  0.15040  0.01440  0.27870  1.0000 0.1117361058
H   H18       1.0  0.14620  0.20100  0.31300  1.0000 0.1192596376
H   H19       1.0  0.49340  0.33870  0.40640  1.0000 0.1291564198
H   H20       1.0  0.50090  0.15350  0.36890  1.0000 0.1291564198
H   H21       1.0  0.05210  0.37900  0.39120  1.0000 0.1192596376
H   H22       1.0  0.89730  0.33880  0.47430  1.0000 0.1192596376
H   H23       1.0  0.15260  0.35930  0.61320  1.0000 0.1192596376
H   H24       1.0  0.30890  0.40050  0.53050  1.0000 0.1413866515
H   H25       1.0  0.19380  0.71880  0.03150  1.0000 0.1192596376
H   H26       1.0  0.23200  0.76750  0.92010  1.0000 0.1192596376
H   H27       1.0  0.61430  0.91520  0.96170  1.0000 0.1291564198
H   H28       1.0  0.57360  0.86860  0.07280  1.0000 0.1192596376
H   H29       1.0  0.26760  0.66600  0.75860  1.0000 0.1117361058
H   H30       1.0  0.24550  0.47290  0.71100  1.0000 0.1117361058
H   H31       1.0  0.59170  0.55930  0.79430  1.0000 0.1192596376
H   H32       1.0  0.61680  0.75360  0.83890  1.0000 0.1192596376
H   H33       1.0  0.70660  0.30730  0.65350  1.0000 0.3919256104
H   H34       1.0  0.69350  0.40350  0.71200  1.0000 0.3998461438
H   H35       1.0  0.47070  0.41910  0.89790  1.0000 0.2823307363
H   H36       1.0  0.92520  0.96590  0.90200  1.0000 0.2823307363
H   H37       1.0  0.02040  0.21240  0.72960  1.0000 0.1192596376
H   H38       1.0  0.17490  0.18110  0.77970  1.0000 0.1413866515
H   H39       1.0  0.18340  0.42280  0.94490  1.0000 0.1413866515
H   H40       1.0  0.02440  0.44290  0.89080  1.0000 0.1117361058
H   H41       1.0  0.32260  0.22360  0.86950  1.0000 0.1192596376
H   H42       1.0  0.26070  0.23430  0.94150  1.0000 0.1192596376
H   H43       1.0  0.03870  0.57400  0.71970  1.0000 0.1117361058
H   H44       1.0  0.11000  0.78150  0.74950  1.0000 0.1413866515
H   H45       1.0  0.86010  0.71910  0.90100  1.0000 0.1413866515
H   H46       1.0  0.79520  0.51350  0.86740  1.0000 0.1117361058
H   H47       1.0  0.03820  0.94570  0.80970  1.0000 0.1117361058
H   H48       1.0  0.14170  0.94770  0.85930  1.0000 0.1291564198
H   H49       1.0  0.84960  0.98560  0.72130  1.0000 0.1117361058
H   H50       1.0  0.85380  0.79900  0.68700  1.0000 0.1192596376
H   H51       1.0  0.50660  0.66130  0.59360  1.0000 0.1291564198
H   H52       1.0  0.49910  0.84650  0.63110  1.0000 0.1291564198
H   H53       1.0  0.94790  0.62100  0.60880  1.0000 0.1192596376
H   H54       1.0  0.10270  0.66120  0.52570  1.0000 0.1192596376
H   H55       1.0  0.84740  0.64070  0.38680  1.0000 0.1192596376
H   H56       1.0  0.69110  0.59950  0.46950  1.0000 0.1413866515
H   H57       1.0  0.80620  0.28120  0.96850  1.0000 0.1192596376
H   H58       1.0  0.76800  0.23250  0.07990  1.0000 0.1192596376
H   H59       1.0  0.38570  0.08480  0.03830  1.0000 0.1291564198
H   H60       1.0  0.42640  0.13140  0.92720  1.0000 0.1192596376
H   H61       1.0  0.73240  0.33400  0.24140  1.0000 0.1117361058
H   H62       1.0  0.75450  0.52710  0.28900  1.0000 0.1117361058
H   H63       1.0  0.40830  0.44070  0.20570  1.0000 0.1192596376
H   H64       1.0  0.38320  0.24640  0.16110  1.0000 0.1192596376
C   C1        1.0  0.94720  0.74560  0.22614  1.0000 0.0996419264
C   C2        1.0  0.85360  0.76450  0.19649  1.0000 -0.1990428892
C   C3        1.0  0.80250  0.70210  0.13135  1.0000 0.1451845689
C   C4        1.0  0.84920  0.62230  0.09884  1.0000 -0.1990428892
C   C5        1.0  0.94440  0.61020  0.13195  1.0000 0.0884418143
C   C6        1.0  0.70170  0.72330  0.09737  1.0000 -0.1178417789
C   C7        1.0  0.56670  0.55690  0.00753  1.0000 0.3568399323
C   C8        1.0  0.99750  0.39680  0.24288  1.0000 0.0884418143
C   C9        1.0  0.95370  0.27120  0.22503  1.0000 -0.1990428892
C   C10       1.0  0.00400  0.22470  0.16992  1.0000 0.1413866515
C   C11       1.0  0.10090  0.30790  0.13575  1.0000 -0.1893117653
C   C12       1.0  0.13960  0.43210  0.15660  1.0000 0.0884418143
C   C13       1.0  0.95020  0.08660  0.15058  1.0000 -0.1178417789
C   C14       1.0  0.96350  0.02480  0.02742  1.0000 0.3485378994
C   C15       1.0  0.32740  0.94220  0.29929  1.0000 0.6000365986
C   C16       1.0  0.32460  0.06370  0.32190  1.0000 -0.0015399411
C   C17       1.0  0.21960  0.07910  0.30450  1.0000 -0.0982776298
C   C18       1.0  0.21670  0.19060  0.32520  1.0000 -0.1085314146
C   C19       1.0  0.31860  0.28560  0.36390  1.0000 -0.0823222959
C   C20       1.0  0.42450  0.27350  0.38070  1.0000 -0.0823222959
C   C21       1.0  0.42820  0.16190  0.35870  1.0000 -0.0905162132
C   C22       1.0  0.19400  0.39520  0.45348  1.0000 -0.0823222959
C   C23       1.0  0.07230  0.37600  0.43615  1.0000 -0.1085314146
C   C24       1.0  0.98000  0.35220  0.48582  1.0000 -0.0905162132
C   C25       1.0  0.01060  0.34840  0.55295  1.0000 -0.0220927356
C   C26       1.0  0.13290  0.36470  0.56868  1.0000 -0.0905162132
C   C27       1.0  0.22660  0.38880  0.51952  1.0000 -0.0905162132
C   C28       1.0  0.91260  0.32900  0.60834  1.0000 0.5670277251
C   C29       1.0  0.35460  0.75810  0.13533  1.0000 0.5877325309
C   C30       1.0  0.37960  0.78730  0.06253  1.0000 -0.0087834369
C   C31       1.0  0.27790  0.75800  0.01728  1.0000 -0.0982776298
C   C32       1.0  0.30010  0.78650  0.95067  1.0000 -0.0982776298
C   C33       1.0  0.42700  0.84430  0.93103  1.0000 -0.0905162132
C   C34       1.0  0.53010  0.87580  0.97581  1.0000 -0.0982776298
C   C35       1.0  0.50530  0.84730  0.04181  1.0000 -0.0982776298
C   C36       1.0  0.44420  0.72750  0.80273  1.0000 -0.0823222959
C   C37       1.0  0.33300  0.64450  0.76513  1.0000 -0.1085314146
C   C38       1.0  0.31950  0.52890  0.73712  1.0000 -0.1085314146
C   C39       1.0  0.41690  0.49670  0.74812  1.0000 -0.0087834369
C   C40       1.0  0.52700  0.58110  0.78659  1.0000 -0.0982776298
C   C41       1.0  0.54200  0.69690  0.81366  1.0000 -0.0982776298
C   C42       1.0  0.40120  0.36980  0.71926  1.0000 0.5589231624
C   C43       1.0  0.05280  0.25440  0.77386  1.0000 0.0996419264
C   C44       1.0  0.14640  0.23550  0.80351  1.0000 -0.1990428892
C   C45       1.0  0.19750  0.29790  0.86865  1.0000 0.1413866515
C   C46       1.0  0.15080  0.37770  0.90116  1.0000 -0.1990428892
C   C47       1.0  0.05560  0.38980  0.86805  1.0000 0.0884418143
C   C48       1.0  0.29830  0.27670  0.90263  1.0000 -0.1178417789
C   C49       1.0  0.43330  0.44310  0.99247  1.0000 0.3568399323
C   C50       1.0  0.00250  0.60320  0.75712  1.0000 0.0841632483
C   C51       1.0  0.04630  0.72880  0.77497  1.0000 -0.1990428892
C   C52       1.0  0.99600  0.77530  0.83008  1.0000 0.1413866515
C   C53       1.0  0.89910  0.69210  0.86425  1.0000 -0.1893117653
C   C54       1.0  0.86040  0.56790  0.84340  1.0000 0.0884418143
C   C55       1.0  0.04980  0.91340  0.84942  1.0000 -0.1178417789
C   C56       1.0  0.03650  0.97520  0.97258  1.0000 0.3485378994
C   C57       1.0  0.67260  0.05780  0.70071  1.0000 0.6000365986
C   C58       1.0  0.67540  0.93630  0.67810  1.0000 -0.0015399411
C   C59       1.0  0.78040  0.92090  0.69550  1.0000 -0.0982776298
C   C60       1.0  0.78330  0.80940  0.67480  1.0000 -0.1178417789
C   C61       1.0  0.68140  0.71440  0.63610  1.0000 -0.0823222959
C   C62       1.0  0.57550  0.72650  0.61930  1.0000 -0.0823222959
C   C63       1.0  0.57180  0.83810  0.64130  1.0000 -0.0905162132
C   C64       1.0  0.80600  0.60480  0.54652  1.0000 -0.0823222959
C   C65       1.0  0.92770  0.62400  0.56385  1.0000 -0.1085314146
C   C66       1.0  0.02000  0.64780  0.51418  1.0000 -0.0905162132
C   C67       1.0  0.98940  0.65160  0.44705  1.0000 -0.0220927356
C   C68       1.0  0.86710  0.63530  0.43132  1.0000 -0.0905162132
C   C69       1.0  0.77340  0.61120  0.48048  1.0000 -0.0905162132
C   C70       1.0  0.08740  0.67100  0.39166  1.0000 0.5670277251
C   C71       1.0  0.64540  0.24190  0.86467  1.0000 0.5877325309
C   C72       1.0  0.62040  0.21270  0.93747  1.0000 -0.0087834369
C   C73       1.0  0.72210  0.24200  0.98272  1.0000 -0.0982776298
C   C74       1.0  0.69990  0.21350  0.04933  1.0000 -0.0982776298
C   C75       1.0  0.57300  0.15570  0.06897  1.0000 -0.0905162132
C   C76       1.0  0.46990  0.12420  0.02419  1.0000 -0.0982776298
C   C77       1.0  0.49470  0.15270  0.95819  1.0000 -0.0905162132
C   C78       1.0  0.55580  0.27250  0.19727  1.0000 -0.0823222959
C   C79       1.0  0.66700  0.35550  0.23487  1.0000 -0.1085314146
C   C80       1.0  0.68050  0.47110  0.26288  1.0000 -0.1085314146
C   C81       1.0  0.58310  0.50330  0.25188  1.0000 -0.0087834369
C   C82       1.0  0.47300  0.41890  0.21341  1.0000 -0.0982776298
C   C83       1.0  0.45800  0.30310  0.18634  1.0000 -0.0982776298
C   C84       1.0  0.59880  0.63020  0.28074  1.0000 0.5589231624
S   S1        1.0  0.31320  0.42653  0.39016  1.0000 0.9796866996
S   S2        1.0  0.45624  0.87009  0.84464  1.0000 0.9796866996
S   S3        1.0  0.68680  0.57347  0.60984  1.0000 0.9796866996
S   S4        1.0  0.54376  0.12991  0.15536  1.0000 0.9796866996
N   N1        1.0  0.99370  0.67070  0.19471  1.0000 -0.2161407696
N   N2        1.0  0.58720  0.61240  0.07276  1.0000 -0.291973211
N   N3        1.0  0.08920  0.47805  0.20890  1.0000 -0.2510292457
N   N4        1.0  0.00860  0.04540  0.09109  1.0000 -0.3164316939
N   N5        1.0  0.00630  0.32930  0.80529  1.0000 -0.2161407696
N   N6        1.0  0.41280  0.38760  0.92724  1.0000 -0.291973211
N   N7        1.0  0.91080  0.52195  0.79110  1.0000 -0.2510292457
N   N8        1.0  0.99140  0.95460  0.90891  1.0000 -0.3164316939
O   O1        1.0  0.64240  0.58650  0.96108  1.0000 -0.4810199168
O   O2        1.0  0.87540  0.04360  0.01065  1.0000 -0.4657729196
O   O3        1.0  0.22462  0.85483  0.27286  1.0000 -0.5386684762
O   O4        1.0  0.43244  0.93986  0.30916  1.0000 -0.5591139224
O   O5        1.0  0.26370  0.45237  0.33174  1.0000 -0.5251242744
O   O6        1.0  0.43500  0.51559  0.42267  1.0000 -0.4856703209
O   O7        1.0  0.79600  0.28590  0.58981  1.0000 -0.5220342623
O   O8        1.0  0.95432  0.35904  0.67014  1.0000 -0.5591139224
O   O9        1.0  0.23887  0.69912  0.14918  1.0000 -0.5591139224
O   O10       1.0  0.45120  0.79418  0.17430  1.0000 -0.5485288428
O   O11       1.0  0.58600  0.96236  0.84131  1.0000 -0.4856703209
O   O12       1.0  0.35160  0.88642  0.81878  1.0000 -0.5220342623
O   O13       1.0  0.32540  0.30896  0.66859  1.0000 -0.5485288428
O   O14       1.0  0.46902  0.33591  0.75056  1.0000 -0.5981092976
O   O15       1.0  0.30731  0.67629  0.29746  1.0000 -0.7554370986
O   O16       1.0  0.35760  0.41350  0.03892  1.0000 -0.4810199168
O   O17       1.0  0.12460  0.95640  0.98935  1.0000 -0.4657729196
O   O18       1.0  0.77538  0.14517  0.72714  1.0000 -0.5386684762
O   O19       1.0  0.56756  0.06014  0.69084  1.0000 -0.5591139224
O   O20       1.0  0.73630  0.54763  0.66826  1.0000 -0.5220342623
O   O21       1.0  0.56500  0.48441  0.57733  1.0000 -0.4810199168
O   O22       1.0  0.20400  0.71410  0.41019  1.0000 -0.5220342623
O   O23       1.0  0.04568  0.64096  0.32986  1.0000 -0.5591139224
O   O24       1.0  0.76113  0.30088  0.85082  1.0000 -0.5591139224
O   O25       1.0  0.54880  0.20582  0.82570  1.0000 -0.5485288428
O   O26       1.0  0.41400  0.03764  0.15869  1.0000 -0.4856703209
O   O27       1.0  0.64840  0.11358  0.18122  1.0000 -0.5220342623
O   O28       1.0  0.67460  0.69104  0.33141  1.0000 -0.5485288428
O   O29       1.0  0.53098  0.66409  0.24944  1.0000 -0.5981092976
O   O30       1.0  0.69269  0.32371  0.70254  1.0000 -0.75456097
