# DDEC6 charges by PACMAN v1.1 (https://github.com/mtap-research/PACMAN-charge/)
data_2022[Zn][pcu]3[ASR]5
_chemical_formula_sum              "Zn16 H128 C176 Br32 N16 O64"
_cell_length_a       24.6939
_cell_length_b       24.6939
_cell_length_c       24.6939
_cell_angle_alpha    127.722
_cell_angle_beta     127.722
_cell_angle_gamma    77.0753

_symmetry_space_group_name_H-M    "P 1"
_symmetry_Int_Tables_number       1

loop_
  _symmetry_equiv_pos_as_xyz
  'x, y, z'

loop_
  _atom_site_type_symbol
  _atom_site_label
  _atom_site_symmetry_multiplicity
  _atom_site_fract_x
  _atom_site_fract_y
  _atom_site_fract_z
  _atom_site_occupancy
  _atom_site_charge
Zn  Zn1       1.0  0.55125  0.02180  0.99551  1.0000 0.8387469474
Zn  Zn2       1.0  0.02629  0.55574  0.00449  1.0000 0.8387469474
Zn  Zn3       1.0  0.77180  0.27629  0.97055  1.0000 0.8387469474
Zn  Zn4       1.0  0.30574  0.80125  0.02945  1.0000 0.8387469474
Zn  Zn5       1.0  0.22371  0.72820  0.02945  1.0000 0.8387469474
Zn  Zn6       1.0  0.69875  0.19426  0.97055  1.0000 0.8387469474
Zn  Zn7       1.0  0.94426  0.47371  0.99551  1.0000 0.8387469474
Zn  Zn8       1.0  0.47820  0.94875  0.00449  1.0000 0.8387469474
Zn  Zn9       1.0  0.19875  0.22820  0.50449  1.0000 0.8387469474
Zn  Zn10      1.0  0.72371  0.69426  0.49551  1.0000 0.8387469474
Zn  Zn11      1.0  0.97820  0.97371  0.52945  1.0000 0.8387469474
Zn  Zn12      1.0  0.44426  0.44875  0.47055  1.0000 0.8387469474
Zn  Zn13      1.0  0.52629  0.52180  0.47055  1.0000 0.8387469474
Zn  Zn14      1.0  0.05125  0.05574  0.52945  1.0000 0.8387469474
Zn  Zn15      1.0  0.80574  0.77629  0.50449  1.0000 0.8387469474
Zn  Zn16      1.0  0.27180  0.30125  0.49551  1.0000 0.8387469474
H   H1        1.0  0.56934  0.34492  0.32040  1.0000 0.1273660382
H   H2        1.0  0.42959  0.12755  0.14824  1.0000 0.1273660382
H   H3        1.0  0.56178  0.99260  0.86310  1.0000 0.1273660382
H   H4        1.0  0.63606  0.99280  0.93310  1.0000 0.1273660382
H   H5        1.0  0.69783  0.09226  0.08625  1.0000 0.1130234237
H   H6        1.0  0.66077  0.15273  0.11542  1.0000 0.1152543604
H   H7        1.0  0.54545  0.15145  0.00692  1.0000 0.1273660382
H   H8        1.0  0.50475  0.08706  0.90791  1.0000 0.1273660382
H   H9        1.0  0.02452  0.24894  0.67960  1.0000 0.1273660382
H   H10       1.0  0.97931  0.28135  0.85176  1.0000 0.1273660382
H   H11       1.0  0.12950  0.69868  0.13690  1.0000 0.1273660382
H   H12       1.0  0.05970  0.70296  0.06690  1.0000 0.1273660382
H   H13       1.0  0.00601  0.61158  0.91375  1.0000 0.1130234237
H   H14       1.0  0.03731  0.54535  0.88458  1.0000 0.1152543604
H   H15       1.0  0.14453  0.53853  0.99308  1.0000 0.1273660382
H   H16       1.0  0.17915  0.59684  0.09209  1.0000 0.1273660382
H   H17       1.0  0.09492  0.27452  0.27558  1.0000 0.1273660382
H   H18       1.0  0.87755  0.22931  0.19796  1.0000 0.1273660382
H   H19       1.0  0.74260  0.37950  0.93082  1.0000 0.1273660382
H   H20       1.0  0.74280  0.30970  0.85674  1.0000 0.1273660382
H   H21       1.0  0.84226  0.25601  0.89443  1.0000 0.1130234237
H   H22       1.0  0.90273  0.28731  0.99196  1.0000 0.1152543604
H   H23       1.0  0.90145  0.39453  0.10600  1.0000 0.1273660382
H   H24       1.0  0.83706  0.42915  0.08231  1.0000 0.1273660382
H   H25       1.0  0.99894  0.81934  0.72442  1.0000 0.1273660382
H   H26       1.0  0.03135  0.67959  0.80204  1.0000 0.1273660382
H   H27       1.0  0.44868  0.81178  0.06918  1.0000 0.1273660382
H   H28       1.0  0.45296  0.88606  0.14326  1.0000 0.1273660382
H   H29       1.0  0.36158  0.94783  0.10557  1.0000 0.1130234237
H   H30       1.0  0.29535  0.91077  0.00804  1.0000 0.1152543604
H   H31       1.0  0.28853  0.79545  0.89400  1.0000 0.1273660382
H   H32       1.0  0.34684  0.75475  0.91769  1.0000 0.1273660382
H   H33       1.0  0.22548  0.40508  0.72442  1.0000 0.1273660382
H   H34       1.0  0.27069  0.62245  0.80204  1.0000 0.1273660382
H   H35       1.0  0.12050  0.75740  0.06918  1.0000 0.1273660382
H   H36       1.0  0.19030  0.75720  0.14326  1.0000 0.1273660382
H   H37       1.0  0.24399  0.65774  0.10557  1.0000 0.1130234237
H   H38       1.0  0.21269  0.59727  0.00804  1.0000 0.1152543604
H   H39       1.0  0.10547  0.59855  0.89400  1.0000 0.1273660382
H   H40       1.0  0.07085  0.66294  0.91769  1.0000 0.1273660382
H   H41       1.0  0.68066  0.50106  0.27558  1.0000 0.1273660382
H   H42       1.0  0.82041  0.46865  0.19796  1.0000 0.1273660382
H   H43       1.0  0.68822  0.05132  0.93082  1.0000 0.1273660382
H   H44       1.0  0.61394  0.04704  0.85674  1.0000 0.1273660382
H   H45       1.0  0.55217  0.13842  0.89443  1.0000 0.1130234237
H   H46       1.0  0.58923  0.20465  0.99196  1.0000 0.1152543604
H   H47       1.0  0.70455  0.21147  0.10600  1.0000 0.1273660382
H   H48       1.0  0.74525  0.15316  0.08231  1.0000 0.1273660382
H   H49       1.0  0.25106  0.47548  0.32040  1.0000 0.1273660382
H   H50       1.0  0.21865  0.52069  0.14824  1.0000 0.1273660382
H   H51       1.0  0.80132  0.37050  0.86310  1.0000 0.1273660382
H   H52       1.0  0.79704  0.44030  0.93310  1.0000 0.1273660382
H   H53       1.0  0.88842  0.49399  0.08625  1.0000 0.1130234237
H   H54       1.0  0.95465  0.46269  0.11542  1.0000 0.1152543604
H   H55       1.0  0.96147  0.35547  0.00692  1.0000 0.1273660382
H   H56       1.0  0.90316  0.32085  0.90791  1.0000 0.1273660382
H   H57       1.0  0.15508  0.93066  0.67960  1.0000 0.1273660382
H   H58       1.0  0.37245  0.07041  0.85176  1.0000 0.1273660382
H   H59       1.0  0.50740  0.93822  0.13690  1.0000 0.1273660382
H   H60       1.0  0.50720  0.86394  0.06690  1.0000 0.1273660382
H   H61       1.0  0.40774  0.80217  0.91375  1.0000 0.1130234237
H   H62       1.0  0.34727  0.83923  0.88458  1.0000 0.1152543604
H   H63       1.0  0.34855  0.95455  0.99308  1.0000 0.1273660382
H   H64       1.0  0.41294  0.99525  0.09209  1.0000 0.1273660382
H   H65       1.0  0.18066  0.90508  0.17960  1.0000 0.1273660382
H   H66       1.0  0.32041  0.12245  0.35176  1.0000 0.1273660382
H   H67       1.0  0.18822  0.25740  0.63690  1.0000 0.1273660382
H   H68       1.0  0.11394  0.25720  0.56690  1.0000 0.1273660382
H   H69       1.0  0.05217  0.15774  0.41375  1.0000 0.1130234237
H   H70       1.0  0.08923  0.09727  0.38458  1.0000 0.1152543604
H   H71       1.0  0.20455  0.09855  0.49308  1.0000 0.1273660382
H   H72       1.0  0.24525  0.16294  0.59209  1.0000 0.1273660382
H   H73       1.0  0.72548  0.00106  0.82040  1.0000 0.1273660382
H   H74       1.0  0.77069  0.96865  0.64824  1.0000 0.1273660382
H   H75       1.0  0.62050  0.55132  0.36310  1.0000 0.1273660382
H   H76       1.0  0.69030  0.54704  0.43310  1.0000 0.1273660382
H   H77       1.0  0.74399  0.63842  0.58625  1.0000 0.1130234237
H   H78       1.0  0.71269  0.70465  0.61542  1.0000 0.1152543604
H   H79       1.0  0.60547  0.71147  0.50692  1.0000 0.1273660382
H   H80       1.0  0.57085  0.65316  0.40791  1.0000 0.1273660382
H   H81       1.0  0.65508  0.97548  0.22442  1.0000 0.1273660382
H   H82       1.0  0.87245  0.02069  0.30204  1.0000 0.1273660382
H   H83       1.0  0.00740  0.87050  0.56918  1.0000 0.1273660382
H   H84       1.0  0.00720  0.94030  0.64326  1.0000 0.1273660382
H   H85       1.0  0.90774  0.99399  0.60557  1.0000 0.1130234237
H   H86       1.0  0.84727  0.96269  0.50804  1.0000 0.1152543604
H   H87       1.0  0.84855  0.85547  0.39400  1.0000 0.1273660382
H   H88       1.0  0.91294  0.82085  0.41769  1.0000 0.1273660382
H   H89       1.0  0.75106  0.43066  0.77558  1.0000 0.1273660382
H   H90       1.0  0.71865  0.57041  0.69796  1.0000 0.1273660382
H   H91       1.0  0.30132  0.43822  0.43082  1.0000 0.1273660382
H   H92       1.0  0.29704  0.36394  0.35674  1.0000 0.1273660382
H   H93       1.0  0.38842  0.30217  0.39443  1.0000 0.1130234237
H   H94       1.0  0.45465  0.33923  0.49196  1.0000 0.1152543604
H   H95       1.0  0.46147  0.45455  0.60600  1.0000 0.1273660382
H   H96       1.0  0.40316  0.49525  0.58231  1.0000 0.1273660382
H   H97       1.0  0.52452  0.84492  0.77558  1.0000 0.1273660382
H   H98       1.0  0.47931  0.62755  0.69796  1.0000 0.1273660382
H   H99       1.0  0.62950  0.49260  0.43082  1.0000 0.1273660382
H   H100      1.0  0.55970  0.49280  0.35674  1.0000 0.1273660382
H   H101      1.0  0.50601  0.59226  0.39443  1.0000 0.1130234237
H   H102      1.0  0.53731  0.65273  0.49196  1.0000 0.1152543604
H   H103      1.0  0.64453  0.65145  0.60600  1.0000 0.1273660382
H   H104      1.0  0.67915  0.58706  0.58231  1.0000 0.1273660382
H   H105      1.0  0.06934  0.74894  0.22442  1.0000 0.1273660382
H   H106      1.0  0.92959  0.78135  0.30204  1.0000 0.1273660382
H   H107      1.0  0.06178  0.19868  0.56918  1.0000 0.1273660382
H   H108      1.0  0.13606  0.20296  0.64326  1.0000 0.1273660382
H   H109      1.0  0.19783  0.11158  0.60557  1.0000 0.1130234237
H   H110      1.0  0.16077  0.04535  0.50804  1.0000 0.1152543604
H   H111      1.0  0.04545  0.03853  0.39400  1.0000 0.1273660382
H   H112      1.0  0.00475  0.09684  0.41769  1.0000 0.1273660382
H   H113      1.0  0.49894  0.77452  0.17960  1.0000 0.1273660382
H   H114      1.0  0.53135  0.72931  0.35176  1.0000 0.1273660382
H   H115      1.0  0.94868  0.87950  0.63690  1.0000 0.1273660382
H   H116      1.0  0.95296  0.80970  0.56690  1.0000 0.1273660382
H   H117      1.0  0.86158  0.75601  0.41375  1.0000 0.1130234237
H   H118      1.0  0.79535  0.78731  0.38458  1.0000 0.1152543604
H   H119      1.0  0.78853  0.89453  0.49308  1.0000 0.1273660382
H   H120      1.0  0.84684  0.92915  0.59209  1.0000 0.1273660382
H   H121      1.0  0.59492  0.31934  0.82040  1.0000 0.1273660382
H   H122      1.0  0.37755  0.17959  0.64824  1.0000 0.1273660382
H   H123      1.0  0.24260  0.31178  0.36310  1.0000 0.1273660382
H   H124      1.0  0.24280  0.38606  0.43310  1.0000 0.1273660382
H   H125      1.0  0.34226  0.44783  0.58625  1.0000 0.1130234237
H   H126      1.0  0.40273  0.41077  0.61542  1.0000 0.1152543604
H   H127      1.0  0.40145  0.29545  0.50692  1.0000 0.1273660382
H   H128      1.0  0.33706  0.25475  0.40791  1.0000 0.1273660382
C   C1        1.0  0.51013  0.17472  0.17797  1.0000 -0.0475721495
C   C2        1.0  0.55164  0.24092  0.23080  1.0000 0.0739659976
C   C3        1.0  0.54097  0.30121  0.28596  1.0000 -0.1581975756
C   C4        1.0  0.48897  0.29784  0.29093  1.0000 -0.0475721495
C   C5        1.0  0.44675  0.23151  0.23722  1.0000 0.0760304201
C   C6        1.0  0.45785  0.17130  0.18261  1.0000 -0.1581975756
C   C7        1.0  0.51634  0.10612  0.11466  1.0000 0.5911082115
C   C8        1.0  0.48434  0.36642  0.35562  1.0000 0.5962471227
C   C9        1.0  0.60706  0.02261  0.91935  1.0000 -0.1105841439
C   C10       1.0  0.66644  0.12006  0.07064  1.0000 -0.1167035018
C   C11       1.0  0.55105  0.11673  0.96244  1.0000 -0.1105841439
C   C12       1.0  0.99675  0.33216  0.82203  1.0000 -0.0475721495
C   C13       1.0  0.01012  0.32084  0.76920  1.0000 0.0760304201
C   C14       1.0  0.01525  0.25501  0.71404  1.0000 -0.1581975756
C   C15       1.0  0.00691  0.19804  0.70907  1.0000 -0.0475721495
C   C16       1.0  0.99429  0.20953  0.76278  1.0000 0.0760304201
C   C17       1.0  0.98869  0.27524  0.81739  1.0000 -0.1581975756
C   C18       1.0  0.99146  0.40168  0.88534  1.0000 0.5911082115
C   C19       1.0  0.01080  0.12872  0.64438  1.0000 0.5962471227
C   C20       1.0  0.10326  0.68771  0.08065  1.0000 -0.1105841439
C   C21       1.0  0.04942  0.59580  0.92936  1.0000 -0.1167035018
C   C22       1.0  0.15429  0.58861  0.03756  1.0000 -0.1105841439
C   C23       1.0  0.92472  0.24675  0.16459  1.0000 -0.0475721495
C   C24       1.0  0.99092  0.26012  0.18928  1.0000 0.0760304201
C   C25       1.0  0.05121  0.26525  0.26024  1.0000 -0.1581975756
C   C26       1.0  0.04784  0.25691  0.30887  1.0000 -0.0475721495
C   C27       1.0  0.98151  0.24429  0.28476  1.0000 0.0760304201
C   C28       1.0  0.92130  0.23869  0.21345  1.0000 -0.1581975756
C   C29       1.0  0.85612  0.24146  0.08978  1.0000 0.5911082115
C   C30       1.0  0.11642  0.26080  0.38208  1.0000 0.5962471227
C   C31       1.0  0.77261  0.35326  0.91555  1.0000 -0.1105841439
C   C32       1.0  0.87006  0.29942  0.95362  1.0000 -0.1167035018
C   C33       1.0  0.86673  0.40429  0.06568  1.0000 -0.1105841439
C   C34       1.0  0.08216  0.76013  0.83541  1.0000 -0.0475721495
C   C35       1.0  0.07084  0.80164  0.81072  1.0000 0.0760304201
C   C36       1.0  0.00501  0.79097  0.73976  1.0000 -0.1581975756
C   C37       1.0  0.94804  0.73897  0.69113  1.0000 -0.0475721495
C   C38       1.0  0.95953  0.69675  0.71524  1.0000 0.0760304201
C   C39       1.0  0.02524  0.70785  0.78655  1.0000 -0.1581975756
C   C40       1.0  0.15168  0.76634  0.91022  1.0000 0.5911082115
C   C41       1.0  0.87872  0.73434  0.61792  1.0000 0.5962471227
C   C42       1.0  0.43771  0.85706  0.08445  1.0000 -0.1105841439
C   C43       1.0  0.34580  0.91644  0.04638  1.0000 -0.1167035018
C   C44       1.0  0.33861  0.80105  0.93432  1.0000 -0.1105841439
C   C45       1.0  0.25325  0.57528  0.83541  1.0000 -0.0475721495
C   C46       1.0  0.23988  0.50908  0.81072  1.0000 0.0760304201
C   C47       1.0  0.23475  0.44879  0.73976  1.0000 -0.1581975756
C   C48       1.0  0.24309  0.45216  0.69113  1.0000 -0.0475721495
C   C49       1.0  0.25571  0.51849  0.71524  1.0000 0.0760304201
C   C50       1.0  0.26131  0.57870  0.78655  1.0000 -0.1581975756
C   C51       1.0  0.25854  0.64388  0.91022  1.0000 0.5911082115
C   C52       1.0  0.23920  0.38358  0.61792  1.0000 0.5962471227
C   C53       1.0  0.14674  0.72739  0.08445  1.0000 -0.1105841439
C   C54       1.0  0.20058  0.62994  0.04638  1.0000 -0.1167035018
C   C55       1.0  0.09571  0.63327  0.93432  1.0000 -0.1105841439
C   C56       1.0  0.73987  0.41784  0.16459  1.0000 -0.0475721495
C   C57       1.0  0.69836  0.42916  0.18928  1.0000 0.0760304201
C   C58       1.0  0.70903  0.49499  0.26024  1.0000 -0.1581975756
C   C59       1.0  0.76103  0.55196  0.30887  1.0000 -0.0475721495
C   C60       1.0  0.80325  0.54047  0.28476  1.0000 0.0760304201
C   C61       1.0  0.79215  0.47476  0.21345  1.0000 -0.1581975756
C   C62       1.0  0.73366  0.34832  0.08978  1.0000 0.5911082115
C   C63       1.0  0.76566  0.62128  0.38208  1.0000 0.5962471227
C   C64       1.0  0.64294  0.06229  0.91555  1.0000 -0.1105841439
C   C65       1.0  0.58356  0.15420  0.95362  1.0000 -0.1167035018
C   C66       1.0  0.69895  0.16139  0.06568  1.0000 -0.1105841439
C   C67       1.0  0.16784  0.50325  0.17797  1.0000 -0.0475721495
C   C68       1.0  0.17916  0.48988  0.23080  1.0000 0.0739659976
C   C69       1.0  0.24499  0.48475  0.28596  1.0000 -0.1581975756
C   C70       1.0  0.30196  0.49309  0.29093  1.0000 -0.0475721495
C   C71       1.0  0.29047  0.50571  0.23722  1.0000 0.0760304201
C   C72       1.0  0.22476  0.51131  0.18261  1.0000 -0.1581975756
C   C73       1.0  0.09832  0.50854  0.11466  1.0000 0.5911082115
C   C74       1.0  0.37128  0.48920  0.35562  1.0000 0.5962471227
C   C75       1.0  0.81229  0.39674  0.91935  1.0000 -0.1105841439
C   C76       1.0  0.90420  0.45058  0.07064  1.0000 -0.1167035018
C   C77       1.0  0.91139  0.34571  0.96244  1.0000 -0.1105841439
C   C78       1.0  0.32528  0.98987  0.82203  1.0000 -0.0475721495
C   C79       1.0  0.25908  0.94836  0.76920  1.0000 0.0760304201
C   C80       1.0  0.19879  0.95903  0.71404  1.0000 -0.1581975756
C   C81       1.0  0.20216  0.01103  0.70907  1.0000 -0.0475721495
C   C82       1.0  0.26849  0.05325  0.76278  1.0000 0.0760304201
C   C83       1.0  0.32870  0.04215  0.81739  1.0000 -0.1581975756
C   C84       1.0  0.39388  0.98366  0.88534  1.0000 0.5911082115
C   C85       1.0  0.13358  0.01566  0.64438  1.0000 0.5962471227
C   C86       1.0  0.47739  0.89294  0.08065  1.0000 -0.1105841439
C   C87       1.0  0.37994  0.83356  0.92936  1.0000 -0.1167035018
C   C88       1.0  0.38327  0.94895  0.03756  1.0000 -0.1105841439
C   C89       1.0  0.23987  0.07528  0.32203  1.0000 -0.0475721495
C   C90       1.0  0.19836  0.00908  0.26920  1.0000 0.0760304201
C   C91       1.0  0.20903  0.94879  0.21404  1.0000 -0.1581975756
C   C92       1.0  0.26103  0.95216  0.20907  1.0000 -0.0475721495
C   C93       1.0  0.30325  0.01849  0.26278  1.0000 0.0760304201
C   C94       1.0  0.29215  0.07870  0.31739  1.0000 -0.1581975756
C   C95       1.0  0.23366  0.14388  0.38534  1.0000 0.5911082115
C   C96       1.0  0.26566  0.88358  0.14438  1.0000 0.5962471227
C   C97       1.0  0.14294  0.22739  0.58065  1.0000 -0.1105841439
C   C98       1.0  0.08356  0.12994  0.42936  1.0000 -0.1167035018
C   C99       1.0  0.19895  0.13327  0.53756  1.0000 -0.1105841439
C   C100      1.0  0.75325  0.91784  0.67797  1.0000 -0.0475721495
C   C101      1.0  0.73988  0.92916  0.73080  1.0000 0.0760304201
C   C102      1.0  0.73475  0.99499  0.78596  1.0000 -0.1581975756
C   C103      1.0  0.74309  0.05196  0.79093  1.0000 -0.0475721495
C   C104      1.0  0.75571  0.04047  0.73722  1.0000 0.0760304201
C   C105      1.0  0.76131  0.97476  0.68261  1.0000 -0.1581975756
C   C106      1.0  0.75854  0.84832  0.61466  1.0000 0.5911082115
C   C107      1.0  0.73920  0.12128  0.85562  1.0000 0.5962471227
C   C108      1.0  0.64674  0.56229  0.41935  1.0000 -0.1105841439
C   C109      1.0  0.70058  0.65420  0.57064  1.0000 -0.1167035018
C   C110      1.0  0.59571  0.66139  0.46244  1.0000 -0.1105841439
C   C111      1.0  0.82528  0.00325  0.33541  1.0000 -0.0475721495
C   C112      1.0  0.75908  0.98988  0.31072  1.0000 0.0760304201
C   C113      1.0  0.69879  0.98475  0.23976  1.0000 -0.1581975756
C   C114      1.0  0.70216  0.99309  0.19113  1.0000 -0.0475721495
C   C115      1.0  0.76849  0.00571  0.21524  1.0000 0.0760304201
C   C116      1.0  0.82870  0.01131  0.28655  1.0000 -0.1581975756
C   C117      1.0  0.89388  0.00854  0.41022  1.0000 0.5911082115
C   C118      1.0  0.63358  0.98920  0.11792  1.0000 0.5962471227
C   C119      1.0  0.97739  0.89674  0.58445  1.0000 -0.1105841439
C   C120      1.0  0.87994  0.95058  0.54638  1.0000 -0.1167035018
C   C121      1.0  0.88327  0.84571  0.43432  1.0000 -0.1105841439
C   C122      1.0  0.66784  0.48987  0.66459  1.0000 -0.0475721495
C   C123      1.0  0.67916  0.44836  0.68928  1.0000 0.0760304201
C   C124      1.0  0.74499  0.45903  0.76024  1.0000 -0.1581975756
C   C125      1.0  0.80196  0.51103  0.80887  1.0000 -0.0475721495
C   C126      1.0  0.79047  0.55325  0.78476  1.0000 0.0760304201
C   C127      1.0  0.72476  0.54215  0.71345  1.0000 -0.1581975756
C   C128      1.0  0.59832  0.48366  0.58978  1.0000 0.5911082115
C   C129      1.0  0.87128  0.51566  0.88208  1.0000 0.5962471227
C   C130      1.0  0.31229  0.39294  0.41555  1.0000 -0.1105841439
C   C131      1.0  0.40420  0.33356  0.45362  1.0000 -0.1167035018
C   C132      1.0  0.41139  0.44895  0.56568  1.0000 -0.1105841439
C   C133      1.0  0.49675  0.67472  0.66459  1.0000 -0.0475721495
C   C134      1.0  0.51012  0.74092  0.68928  1.0000 0.0760304201
C   C135      1.0  0.51525  0.80121  0.76024  1.0000 -0.1581975756
C   C136      1.0  0.50691  0.79784  0.80887  1.0000 -0.0475721495
C   C137      1.0  0.49429  0.73151  0.78476  1.0000 0.0760304201
C   C138      1.0  0.48869  0.67130  0.71345  1.0000 -0.1581975756
C   C139      1.0  0.49146  0.60612  0.58978  1.0000 0.5911082115
C   C140      1.0  0.51080  0.86642  0.88208  1.0000 0.5962471227
C   C141      1.0  0.60326  0.52261  0.41555  1.0000 -0.1105841439
C   C142      1.0  0.54942  0.62006  0.45362  1.0000 -0.1167035018
C   C143      1.0  0.65429  0.61673  0.56568  1.0000 -0.1105841439
C   C144      1.0  0.01013  0.83216  0.33541  1.0000 -0.0475721495
C   C145      1.0  0.05164  0.82084  0.31072  1.0000 0.0760304201
C   C146      1.0  0.04097  0.75501  0.23976  1.0000 -0.1581975756
C   C147      1.0  0.98897  0.69804  0.19113  1.0000 -0.0475721495
C   C148      1.0  0.94675  0.70953  0.21524  1.0000 0.0760304201
C   C149      1.0  0.95785  0.77524  0.28655  1.0000 -0.1581975756
C   C150      1.0  0.01634  0.90168  0.41022  1.0000 0.5911082115
C   C151      1.0  0.98434  0.62872  0.11792  1.0000 0.5962471227
C   C152      1.0  0.10706  0.18771  0.58445  1.0000 -0.1105841439
C   C153      1.0  0.16644  0.09580  0.54638  1.0000 -0.1167035018
C   C154      1.0  0.05105  0.08861  0.43432  1.0000 -0.1105841439
C   C155      1.0  0.58216  0.74675  0.32203  1.0000 -0.0475721495
C   C156      1.0  0.57084  0.76012  0.26920  1.0000 0.0760304201
C   C157      1.0  0.50501  0.76525  0.21404  1.0000 -0.1581975756
C   C158      1.0  0.44804  0.75691  0.20907  1.0000 -0.0475721495
C   C159      1.0  0.45953  0.74429  0.26278  1.0000 0.0760304201
C   C160      1.0  0.52524  0.73869  0.31739  1.0000 -0.1581975756
C   C161      1.0  0.65168  0.74146  0.38534  1.0000 0.5911082115
C   C162      1.0  0.37872  0.76080  0.14438  1.0000 0.5962471227
C   C163      1.0  0.93771  0.85326  0.58065  1.0000 -0.1105841439
C   C164      1.0  0.84580  0.79942  0.42936  1.0000 -0.1167035018
C   C165      1.0  0.83861  0.90429  0.53756  1.0000 -0.1105841439
C   C166      1.0  0.42472  0.26013  0.67797  1.0000 -0.0475721495
C   C167      1.0  0.49092  0.30164  0.73080  1.0000 0.0760304201
C   C168      1.0  0.55121  0.29097  0.78596  1.0000 -0.1581975756
C   C169      1.0  0.54784  0.23897  0.79093  1.0000 -0.0475721495
C   C170      1.0  0.48151  0.19675  0.73722  1.0000 0.0760304201
C   C171      1.0  0.42130  0.20785  0.68261  1.0000 -0.1581975756
C   C172      1.0  0.35612  0.26634  0.61466  1.0000 0.5911082115
C   C173      1.0  0.61642  0.23434  0.85562  1.0000 0.5962471227
C   C174      1.0  0.27261  0.35706  0.41935  1.0000 -0.1105841439
C   C175      1.0  0.37006  0.41644  0.57064  1.0000 -0.1167035018
C   C176      1.0  0.36673  0.30105  0.46244  1.0000 -0.1105841439
Br  Br1       1.0  0.62763  0.25496  0.23601  1.0000 -0.0697437253
Br  Br2       1.0  0.37070  0.21840  0.23222  1.0000 -0.0644373501
Br  Br3       1.0  0.01895  0.39162  0.76399  1.0000 -0.0697437253
Br  Br4       1.0  0.98618  0.13848  0.76778  1.0000 -0.0644373501
Br  Br5       1.0  0.00496  0.26895  0.12733  1.0000 -0.0697437253
Br  Br6       1.0  0.96840  0.23618  0.34770  1.0000 -0.0644373501
Br  Br7       1.0  0.14162  0.87763  0.87267  1.0000 -0.0697437253
Br  Br8       1.0  0.88848  0.62070  0.65230  1.0000 -0.0644373501
Br  Br9       1.0  0.23105  0.49504  0.87267  1.0000 -0.0697437253
Br  Br10      1.0  0.26382  0.53160  0.65230  1.0000 -0.0644373501
Br  Br11      1.0  0.62237  0.35838  0.12733  1.0000 -0.0697437253
Br  Br12      1.0  0.87930  0.61152  0.34770  1.0000 -0.0644373501
Br  Br13      1.0  0.10838  0.48105  0.23601  1.0000 -0.0697437253
Br  Br14      1.0  0.36152  0.51382  0.23222  1.0000 -0.0644373501
Br  Br15      1.0  0.24504  0.87237  0.76399  1.0000 -0.0697437253
Br  Br16      1.0  0.28160  0.12930  0.76778  1.0000 -0.0644373501
Br  Br17      1.0  0.12237  0.99504  0.26399  1.0000 -0.0697437253
Br  Br18      1.0  0.37930  0.03160  0.26778  1.0000 -0.0644373501
Br  Br19      1.0  0.73105  0.85838  0.73601  1.0000 -0.0697437253
Br  Br20      1.0  0.76382  0.11152  0.73222  1.0000 -0.0644373501
Br  Br21      1.0  0.74504  0.98105  0.37267  1.0000 -0.0697437253
Br  Br22      1.0  0.78160  0.01382  0.15230  1.0000 -0.0644373501
Br  Br23      1.0  0.60838  0.37237  0.62733  1.0000 -0.0697437253
Br  Br24      1.0  0.86152  0.62930  0.84770  1.0000 -0.0644373501
Br  Br25      1.0  0.51895  0.75496  0.62733  1.0000 -0.0697437253
Br  Br26      1.0  0.48618  0.71840  0.84770  1.0000 -0.0644373501
Br  Br27      1.0  0.12763  0.89162  0.37267  1.0000 -0.0697437253
Br  Br28      1.0  0.87070  0.63848  0.15230  1.0000 -0.0644373501
Br  Br29      1.0  0.64162  0.76895  0.26399  1.0000 -0.0697437253
Br  Br30      1.0  0.38848  0.73618  0.26778  1.0000 -0.0644373501
Br  Br31      1.0  0.50496  0.37763  0.73601  1.0000 -0.0697437253
Br  Br32      1.0  0.46840  0.12070  0.73222  1.0000 -0.0644373501
N   N1        1.0  0.59683  0.07276  0.98601  1.0000 -0.093765444
N   N2        1.0  0.08675  0.61082  0.01399  1.0000 -0.093765444
N   N3        1.0  0.82276  0.33675  0.97593  1.0000 -0.093765444
N   N4        1.0  0.36082  0.84683  0.02407  1.0000 -0.093765444
N   N5        1.0  0.16325  0.67724  0.02407  1.0000 -0.093765444
N   N6        1.0  0.65317  0.13918  0.97593  1.0000 -0.093765444
N   N7        1.0  0.88918  0.41325  0.98601  1.0000 -0.093765444
N   N8        1.0  0.42724  0.90317  0.01399  1.0000 -0.093765444
N   N9        1.0  0.15317  0.17724  0.51399  1.0000 -0.093765444
N   N10       1.0  0.66325  0.63918  0.48601  1.0000 -0.093765444
N   N11       1.0  0.92724  0.91325  0.52407  1.0000 -0.093765444
N   N12       1.0  0.38918  0.40317  0.47593  1.0000 -0.093765444
N   N13       1.0  0.58675  0.57276  0.47593  1.0000 -0.093765444
N   N14       1.0  0.09683  0.11082  0.52407  1.0000 -0.093765444
N   N15       1.0  0.86082  0.83675  0.51399  1.0000 -0.093765444
N   N16       1.0  0.32276  0.34683  0.48601  1.0000 -0.093765444
O   O1        1.0  0.52929  0.10643  0.07330  1.0000 -0.5443410043
O   O2        1.0  0.50503  0.05363  0.10702  1.0000 -0.5495601062
O   O3        1.0  0.49981  0.41958  0.36701  1.0000 -0.5495601062
O   O4        1.0  0.46774  0.36577  0.39387  1.0000 -0.5495601062
O   O5        1.0  0.03313  0.45599  0.92670  1.0000 -0.5443410043
O   O6        1.0  0.94661  0.39801  0.89298  1.0000 -0.5495601062
O   O7        1.0  0.05257  0.13280  0.63299  1.0000 -0.5495601062
O   O8        1.0  0.97190  0.07387  0.60613  1.0000 -0.5495601062
O   O9        1.0  0.85643  0.28313  0.07714  1.0000 -0.5443410043
O   O10       1.0  0.80363  0.19661  0.04860  1.0000 -0.5495601062
O   O11       1.0  0.16958  0.30257  0.41977  1.0000 -0.5495601062
O   O12       1.0  0.11577  0.22190  0.39803  1.0000 -0.5495601062
O   O13       1.0  0.20599  0.77929  0.92286  1.0000 -0.5443410043
O   O14       1.0  0.14801  0.75503  0.95140  1.0000 -0.5495601062
O   O15       1.0  0.88280  0.74981  0.58023  1.0000 -0.5495601062
O   O16       1.0  0.82387  0.71774  0.60197  1.0000 -0.5495601062
O   O17       1.0  0.21687  0.64357  0.92286  1.0000 -0.5443410043
O   O18       1.0  0.30339  0.69637  0.95140  1.0000 -0.5495601062
O   O19       1.0  0.19743  0.33042  0.58023  1.0000 -0.5495601062
O   O20       1.0  0.27810  0.38423  0.60197  1.0000 -0.5495601062
O   O21       1.0  0.72071  0.29401  0.07714  1.0000 -0.5443410043
O   O22       1.0  0.74497  0.35199  0.04860  1.0000 -0.5495601062
O   O23       1.0  0.75019  0.61720  0.41977  1.0000 -0.5495601062
O   O24       1.0  0.78226  0.67613  0.39803  1.0000 -0.5495601062
O   O25       1.0  0.04401  0.46687  0.07330  1.0000 -0.5443410043
O   O26       1.0  0.10199  0.55339  0.10702  1.0000 -0.5495601062
O   O27       1.0  0.36720  0.44743  0.36701  1.0000 -0.5495601062
O   O28       1.0  0.42613  0.52810  0.39387  1.0000 -0.5495601062
O   O29       1.0  0.39357  0.97071  0.92670  1.0000 -0.5443410043
O   O30       1.0  0.44637  0.99497  0.89298  1.0000 -0.5495601062
O   O31       1.0  0.08042  0.00019  0.63299  1.0000 -0.5495601062
O   O32       1.0  0.13423  0.03226  0.60613  1.0000 -0.5495601062
O   O33       1.0  0.22071  0.14357  0.42670  1.0000 -0.5443410043
O   O34       1.0  0.24497  0.19637  0.39298  1.0000 -0.5495601062
O   O35       1.0  0.25019  0.83042  0.13299  1.0000 -0.5495601062
O   O36       1.0  0.28226  0.88423  0.10613  1.0000 -0.5495601062
O   O37       1.0  0.71687  0.79401  0.57330  1.0000 -0.5443410043
O   O38       1.0  0.80339  0.85199  0.60702  1.0000 -0.5495601062
O   O39       1.0  0.69743  0.11720  0.86701  1.0000 -0.5495601062
O   O40       1.0  0.77810  0.17613  0.89387  1.0000 -0.5495601062
O   O41       1.0  0.89357  0.96687  0.42286  1.0000 -0.5443410043
O   O42       1.0  0.94637  0.05339  0.45140  1.0000 -0.5495601062
O   O43       1.0  0.58042  0.94743  0.08023  1.0000 -0.5495601062
O   O44       1.0  0.63423  0.02810  0.10197  1.0000 -0.5495601062
O   O45       1.0  0.54401  0.47071  0.57714  1.0000 -0.5443410043
O   O46       1.0  0.60199  0.49497  0.54860  1.0000 -0.5495601062
O   O47       1.0  0.86720  0.50019  0.91977  1.0000 -0.5495601062
O   O48       1.0  0.92613  0.53226  0.89803  1.0000 -0.5495601062
O   O49       1.0  0.53313  0.60643  0.57714  1.0000 -0.5443410043
O   O50       1.0  0.44661  0.55363  0.54860  1.0000 -0.5495601062
O   O51       1.0  0.55257  0.91958  0.91977  1.0000 -0.5495601062
O   O52       1.0  0.47190  0.86577  0.89803  1.0000 -0.5495601062
O   O53       1.0  0.02929  0.95599  0.42286  1.0000 -0.5443410043
O   O54       1.0  0.00503  0.89801  0.45140  1.0000 -0.5495601062
O   O55       1.0  0.99981  0.63280  0.08023  1.0000 -0.5495601062
O   O56       1.0  0.96774  0.57387  0.10197  1.0000 -0.5495601062
O   O57       1.0  0.70599  0.78313  0.42670  1.0000 -0.5443410043
O   O58       1.0  0.64801  0.69661  0.39298  1.0000 -0.5495601062
O   O59       1.0  0.38280  0.80257  0.13299  1.0000 -0.5495601062
O   O60       1.0  0.32387  0.72190  0.10613  1.0000 -0.5495601062
O   O61       1.0  0.35643  0.27929  0.57330  1.0000 -0.5443410043
O   O62       1.0  0.30363  0.25503  0.60702  1.0000 -0.5495601062
O   O63       1.0  0.66958  0.24981  0.86701  1.0000 -0.5495601062
O   O64       1.0  0.61577  0.21774  0.89387  1.0000 -0.5495601062
