# DDEC6 charges by PACMAN v1.1 (https://github.com/mtap-research/PACMAN-charge/)
data_2022[Cd][fsc]3[ASR]1
_chemical_formula_sum              "Cd4 H44 C76 N4 O20"
_cell_length_a       7.8213
_cell_length_b       15.1874
_cell_length_c       17.6388
_cell_angle_alpha    72.638
_cell_angle_beta     81.669
_cell_angle_gamma    82.146

_symmetry_space_group_name_H-M    "P 1"
_symmetry_Int_Tables_number       1

loop_
  _symmetry_equiv_pos_as_xyz
  'x, y, z'

loop_
  _atom_site_type_symbol
  _atom_site_label
  _atom_site_symmetry_multiplicity
  _atom_site_fract_x
  _atom_site_fract_y
  _atom_site_fract_z
  _atom_site_occupancy
  _atom_site_charge
Cd  Cd1       1.0  0.59205  0.40715  0.83975  1.0000 0.9371854907
Cd  Cd2       1.0  0.10331  0.56518  0.82407  1.0000 0.9327501899
Cd  Cd3       1.0  0.40795  0.59285  0.16025  1.0000 0.9371854907
Cd  Cd4       1.0  0.89669  0.43482  0.17593  1.0000 0.9327501899
H   H1        1.0  0.61681  0.19149  0.86997  1.0000 0.1100359799
H   H2        1.0  0.27399  0.34548  0.97058  1.0000 0.1204534889
H   H3        1.0  0.08825  0.23232  0.01003  1.0000 0.1401590223
H   H4        1.0  0.44147  0.07444  0.90607  1.0000 0.1272275483
H   H5        1.0  0.29544  0.95620  0.99362  1.0000 0.1100359799
H   H6        1.0  0.20276  0.69815  0.91420  1.0000 0.1272275483
H   H7        1.0  0.10448  0.84517  0.02740  1.0000 0.1204534889
H   H8        1.0  0.27588  0.02196  0.59457  1.0000 0.1204534889
H   H9        1.0  0.38470  0.14786  0.50190  1.0000 0.1204534889
H   H10       1.0  0.19615  0.85710  0.87569  1.0000 0.1100359799
H   H11       1.0  0.47668  0.30691  0.70811  1.0000 0.1272275483
H   H12       1.0  0.24081  0.08201  0.72614  1.0000 0.1272275483
H   H13       1.0  0.45440  0.62542  0.70950  1.0000 0.1204534889
H   H14       1.0  0.57386  0.74779  0.61660  1.0000 0.1401590223
H   H15       1.0  0.86314  0.97347  0.85496  1.0000 0.1583128518
H   H16       1.0  0.44928  0.92854  0.82993  1.0000 0.1204534889
H   H17       1.0  0.48237  0.16325  0.68758  1.0000 0.1100359799
H   H18       1.0  0.02006  0.77667  0.73530  1.0000 0.1100359799
H   H19       1.0  0.12491  0.90289  0.64408  1.0000 0.1272275483
H   H20       1.0  0.89034  0.16743  0.64237  1.0000 0.1401590223
H   H21       1.0  0.77945  0.06832  0.58823  1.0000 0.1100359799
H   H22       1.0  0.70711  0.92373  0.66645  1.0000 0.1401590223
H   H23       1.0  0.38319  0.80851  0.13003  1.0000 0.1100359799
H   H24       1.0  0.72601  0.65452  0.02942  1.0000 0.1204534889
H   H25       1.0  0.91175  0.76768  0.98997  1.0000 0.1401590223
H   H26       1.0  0.55853  0.92556  0.09393  1.0000 0.1272275483
H   H27       1.0  0.70456  0.04380  0.00638  1.0000 0.1100359799
H   H28       1.0  0.79724  0.30185  0.08580  1.0000 0.1272275483
H   H29       1.0  0.89552  0.15483  0.97260  1.0000 0.1204534889
H   H30       1.0  0.72412  0.97804  0.40543  1.0000 0.1204534889
H   H31       1.0  0.61530  0.85214  0.49810  1.0000 0.1204534889
H   H32       1.0  0.80385  0.14290  0.12431  1.0000 0.1100359799
H   H33       1.0  0.52332  0.69309  0.29189  1.0000 0.1272275483
H   H34       1.0  0.75919  0.91799  0.27386  1.0000 0.1272275483
H   H35       1.0  0.54560  0.37458  0.29050  1.0000 0.1204534889
H   H36       1.0  0.42614  0.25221  0.38340  1.0000 0.1401590223
H   H37       1.0  0.13686  0.02653  0.14504  1.0000 0.1583128518
H   H38       1.0  0.55072  0.07146  0.17007  1.0000 0.1204534889
H   H39       1.0  0.51763  0.83675  0.31242  1.0000 0.1100359799
H   H40       1.0  0.97994  0.22333  0.26470  1.0000 0.1100359799
H   H41       1.0  0.87509  0.09711  0.35592  1.0000 0.1272275483
H   H42       1.0  0.10966  0.83257  0.35763  1.0000 0.1401590223
H   H43       1.0  0.22055  0.93168  0.41177  1.0000 0.1100359799
H   H44       1.0  0.29289  0.07627  0.33355  1.0000 0.1401590223
C   C1        1.0  0.50810  0.20000  0.89770  1.0000 0.0762023127
C   C2        1.0  0.89690  0.31160  0.79940  1.0000 0.5798292603
C   C3        1.0  0.30670  0.29050  0.95682  1.0000 0.0904089755
C   C4        1.0  0.19410  0.22300  0.98046  1.0000 -0.1578006053
C   C5        1.0  0.40320  0.12950  0.91900  1.0000 -0.1986738298
C   C6        1.0  0.23930  0.14000  0.95988  1.0000 0.1100359799
C   C7        1.0  0.79030  0.66420  0.84410  1.0000 0.5798292603
C   C8        1.0  0.11680  0.06850  0.97978  1.0000 0.0565530064
C   C9        1.0  0.22240  0.31820  0.74959  1.0000 -0.0285250598
C   C10       1.0  0.21610  0.41410  0.75907  1.0000 0.5798292603
C   C11       1.0  0.45870  0.56850  0.89878  1.0000 0.5703525191
C   C12       1.0  0.17670  0.97410  0.99625  1.0000 -0.141669547
C   C13       1.0  0.30500  0.72600  0.89390  1.0000 -0.1279985512
C   C14       1.0  0.06190  0.90740  0.01630  1.0000 -0.1279985512
C   C15       1.0  0.61320  0.71380  0.85820  1.0000 -0.1208563749
C   C16       1.0  0.43340  0.92250  0.55756  1.0000 0.0565530064
C   C17       1.0  0.07280  0.27150  0.76982  1.0000 -0.1208563749
C   C18       1.0  0.36670  0.01280  0.55650  1.0000 -0.141669547
C   C19       1.0  0.46060  0.67130  0.88580  1.0000 -0.0391081774
C   C20       1.0  0.08340  0.18220  0.76230  1.0000 0.2148168331
C   C21       1.0  0.88620  0.07920  0.75330  1.0000 0.2621939426
C   C22       1.0  0.43150  0.08850  0.50070  1.0000 -0.141669547
C   C23       1.0  0.36340  0.84170  0.61793  1.0000 0.1100359799
C   C24       1.0  0.30160  0.82120  0.87190  1.0000 -0.0813897455
C   C25       1.0  0.60760  0.81000  0.83810  1.0000 0.2148168331
C   C26       1.0  0.37640  0.27650  0.72050  1.0000 -0.1208563749
C   C27       1.0  0.23590  0.14130  0.73180  1.0000 -0.2231204514
C   C28       1.0  0.38700  0.68210  0.69580  1.0000 0.0984542912
C   C29       1.0  0.46030  0.75560  0.63970  1.0000 -0.187463885
C   C30       1.0  0.84660  0.99230  0.80110  1.0000 -0.3137501085
C   C31       1.0  0.45230  0.86430  0.84420  1.0000 -0.2231204514
C   C32       1.0  0.78240  0.93450  0.76750  1.0000 0.2476072258
C   C33       1.0  0.38040  0.18950  0.70990  1.0000 -0.0875773484
C   C34       1.0  0.13290  0.77080  0.71080  1.0000 0.0904089755
C   C35       1.0  0.19520  0.84710  0.65600  1.0000 -0.1986738298
C   C36       1.0  0.86270  0.10910  0.67390  1.0000 -0.2231204514
C   C37       1.0  0.79610  0.04940  0.64210  1.0000 -0.066566916
C   C38       1.0  0.75390  0.96240  0.68840  1.0000 -0.2298407534
C   C39       1.0  0.49190  0.80000  0.10230  1.0000 0.0762023127
C   C40       1.0  0.10310  0.68840  0.20060  1.0000 0.5798292603
C   C41       1.0  0.69330  0.70950  0.04318  1.0000 0.0904089755
C   C42       1.0  0.80590  0.77700  0.01954  1.0000 -0.1578006053
C   C43       1.0  0.59680  0.87050  0.08100  1.0000 -0.1986738298
C   C44       1.0  0.76070  0.86000  0.04012  1.0000 0.1100359799
C   C45       1.0  0.20970  0.33580  0.15590  1.0000 0.5798292603
C   C46       1.0  0.88320  0.93150  0.02022  1.0000 0.0565530064
C   C47       1.0  0.77760  0.68180  0.25041  1.0000 -0.0285250598
C   C48       1.0  0.78390  0.58590  0.24093  1.0000 0.5798292603
C   C49       1.0  0.54130  0.43150  0.10122  1.0000 0.5703525191
C   C50       1.0  0.82330  0.02590  0.00375  1.0000 -0.141669547
C   C51       1.0  0.69500  0.27400  0.10610  1.0000 -0.1279985512
C   C52       1.0  0.93810  0.09260  0.98370  1.0000 -0.1279985512
C   C53       1.0  0.38680  0.28620  0.14180  1.0000 -0.1208563749
C   C54       1.0  0.56660  0.07750  0.44244  1.0000 0.0565530064
C   C55       1.0  0.92720  0.72850  0.23018  1.0000 -0.1208563749
C   C56       1.0  0.63330  0.98720  0.44350  1.0000 -0.141669547
C   C57       1.0  0.53940  0.32870  0.11420  1.0000 -0.0391081774
C   C58       1.0  0.91660  0.81780  0.23770  1.0000 0.2148168331
C   C59       1.0  0.11380  0.92080  0.24670  1.0000 0.2621939426
C   C60       1.0  0.56850  0.91150  0.49930  1.0000 -0.141669547
C   C61       1.0  0.63660  0.15830  0.38207  1.0000 0.1100359799
C   C62       1.0  0.69840  0.17880  0.12810  1.0000 -0.0813897455
C   C63       1.0  0.39240  0.19000  0.16190  1.0000 0.2148168331
C   C64       1.0  0.62360  0.72350  0.27950  1.0000 -0.1208563749
C   C65       1.0  0.76410  0.85870  0.26820  1.0000 -0.2231204514
C   C66       1.0  0.61300  0.31790  0.30420  1.0000 0.0984542912
C   C67       1.0  0.53970  0.24440  0.36030  1.0000 -0.187463885
C   C68       1.0  0.15340  0.00770  0.19890  1.0000 -0.3137501085
C   C69       1.0  0.54770  0.13570  0.15580  1.0000 -0.2231204514
C   C70       1.0  0.21760  0.06550  0.23250  1.0000 0.2476072258
C   C71       1.0  0.61960  0.81050  0.29010  1.0000 -0.0875773484
C   C72       1.0  0.86710  0.22920  0.28920  1.0000 0.0904089755
C   C73       1.0  0.80480  0.15290  0.34400  1.0000 -0.1986738298
C   C74       1.0  0.13730  0.89090  0.32610  1.0000 -0.2231204514
C   C75       1.0  0.20390  0.95060  0.35790  1.0000 -0.066566916
C   C76       1.0  0.24610  0.03760  0.31160  1.0000 -0.2298407534
N   N1        1.0  0.46130  0.28077  0.91489  1.0000 -0.2505660558
N   N2        1.0  0.22600  0.68763  0.73124  1.0000 -0.2505660558
N   N3        1.0  0.53870  0.71923  0.08511  1.0000 -0.2505660558
N   N4        1.0  0.77400  0.31237  0.26876  1.0000 -0.2505660558
O   O1        1.0  0.87120  0.32332  0.86850  1.0000 -0.5593007261
O   O2        1.0  0.60180  0.51907  0.89880  1.0000 -0.4993848854
O   O3        1.0  0.82980  0.64553  0.77816  1.0000 -0.5453445667
O   O4        1.0  0.89630  0.64937  0.89453  1.0000 -0.5386004949
O   O5        1.0  0.07330  0.46400  0.75329  1.0000 -0.4993848854
O   O6        1.0  0.34920  0.44209  0.77194  1.0000 -0.5954659337
O   O7        1.0  0.77980  0.32988  0.75387  1.0000 -0.5386004949
O   O8        1.0  0.31590  0.53717  0.90510  1.0000 -0.5593007261
O   O9        1.0  0.93800  0.13538  0.79294  1.0000 -0.1986738298
O   O10       1.0  0.76700  0.84409  0.81480  1.0000 -0.2083917016
O   O11       1.0  0.12880  0.67668  0.13150  1.0000 -0.5593007261
O   O12       1.0  0.39820  0.48093  0.10120  1.0000 -0.4993848854
O   O13       1.0  0.17020  0.35447  0.22184  1.0000 -0.5453445667
O   O14       1.0  0.10370  0.35063  0.10547  1.0000 -0.5386004949
O   O15       1.0  0.92670  0.53600  0.24671  1.0000 -0.4993848854
O   O16       1.0  0.65080  0.55791  0.22806  1.0000 -0.5954659337
O   O17       1.0  0.22020  0.67012  0.24613  1.0000 -0.5386004949
O   O18       1.0  0.68410  0.46283  0.09490  1.0000 -0.5593007261
O   O19       1.0  0.06200  0.86462  0.20706  1.0000 -0.1986738298
O   O20       1.0  0.23300  0.15591  0.18520  1.0000 -0.2083917016
