# DDEC6 charges by PACMAN v1.1 (https://github.com/mtap-research/PACMAN-charge/)
data_2022[Mn][kgd]2[ASR]2
_chemical_formula_sum              "Mn6 H72 C168 N36 O48"
_cell_length_a       21.4111
_cell_length_b       22.6255
_cell_length_c       23.2304
_cell_angle_alpha    61.166
_cell_angle_beta     64.616
_cell_angle_gamma    74.946

_symmetry_space_group_name_H-M    "P 1"
_symmetry_Int_Tables_number       1

loop_
  _symmetry_equiv_pos_as_xyz
  'x, y, z'

loop_
  _atom_site_type_symbol
  _atom_site_label
  _atom_site_symmetry_multiplicity
  _atom_site_fract_x
  _atom_site_fract_y
  _atom_site_fract_z
  _atom_site_occupancy
  _atom_site_charge
Mn  Mn1       1.0  0.54813  0.61783  0.03823  1.0000 0.9965214935
Mn  Mn2       1.0  0.52889  0.92451  0.88048  1.0000 0.9870491233
Mn  Mn3       1.0  0.45187  0.38217  0.96177  1.0000 0.9965214935
Mn  Mn4       1.0  0.47111  0.07549  0.11952  1.0000 0.9870491233
Mn  Mn5       1.0  0.50000  0.00000  0.00000  1.0000 1.0988033023
Mn  Mn6       1.0  0.50000  0.50000  0.00000  1.0000 1.0878743139
H   H1        1.0  0.09481  0.56226  0.47356  1.0000 0.1753645894
H   H2        1.0  0.08905  0.39748  0.65592  1.0000 0.1716559803
H   H3        1.0  0.26581  0.43558  0.48482  1.0000 0.1716559803
H   H4        1.0  0.80949  0.52184  0.74356  1.0000 0.1196224004
H   H5        1.0  0.69685  0.52261  0.82504  1.0000 0.1196224004
H   H6        1.0  0.75916  0.61658  0.89800  1.0000 0.1196224004
H   H7        1.0  0.87064  0.61653  0.81739  1.0000 0.1196224004
H   H8        1.0  0.16203  0.68020  0.54727  1.0000 0.1716559803
H   H9        1.0  0.16219  0.51344  0.72696  1.0000 0.1716559803
H   H10       1.0  0.33617  0.55549  0.55166  1.0000 0.1716559803
H   H11       1.0  0.32047  0.17536  0.72793  1.0000 0.1196224004
H   H12       1.0  0.38070  0.07825  0.78531  1.0000 0.1269074938
H   H13       1.0  0.42742  0.17773  0.86368  1.0000 0.1269074938
H   H14       1.0  0.37348  0.27616  0.80305  1.0000 0.1269074938
H   H15       1.0  0.34217  0.67461  0.18786  1.0000 0.1269074938
H   H16       1.0  0.40035  0.74579  0.07091  1.0000 0.1269074938
H   H17       1.0  0.44309  0.86330  0.13480  1.0000 0.1196224004
H   H18       1.0  0.38188  0.79399  0.25203  1.0000 0.1269074938
H   H19       1.0  0.41514  0.67036  0.84920  1.0000 0.1269074938
H   H20       1.0  0.36351  0.76147  0.77710  1.0000 0.1196224004
H   H21       1.0  0.37665  0.87863  0.85912  1.0000 0.1269074938
H   H22       1.0  0.43308  0.78774  0.92804  1.0000 0.1269074938
H   H23       1.0  0.32750  0.03185  0.51875  1.0000 0.1716559803
H   H24       1.0  0.14929  0.12978  0.48275  1.0000 0.1716559803
H   H25       1.0  0.14142  0.95131  0.65381  1.0000 0.1716559803
H   H26       1.0  0.41292  0.30601  0.26237  1.0000 0.1269074938
H   H27       1.0  0.47050  0.39808  0.16260  1.0000 0.1196224004
H   H28       1.0  0.35937  0.52164  0.25723  1.0000 0.1269074938
H   H29       1.0  0.30239  0.42970  0.35701  1.0000 0.1196224004
H   H30       1.0  0.10450  0.23014  0.62937  1.0000 0.1716559803
H   H31       1.0  0.13535  0.05025  0.78448  1.0000 0.1716559803
H   H32       1.0  0.29900  0.16027  0.63040  1.0000 0.1716559803
H   H33       1.0  0.84853  0.00932  0.70034  1.0000 0.1196224004
H   H34       1.0  0.73243  0.98636  0.75558  1.0000 0.1196224004
H   H35       1.0  0.70540  0.07234  0.88257  1.0000 0.1196224004
H   H36       1.0  0.82252  0.09851  0.82523  1.0000 0.1196224004
H   H37       1.0  0.90519  0.43774  0.52644  1.0000 0.1753645894
H   H38       1.0  0.91095  0.60252  0.34408  1.0000 0.1716559803
H   H39       1.0  0.73419  0.56442  0.51518  1.0000 0.1716559803
H   H40       1.0  0.19051  0.47816  0.25644  1.0000 0.1196224004
H   H41       1.0  0.30315  0.47739  0.17496  1.0000 0.1196224004
H   H42       1.0  0.24084  0.38342  0.10200  1.0000 0.1196224004
H   H43       1.0  0.12936  0.38347  0.18261  1.0000 0.1196224004
H   H44       1.0  0.83797  0.31980  0.45273  1.0000 0.1716559803
H   H45       1.0  0.83781  0.48656  0.27304  1.0000 0.1716559803
H   H46       1.0  0.66383  0.44451  0.44834  1.0000 0.1716559803
H   H47       1.0  0.67953  0.82464  0.27207  1.0000 0.1196224004
H   H48       1.0  0.61930  0.92175  0.21469  1.0000 0.1269074938
H   H49       1.0  0.57258  0.82227  0.13632  1.0000 0.1269074938
H   H50       1.0  0.62652  0.72384  0.19695  1.0000 0.1269074938
H   H51       1.0  0.65783  0.32539  0.81214  1.0000 0.1269074938
H   H52       1.0  0.59965  0.25421  0.92909  1.0000 0.1269074938
H   H53       1.0  0.55691  0.13670  0.86520  1.0000 0.1196224004
H   H54       1.0  0.61812  0.20601  0.74797  1.0000 0.1269074938
H   H55       1.0  0.58486  0.32964  0.15080  1.0000 0.1269074938
H   H56       1.0  0.63649  0.23853  0.22290  1.0000 0.1196224004
H   H57       1.0  0.62335  0.12137  0.14088  1.0000 0.1269074938
H   H58       1.0  0.56692  0.21226  0.07196  1.0000 0.1269074938
H   H59       1.0  0.67250  0.96815  0.48125  1.0000 0.1716559803
H   H60       1.0  0.85071  0.87022  0.51725  1.0000 0.1716559803
H   H61       1.0  0.85858  0.04869  0.34619  1.0000 0.1716559803
H   H62       1.0  0.58708  0.69399  0.73763  1.0000 0.1269074938
H   H63       1.0  0.52950  0.60192  0.83740  1.0000 0.1196224004
H   H64       1.0  0.64063  0.47836  0.74277  1.0000 0.1269074938
H   H65       1.0  0.69761  0.57030  0.64299  1.0000 0.1196224004
H   H66       1.0  0.89550  0.76986  0.37063  1.0000 0.1716559803
H   H67       1.0  0.86465  0.94975  0.21552  1.0000 0.1716559803
H   H68       1.0  0.70100  0.83973  0.36960  1.0000 0.1716559803
H   H69       1.0  0.15147  0.99068  0.29966  1.0000 0.1196224004
H   H70       1.0  0.26757  0.01364  0.24442  1.0000 0.1196224004
H   H71       1.0  0.29460  0.92766  0.11743  1.0000 0.1196224004
H   H72       1.0  0.17748  0.90149  0.17477  1.0000 0.1196224004
C   C1        1.0  0.18532  0.50376  0.46992  1.0000 0.2725957316
C   C2        1.0  0.11721  0.52285  0.49988  1.0000 -0.2817990532
C   C3        1.0  0.08322  0.48319  0.56859  1.0000 0.2725957316
C   C4        1.0  0.11390  0.42500  0.60814  1.0000 -0.2746525201
C   C5        1.0  0.21860  0.44780  0.50620  1.0000 -0.2746525201
C   C6        1.0  0.18080  0.40920  0.57570  1.0000 0.2809919064
C   C7        1.0  0.00002  0.53120  0.64230  1.0000 0.5197991289
C   C8        1.0  0.92221  0.56710  0.72210  1.0000 0.3891294655
C   C9        1.0  0.03340  0.58830  0.67740  1.0000 0.5303864163
C   C10       1.0  0.85120  0.56970  0.77200  1.0000 0.0190298074
C   C11       1.0  0.79950  0.54140  0.77500  1.0000 -0.0994818876
C   C12       1.0  0.73243  0.54120  0.82410  1.0000 -0.0994818876
C   C13       1.0  0.71769  0.56778  0.87088  1.0000 -0.0131847357
C   C14       1.0  0.76920  0.59660  0.86690  1.0000 -0.0994818876
C   C15       1.0  0.83550  0.59710  0.81850  1.0000 -0.0923668983
C   C16       1.0  0.64619  0.56533  0.92586  1.0000 0.5998133627
C   C17       1.0  0.25271  0.62291  0.54157  1.0000 0.2725957316
C   C18       1.0  0.18513  0.64063  0.57252  1.0000 -0.2883135038
C   C19       1.0  0.15183  0.59910  0.64160  1.0000 0.2725957316
C   C20       1.0  0.18550  0.54150  0.67888  1.0000 -0.2817990532
C   C21       1.0  0.25250  0.52656  0.64470  1.0000 0.2725957316
C   C22       1.0  0.28907  0.56650  0.57487  1.0000 -0.2883135038
C   C23       1.0  0.24750  0.35350  0.64910  1.0000 0.5124239978
C   C24       1.0  0.30940  0.29980  0.71780  1.0000 0.3779481855
C   C25       1.0  0.28380  0.41010  0.68140  1.0000 0.5124239978
C   C26       1.0  0.34410  0.23590  0.75730  1.0000 0.0364076775
C   C27       1.0  0.34380  0.17640  0.75410  1.0000 -0.1092509544
C   C28       1.0  0.37830  0.11840  0.78980  1.0000 -0.0994818876
C   C29       1.0  0.40870  0.11765  0.83120  1.0000 -0.0177454188
C   C30       1.0  0.40640  0.17750  0.83520  1.0000 -0.0994818876
C   C31       1.0  0.37470  0.23580  0.79930  1.0000 -0.1092509544
C   C32       1.0  0.44440  0.05430  0.87200  1.0000 0.5900248991
C   C33       1.0  0.25510  0.59460  0.38552  1.0000 0.5197991289
C   C34       1.0  0.31880  0.68240  0.30590  1.0000 0.3891294655
C   C35       1.0  0.28670  0.65279  0.42005  1.0000 0.5197991289
C   C36       1.0  0.35590  0.72758  0.23094  1.0000 0.0301983674
C   C37       1.0  0.36180  0.71340  0.17720  1.0000 -0.0994818876
C   C38       1.0  0.39650  0.75570  0.10770  1.0000 -0.0923668983
C   C39       1.0  0.42583  0.81290  0.09137  1.0000 -0.0315407975
C   C40       1.0  0.42150  0.82571  0.14535  1.0000 -0.0994818876
C   C41       1.0  0.38580  0.78403  0.21520  1.0000 -0.1163550335
C   C42       1.0  0.46190  0.85738  0.01691  1.0000 0.5720560906
C   C43       1.0  0.46070  0.66077  0.94481  1.0000 0.5900248991
C   C44       1.0  0.42811  0.71951  0.89703  1.0000 -0.0177454188
C   C45       1.0  0.40770  0.71279  0.85100  1.0000 -0.1092509544
C   C46       1.0  0.37680  0.76699  0.80820  1.0000 -0.0994818876
C   C47       1.0  0.36490  0.82928  0.80983  1.0000 0.0139924903
C   C48       1.0  0.38520  0.83650  0.85650  1.0000 -0.0994818876
C   C49       1.0  0.41780  0.78210  0.89828  1.0000 -0.1092509544
C   C50       1.0  0.33170  0.88756  0.76530  1.0000 0.3891294655
C   C51       1.0  0.28420  0.99351  0.73431  1.0000 0.5197991289
C   C52       1.0  0.28540  0.93469  0.68117  1.0000 0.5303864163
C   C53       1.0  0.23810  0.98426  0.59222  1.0000 0.2809919064
C   C54       1.0  0.27863  0.03421  0.53218  1.0000 -0.2955488059
C   C55       1.0  0.24323  0.08758  0.49325  1.0000 0.2809919064
C   C56       1.0  0.17204  0.09260  0.51091  1.0000 -0.2883135038
C   C57       1.0  0.13658  0.04140  0.57070  1.0000 0.2725957316
C   C58       1.0  0.16770  0.98639  0.61251  1.0000 -0.2883135038
C   C59       1.0  0.28490  0.19527  0.43736  1.0000 0.5303864163
C   C60       1.0  0.31864  0.30025  0.38356  1.0000 0.3891294655
C   C61       1.0  0.25934  0.25295  0.49921  1.0000 0.5303864163
C   C62       1.0  0.40250  0.34973  0.26171  1.0000 -0.1092509544
C   C63       1.0  0.43672  0.40441  0.20251  1.0000 -0.0994818876
C   C64       1.0  0.42171  0.46833  0.20143  1.0000 -0.0131847357
C   C65       1.0  0.37103  0.47767  0.25848  1.0000 -0.0994818876
C   C66       1.0  0.33710  0.42309  0.31763  1.0000 -0.1092509544
C   C67       1.0  0.35339  0.35896  0.31970  1.0000 0.0301983674
C   C68       1.0  0.46154  0.52582  0.13870  1.0000 0.5720560906
C   C69       1.0  0.20470  0.20217  0.62139  1.0000 0.2873560247
C   C70       1.0  0.13490  0.19615  0.65031  1.0000 -0.2883135038
C   C71       1.0  0.10996  0.13880  0.71120  1.0000 0.2873560247
C   C72       1.0  0.15300  0.08959  0.74280  1.0000 -0.2883135038
C   C73       1.0  0.22251  0.09943  0.71183  1.0000 0.2809919064
C   C74       1.0  0.25060  0.15479  0.65102  1.0000 -0.2817990532
C   C75       1.0  0.02520  0.06260  0.64340  1.0000 0.5197991289
C   C76       1.0  0.92090  0.06960  0.72200  1.0000 0.3891294655
C   C77       1.0  0.01330  0.10370  0.71600  1.0000 0.5197991289
C   C78       1.0  0.84590  0.05620  0.75640  1.0000 0.0301983674
C   C79       1.0  0.81940  0.02260  0.73710  1.0000 -0.0994818876
C   C80       1.0  0.75080  0.00810  0.77060  1.0000 -0.0994818876
C   C81       1.0  0.70770  0.02500  0.82680  1.0000 -0.0315407975
C   C82       1.0  0.73460  0.05930  0.84560  1.0000 -0.0923668983
C   C83       1.0  0.80420  0.07540  0.81150  1.0000 -0.1092509544
C   C84       1.0  0.63470  0.00490  0.86600  1.0000 0.5900248991
C   C85       1.0  0.81468  0.49624  0.53008  1.0000 0.2725957316
C   C86       1.0  0.88279  0.47715  0.50012  1.0000 -0.2817990532
C   C87       1.0  0.91678  0.51681  0.43141  1.0000 0.2725957316
C   C88       1.0  0.88610  0.57500  0.39186  1.0000 -0.2746525201
C   C89       1.0  0.78140  0.55220  0.49380  1.0000 -0.2746525201
C   C90       1.0  0.81920  0.59080  0.42430  1.0000 0.2809919064
C   C91       1.0  0.99998  0.46880  0.35770  1.0000 0.5197991289
C   C92       1.0  0.07779  0.43290  0.27790  1.0000 0.3891294655
C   C93       1.0  0.96660  0.41170  0.32260  1.0000 0.5303864163
C   C94       1.0  0.14880  0.43030  0.22800  1.0000 0.0190298074
C   C95       1.0  0.20050  0.45860  0.22500  1.0000 -0.0994818876
C   C96       1.0  0.26757  0.45880  0.17590  1.0000 -0.0994818876
C   C97       1.0  0.28231  0.43222  0.12912  1.0000 -0.0131847357
C   C98       1.0  0.23080  0.40340  0.13310  1.0000 -0.0994818876
C   C99       1.0  0.16450  0.40290  0.18150  1.0000 -0.0923668983
C   C100      1.0  0.35381  0.43467  0.07414  1.0000 0.5998133627
C   C101      1.0  0.74729  0.37709  0.45843  1.0000 0.2725957316
C   C102      1.0  0.81487  0.35937  0.42748  1.0000 -0.2817990532
C   C103      1.0  0.84817  0.40090  0.35840  1.0000 0.2725957316
C   C104      1.0  0.81450  0.45850  0.32112  1.0000 -0.2817990532
C   C105      1.0  0.74750  0.47344  0.35530  1.0000 0.2725957316
C   C106      1.0  0.71093  0.43350  0.42513  1.0000 -0.2883135038
C   C107      1.0  0.75250  0.64650  0.35090  1.0000 0.5124239978
C   C108      1.0  0.69060  0.70020  0.28220  1.0000 0.3779481855
C   C109      1.0  0.71620  0.58990  0.31860  1.0000 0.5124239978
C   C110      1.0  0.65590  0.76410  0.24270  1.0000 0.0364076775
C   C111      1.0  0.65620  0.82360  0.24590  1.0000 -0.1092509544
C   C112      1.0  0.62170  0.88160  0.21020  1.0000 -0.0994818876
C   C113      1.0  0.59130  0.88235  0.16880  1.0000 -0.0177454188
C   C114      1.0  0.59360  0.82250  0.16480  1.0000 -0.0994818876
C   C115      1.0  0.62530  0.76420  0.20070  1.0000 -0.1092509544
C   C116      1.0  0.55560  0.94570  0.12800  1.0000 0.5900248991
C   C117      1.0  0.74490  0.40540  0.61448  1.0000 0.5197991289
C   C118      1.0  0.68120  0.31760  0.69410  1.0000 0.3891294655
C   C119      1.0  0.71330  0.34721  0.57995  1.0000 0.5197991289
C   C120      1.0  0.64410  0.27242  0.76906  1.0000 0.0301983674
C   C121      1.0  0.63820  0.28660  0.82280  1.0000 -0.0994818876
C   C122      1.0  0.60350  0.24430  0.89230  1.0000 -0.0923668983
C   C123      1.0  0.57417  0.18710  0.90863  1.0000 -0.0315407975
C   C124      1.0  0.57850  0.17429  0.85465  1.0000 -0.0994818876
C   C125      1.0  0.61420  0.21597  0.78480  1.0000 -0.1163550335
C   C126      1.0  0.53810  0.14262  0.98309  1.0000 0.5720560906
C   C127      1.0  0.53930  0.33923  0.05519  1.0000 0.5900248991
C   C128      1.0  0.57189  0.28049  0.10297  1.0000 -0.0177454188
C   C129      1.0  0.59230  0.28721  0.14900  1.0000 -0.1092509544
C   C130      1.0  0.62320  0.23301  0.19180  1.0000 -0.0994818876
C   C131      1.0  0.63510  0.17072  0.19017  1.0000 0.0139924903
C   C132      1.0  0.61480  0.16350  0.14350  1.0000 -0.0994818876
C   C133      1.0  0.58220  0.21790  0.10172  1.0000 -0.1092509544
C   C134      1.0  0.66830  0.11244  0.23470  1.0000 0.3891294655
C   C135      1.0  0.71580  0.00649  0.26569  1.0000 0.5197991289
C   C136      1.0  0.71460  0.06531  0.31883  1.0000 0.5303864163
C   C137      1.0  0.76190  0.01574  0.40778  1.0000 0.2809919064
C   C138      1.0  0.72137  0.96579  0.46782  1.0000 -0.2955488059
C   C139      1.0  0.75677  0.91242  0.50675  1.0000 0.2809919064
C   C140      1.0  0.82796  0.90740  0.48909  1.0000 -0.2883135038
C   C141      1.0  0.86342  0.95860  0.42930  1.0000 0.2725957316
C   C142      1.0  0.83230  0.01361  0.38749  1.0000 -0.2883135038
C   C143      1.0  0.71510  0.80473  0.56264  1.0000 0.5303864163
C   C144      1.0  0.68136  0.69975  0.61644  1.0000 0.3891294655
C   C145      1.0  0.74066  0.74705  0.50079  1.0000 0.5303864163
C   C146      1.0  0.59750  0.65027  0.73829  1.0000 -0.1092509544
C   C147      1.0  0.56328  0.59559  0.79749  1.0000 -0.0994818876
C   C148      1.0  0.57829  0.53167  0.79857  1.0000 -0.0131847357
C   C149      1.0  0.62897  0.52233  0.74152  1.0000 -0.0994818876
C   C150      1.0  0.66290  0.57691  0.68237  1.0000 -0.1092509544
C   C151      1.0  0.64661  0.64104  0.68030  1.0000 0.0301983674
C   C152      1.0  0.53846  0.47418  0.86130  1.0000 0.5720560906
C   C153      1.0  0.79530  0.79783  0.37861  1.0000 0.2873560247
C   C154      1.0  0.86510  0.80385  0.34969  1.0000 -0.2883135038
C   C155      1.0  0.89004  0.86120  0.28880  1.0000 0.2873560247
C   C156      1.0  0.84700  0.91041  0.25720  1.0000 -0.2883135038
C   C157      1.0  0.77749  0.90057  0.28817  1.0000 0.2809919064
C   C158      1.0  0.74940  0.84521  0.34898  1.0000 -0.2817990532
C   C159      1.0  0.97480  0.93740  0.35660  1.0000 0.5197991289
C   C160      1.0  0.07910  0.93040  0.27800  1.0000 0.3891294655
C   C161      1.0  0.98670  0.89630  0.28400  1.0000 0.5197991289
C   C162      1.0  0.15410  0.94380  0.24360  1.0000 0.0301983674
C   C163      1.0  0.18060  0.97740  0.26290  1.0000 -0.0994818876
C   C164      1.0  0.24920  0.99190  0.22940  1.0000 -0.0994818876
C   C165      1.0  0.29230  0.97500  0.17320  1.0000 -0.0315407975
C   C166      1.0  0.26540  0.94070  0.15440  1.0000 -0.0923668983
C   C167      1.0  0.19580  0.92460  0.18850  1.0000 -0.1092509544
C   C168      1.0  0.36530  0.99510  0.13400  1.0000 0.5900248991
N   N1        1.0  0.97104  0.59567  0.72107  1.0000 -0.4411188809
N   N2        1.0  0.93427  0.53507  0.68284  1.0000 -0.4411188809
N   N3        1.0  0.05318  0.55661  0.63670  1.0000 -0.4706775825
N   N4        1.0  0.25191  0.60264  0.43934  1.0000 -0.4479371567
N   N5        1.0  0.32207  0.69522  0.35516  1.0000 -0.4411188809
N   N6        1.0  0.28670  0.63203  0.31763  1.0000 -0.4311172608
N   N7        1.0  0.24898  0.41315  0.64476  1.0000 -0.4706775825
N   N8        1.0  0.31524  0.35708  0.71856  1.0000 -0.4311172608
N   N9        1.0  0.27530  0.29506  0.68290  1.0000 -0.4479371567
N   N10       1.0  0.05611  0.08827  0.66417  1.0000 -0.4589525554
N   N11       1.0  0.94522  0.09660  0.74860  1.0000 -0.4479371567
N   N12       1.0  0.95884  0.05190  0.66810  1.0000 -0.4411188809
N   N13       1.0  0.25402  0.19543  0.50016  1.0000 -0.4706775825
N   N14       1.0  0.28851  0.30866  0.44341  1.0000 -0.4589525554
N   N15       1.0  0.31952  0.24452  0.37737  1.0000 -0.4411188809
N   N16       1.0  0.26743  0.99299  0.68570  1.0000 -0.4706775825
N   N17       1.0  0.31730  0.94498  0.77411  1.0000 -0.4479371567
N   N18       1.0  0.31739  0.88023  0.71787  1.0000 -0.4411188809
N   N19       1.0  0.02896  0.40433  0.27893  1.0000 -0.4411188809
N   N20       1.0  0.06573  0.46493  0.31716  1.0000 -0.4411188809
N   N21       1.0  0.94682  0.44339  0.36330  1.0000 -0.4706775825
N   N22       1.0  0.74809  0.39736  0.56066  1.0000 -0.4479371567
N   N23       1.0  0.67793  0.30478  0.64484  1.0000 -0.4411188809
N   N24       1.0  0.71330  0.36797  0.68237  1.0000 -0.4311172608
N   N25       1.0  0.75102  0.58685  0.35524  1.0000 -0.4706775825
N   N26       1.0  0.68476  0.64292  0.28144  1.0000 -0.4311172608
N   N27       1.0  0.72470  0.70494  0.31710  1.0000 -0.4479371567
N   N28       1.0  0.94389  0.91173  0.33583  1.0000 -0.4589525554
N   N29       1.0  0.05478  0.90340  0.25140  1.0000 -0.4479371567
N   N30       1.0  0.04116  0.94810  0.33190  1.0000 -0.4411188809
N   N31       1.0  0.74598  0.80457  0.49984  1.0000 -0.4706775825
N   N32       1.0  0.71149  0.69134  0.55659  1.0000 -0.4589525554
N   N33       1.0  0.68048  0.75548  0.62263  1.0000 -0.4411188809
N   N34       1.0  0.73257  0.00701  0.31430  1.0000 -0.4706775825
N   N35       1.0  0.68270  0.05502  0.22589  1.0000 -0.4479371567
N   N36       1.0  0.68261  0.11977  0.28213  1.0000 -0.4479371567
O   O1        1.0  0.08286  0.61593  0.67660  1.0000 -0.2412688052
O   O2        1.0  0.01192  0.49983  0.60180  1.0000 -0.2491824272
O   O3        1.0  0.28898  0.66548  0.47007  1.0000 -0.2412688052
O   O4        1.0  0.22176  0.54405  0.39835  1.0000 -0.2491824272
O   O5        1.0  0.28838  0.46847  0.68201  1.0000 -0.2412688052
O   O6        1.0  0.21287  0.34899  0.61437  1.0000 -0.2273138519
O   O7        1.0  0.45888  0.05641  0.91805  1.0000 -0.5592380805
O   O8        1.0  0.45550  0.00483  0.85717  1.0000 -0.5592380805
O   O9        1.0  0.49745  0.90314  0.00049  1.0000 -0.565887073
O   O10       1.0  0.45780  0.84909  0.96891  1.0000 -0.5354591402
O   O11       1.0  0.63343  0.60119  0.95688  1.0000 -0.5592380805
O   O12       1.0  0.60594  0.52689  0.93636  1.0000 -0.5521715674
O   O13       1.0  0.46107  0.60328  0.94928  1.0000 -0.5592380805
O   O14       1.0  0.48555  0.67435  0.97682  1.0000 -0.5592380805
O   O15       1.0  0.26786  0.05017  0.74438  1.0000 -0.2412688052
O   O16       1.0  0.27127  0.92818  0.63329  1.0000 -0.2412688052
O   O17       1.0  0.23057  0.25977  0.55948  1.0000 -0.2273138519
O   O18       1.0  0.28297  0.13954  0.43128  1.0000 -0.2412688052
O   O19       1.0  0.06400  0.04412  0.59040  1.0000 -0.2412688052
O   O20       1.0  0.03834  0.13076  0.74227  1.0000 -0.2412688052
O   O21       1.0  0.45645  0.58064  0.14180  1.0000 -0.5332790209
O   O22       1.0  0.50323  0.51731  0.08378  1.0000 -0.5831669363
O   O23       1.0  0.61053  0.98397  0.83873  1.0000 -0.5831669363
O   O24       1.0  0.60467  0.00937  0.92387  1.0000 -0.5592380805
O   O25       1.0  0.91714  0.38407  0.32340  1.0000 -0.2412688052
O   O26       1.0  0.98808  0.50017  0.39820  1.0000 -0.2491824272
O   O27       1.0  0.71102  0.33452  0.52993  1.0000 -0.2412688052
O   O28       1.0  0.77824  0.45595  0.60165  1.0000 -0.2491824272
O   O29       1.0  0.71162  0.53153  0.31799  1.0000 -0.2412688052
O   O30       1.0  0.78713  0.65101  0.38563  1.0000 -0.2273138519
O   O31       1.0  0.54112  0.94359  0.08195  1.0000 -0.5592380805
O   O32       1.0  0.54450  0.99517  0.14283  1.0000 -0.5592380805
O   O33       1.0  0.50255  0.09686  0.99951  1.0000 -0.565887073
O   O34       1.0  0.54220  0.15091  0.03109  1.0000 -0.5332790209
O   O35       1.0  0.36657  0.39881  0.04312  1.0000 -0.5592380805
O   O36       1.0  0.39406  0.47311  0.06364  1.0000 -0.5521715674
O   O37       1.0  0.53893  0.39672  0.05072  1.0000 -0.5592380805
O   O38       1.0  0.51445  0.32565  0.02318  1.0000 -0.5592380805
O   O39       1.0  0.73214  0.94983  0.25562  1.0000 -0.2412688052
O   O40       1.0  0.72873  0.07182  0.36671  1.0000 -0.2412688052
O   O41       1.0  0.76943  0.74023  0.44052  1.0000 -0.2273138519
O   O42       1.0  0.71703  0.86046  0.56872  1.0000 -0.2412688052
O   O43       1.0  0.93600  0.95588  0.40960  1.0000 -0.2412688052
O   O44       1.0  0.96166  0.86924  0.25773  1.0000 -0.2412688052
O   O45       1.0  0.54355  0.41936  0.85820  1.0000 -0.5332790209
O   O46       1.0  0.49677  0.48269  0.91622  1.0000 -0.5831669363
O   O47       1.0  0.38947  0.01603  0.16127  1.0000 -0.5831669363
O   O48       1.0  0.39533  0.99063  0.07613  1.0000 -0.5592380805
