# DDEC6 charges by PACMAN v1.1 (https://github.com/mtap-research/PACMAN-charge/)
data_2022[Co][nan]3[ASR]13
_chemical_formula_sum              "Co12 H36 C78 N24 O30"
_cell_length_a       20.9394
_cell_length_b       20.9394
_cell_length_c       20.9394
_cell_angle_alpha    115.964
_cell_angle_beta     115.964
_cell_angle_gamma    115.964

_symmetry_space_group_name_H-M    "P 1"
_symmetry_Int_Tables_number       1

loop_
  _symmetry_equiv_pos_as_xyz
  'x, y, z'

loop_
  _atom_site_type_symbol
  _atom_site_label
  _atom_site_symmetry_multiplicity
  _atom_site_fract_x
  _atom_site_fract_y
  _atom_site_fract_z
  _atom_site_occupancy
  _atom_site_charge
Co  Co1       1.0  0.33348  0.52872  0.78926  1.0000 0.7940128291
Co  Co2       1.0  0.43192  0.53326  0.96773  1.0000 0.8056526228
Co  Co3       1.0  0.52872  0.78926  0.33348  1.0000 0.7940128291
Co  Co4       1.0  0.53326  0.96773  0.43192  1.0000 0.8056526228
Co  Co5       1.0  0.78926  0.33348  0.52872  1.0000 0.7940128291
Co  Co6       1.0  0.96773  0.43192  0.53326  1.0000 0.8056526228
Co  Co7       1.0  0.66652  0.47128  0.21074  1.0000 0.7940128291
Co  Co8       1.0  0.56808  0.46674  0.03227  1.0000 0.8056526228
Co  Co9       1.0  0.47128  0.21074  0.66652  1.0000 0.7940128291
Co  Co10      1.0  0.46674  0.03227  0.56808  1.0000 0.8056526228
Co  Co11      1.0  0.21074  0.66652  0.47128  1.0000 0.7940128291
Co  Co12      1.0  0.03227  0.56808  0.46674  1.0000 0.8056526228
H   H1        1.0  0.08810  0.21310  0.73300  1.0000 0.126992442
H   H2        1.0  0.89810  0.05910  0.61020  1.0000 0.126992442
H   H3        1.0  0.85030  0.22030  0.58950  1.0000 0.1167730386
H   H4        1.0  0.03560  0.36430  0.69430  1.0000 0.1109395854
H   H5        1.0  0.36690  0.42040  0.66540  1.0000 0.126992442
H   H6        1.0  0.55110  0.35190  0.88060  1.0000 0.1109395854
H   H7        1.0  0.21310  0.73300  0.08810  1.0000 0.126992442
H   H8        1.0  0.05910  0.61020  0.89810  1.0000 0.126992442
H   H9        1.0  0.22030  0.58950  0.85030  1.0000 0.1167730386
H   H10       1.0  0.36430  0.69430  0.03560  1.0000 0.1109395854
H   H11       1.0  0.42040  0.66540  0.36690  1.0000 0.126992442
H   H12       1.0  0.35190  0.88060  0.55110  1.0000 0.1109395854
H   H13       1.0  0.73300  0.08810  0.21310  1.0000 0.126992442
H   H14       1.0  0.61020  0.89810  0.05910  1.0000 0.126992442
H   H15       1.0  0.58950  0.85030  0.22030  1.0000 0.1167730386
H   H16       1.0  0.69430  0.03560  0.36430  1.0000 0.1109395854
H   H17       1.0  0.66540  0.36690  0.42040  1.0000 0.126992442
H   H18       1.0  0.88060  0.55110  0.35190  1.0000 0.1109395854
H   H19       1.0  0.91190  0.78690  0.26700  1.0000 0.126992442
H   H20       1.0  0.10190  0.94090  0.38980  1.0000 0.126992442
H   H21       1.0  0.14970  0.77970  0.41050  1.0000 0.1167730386
H   H22       1.0  0.96440  0.63570  0.30570  1.0000 0.1109395854
H   H23       1.0  0.63310  0.57960  0.33460  1.0000 0.126992442
H   H24       1.0  0.44890  0.64810  0.11940  1.0000 0.1109395854
H   H25       1.0  0.78690  0.26700  0.91190  1.0000 0.126992442
H   H26       1.0  0.94090  0.38980  0.10190  1.0000 0.126992442
H   H27       1.0  0.77970  0.41050  0.14970  1.0000 0.1167730386
H   H28       1.0  0.63570  0.30570  0.96440  1.0000 0.1109395854
H   H29       1.0  0.57960  0.33460  0.63310  1.0000 0.126992442
H   H30       1.0  0.64810  0.11940  0.44890  1.0000 0.1109395854
H   H31       1.0  0.26700  0.91190  0.78690  1.0000 0.126992442
H   H32       1.0  0.38980  0.10190  0.94090  1.0000 0.126992442
H   H33       1.0  0.41050  0.14970  0.77970  1.0000 0.1167730386
H   H34       1.0  0.30570  0.96440  0.63570  1.0000 0.1109395854
H   H35       1.0  0.33460  0.63310  0.57960  1.0000 0.126992442
H   H36       1.0  0.11940  0.44890  0.64810  1.0000 0.1109395854
C   C1        1.0  0.19794  0.39517  0.79149  1.0000 0.588742956
C   C2        1.0  0.07943  0.30249  0.72308  1.0000 -0.0232345207
C   C3        1.0  0.03863  0.21235  0.70012  1.0000 -0.1066709961
C   C4        1.0  0.92699  0.12278  0.63013  1.0000 -0.1023802237
C   C5        1.0  0.85580  0.12499  0.58811  1.0000 -0.0148969193
C   C6        1.0  0.89757  0.21696  0.61517  1.0000 -0.1023802237
C   C7        1.0  0.00854  0.30382  0.67984  1.0000 -0.1023802237
C   C8        1.0  0.73312  0.02621  0.50927  1.0000 0.5815291548
C   C9        1.0  0.39333  0.43154  0.72383  1.0000 0.0429072859
C   C10       1.0  0.43787  0.40148  0.75105  1.0000 -0.1912822207
C   C11       1.0  0.46508  0.43516  0.84166  1.0000 0.314192821
C   C12       1.0  0.52055  0.36493  0.84712  1.0000 0.2719486698
C   C13       1.0  0.45164  0.34315  0.70441  1.0000 0.4860263263
C   C14       1.0  0.39517  0.79149  0.19794  1.0000 0.588742956
C   C15       1.0  0.30249  0.72308  0.07943  1.0000 -0.0232345207
C   C16       1.0  0.21235  0.70012  0.03863  1.0000 -0.1066709961
C   C17       1.0  0.12278  0.63013  0.92699  1.0000 -0.1023802237
C   C18       1.0  0.12499  0.58811  0.85580  1.0000 -0.0148969193
C   C19       1.0  0.21696  0.61517  0.89757  1.0000 -0.1023802237
C   C20       1.0  0.30382  0.67984  0.00854  1.0000 -0.1023802237
C   C21       1.0  0.02621  0.50927  0.73312  1.0000 0.5815291548
C   C22       1.0  0.43154  0.72383  0.39333  1.0000 0.0429072859
C   C23       1.0  0.40148  0.75105  0.43787  1.0000 -0.1912822207
C   C24       1.0  0.43516  0.84166  0.46508  1.0000 0.314192821
C   C25       1.0  0.36493  0.84712  0.52055  1.0000 0.2719486698
C   C26       1.0  0.34315  0.70441  0.45164  1.0000 0.4860263263
C   C27       1.0  0.79149  0.19794  0.39517  1.0000 0.588742956
C   C28       1.0  0.72308  0.07943  0.30249  1.0000 -0.0232345207
C   C29       1.0  0.70012  0.03863  0.21235  1.0000 -0.1066709961
C   C30       1.0  0.63013  0.92699  0.12278  1.0000 -0.1023802237
C   C31       1.0  0.58811  0.85580  0.12499  1.0000 -0.0148969193
C   C32       1.0  0.61517  0.89757  0.21696  1.0000 -0.1023802237
C   C33       1.0  0.67984  0.00854  0.30382  1.0000 -0.1023802237
C   C34       1.0  0.50927  0.73312  0.02621  1.0000 0.5815291548
C   C35       1.0  0.72383  0.39333  0.43154  1.0000 0.0429072859
C   C36       1.0  0.75105  0.43787  0.40148  1.0000 -0.1912822207
C   C37       1.0  0.84166  0.46508  0.43516  1.0000 0.314192821
C   C38       1.0  0.84712  0.52055  0.36493  1.0000 0.2719486698
C   C39       1.0  0.70441  0.45164  0.34315  1.0000 0.4860263263
C   C40       1.0  0.80206  0.60483  0.20851  1.0000 0.588742956
C   C41       1.0  0.92057  0.69751  0.27692  1.0000 -0.0232345207
C   C42       1.0  0.96137  0.78765  0.29988  1.0000 -0.1066709961
C   C43       1.0  0.07301  0.87722  0.36987  1.0000 -0.1023802237
C   C44       1.0  0.14420  0.87501  0.41189  1.0000 -0.0148969193
C   C45       1.0  0.10243  0.78304  0.38483  1.0000 -0.1023802237
C   C46       1.0  0.99146  0.69618  0.32016  1.0000 -0.1023802237
C   C47       1.0  0.26688  0.97379  0.49073  1.0000 0.5815291548
C   C48       1.0  0.60667  0.56846  0.27617  1.0000 0.0429072859
C   C49       1.0  0.56213  0.59852  0.24895  1.0000 -0.1912822207
C   C50       1.0  0.53492  0.56484  0.15834  1.0000 0.314192821
C   C51       1.0  0.47945  0.63507  0.15288  1.0000 0.2719486698
C   C52       1.0  0.54836  0.65685  0.29559  1.0000 0.4860263263
C   C53       1.0  0.60483  0.20851  0.80206  1.0000 0.588742956
C   C54       1.0  0.69751  0.27692  0.92057  1.0000 -0.0232345207
C   C55       1.0  0.78765  0.29988  0.96137  1.0000 -0.1066709961
C   C56       1.0  0.87722  0.36987  0.07301  1.0000 -0.1023802237
C   C57       1.0  0.87501  0.41189  0.14420  1.0000 -0.0148969193
C   C58       1.0  0.78304  0.38483  0.10243  1.0000 -0.1023802237
C   C59       1.0  0.69618  0.32016  0.99146  1.0000 -0.1023802237
C   C60       1.0  0.97379  0.49073  0.26688  1.0000 0.5815291548
C   C61       1.0  0.56846  0.27617  0.60667  1.0000 0.0429072859
C   C62       1.0  0.59852  0.24895  0.56213  1.0000 -0.1912822207
C   C63       1.0  0.56484  0.15834  0.53492  1.0000 0.314192821
C   C64       1.0  0.63507  0.15288  0.47945  1.0000 0.2719486698
C   C65       1.0  0.65685  0.29559  0.54836  1.0000 0.4860263263
C   C66       1.0  0.20851  0.80206  0.60483  1.0000 0.588742956
C   C67       1.0  0.27692  0.92057  0.69751  1.0000 -0.0232345207
C   C68       1.0  0.29988  0.96137  0.78765  1.0000 -0.1066709961
C   C69       1.0  0.36987  0.07301  0.87722  1.0000 -0.1023802237
C   C70       1.0  0.41189  0.14420  0.87501  1.0000 -0.0148969193
C   C71       1.0  0.38483  0.10243  0.78304  1.0000 -0.1023802237
C   C72       1.0  0.32016  0.99146  0.69618  1.0000 -0.1023802237
C   C73       1.0  0.49073  0.26688  0.97379  1.0000 0.5815291548
C   C74       1.0  0.27617  0.60667  0.56846  1.0000 0.0429072859
C   C75       1.0  0.24895  0.56213  0.59852  1.0000 -0.1912822207
C   C76       1.0  0.15834  0.53492  0.56484  1.0000 0.314192821
C   C77       1.0  0.15288  0.47945  0.63507  1.0000 0.2719486698
C   C78       1.0  0.29559  0.54836  0.65685  1.0000 0.4860263263
N   N1        1.0  0.39350  0.47805  0.79235  1.0000 -0.1912822207
N   N2        1.0  0.43977  0.48234  0.86839  1.0000 -0.3282686776
N   N3        1.0  0.49424  0.32645  0.75891  1.0000 -0.4189515219
N   N4        1.0  0.50972  0.41900  0.89418  1.0000 -0.3873842016
N   N5        1.0  0.47805  0.79235  0.39350  1.0000 -0.1912822207
N   N6        1.0  0.48234  0.86839  0.43977  1.0000 -0.3282686776
N   N7        1.0  0.32645  0.75891  0.49424  1.0000 -0.4189515219
N   N8        1.0  0.41900  0.89418  0.50972  1.0000 -0.3873842016
N   N9        1.0  0.79235  0.39350  0.47805  1.0000 -0.1912822207
N   N10       1.0  0.86839  0.43977  0.48234  1.0000 -0.3282686776
N   N11       1.0  0.75891  0.49424  0.32645  1.0000 -0.4189515219
N   N12       1.0  0.89418  0.50972  0.41900  1.0000 -0.3873842016
N   N13       1.0  0.60650  0.52195  0.20765  1.0000 -0.1912822207
N   N14       1.0  0.56023  0.51766  0.13161  1.0000 -0.3282686776
N   N15       1.0  0.50576  0.67355  0.24109  1.0000 -0.4189515219
N   N16       1.0  0.49028  0.58100  0.10582  1.0000 -0.3873842016
N   N17       1.0  0.52195  0.20765  0.60650  1.0000 -0.1912822207
N   N18       1.0  0.51766  0.13161  0.56023  1.0000 -0.3282686776
N   N19       1.0  0.67355  0.24109  0.50576  1.0000 -0.4189515219
N   N20       1.0  0.58100  0.10582  0.49028  1.0000 -0.3873842016
N   N21       1.0  0.20765  0.60650  0.52195  1.0000 -0.1912822207
N   N22       1.0  0.13161  0.56023  0.51766  1.0000 -0.3282686776
N   N23       1.0  0.24109  0.50576  0.67355  1.0000 -0.4189515219
N   N24       1.0  0.10582  0.49028  0.58100  1.0000 -0.3873842016
O   O1        1.0  0.22054  0.44891  0.77605  1.0000 -0.5514339165
O   O2        1.0  0.26939  0.41309  0.86082  1.0000 -0.5313745495
O   O3        1.0  0.69119  0.93279  0.45772  1.0000 -0.5196033076
O   O4        1.0  0.68013  0.04274  0.49803  1.0000 -0.5582229352
O   O5        1.0  0.42748  0.30411  0.62271  1.0000 -0.4731161948
O   O6        1.0  0.44891  0.77605  0.22054  1.0000 -0.5514339165
O   O7        1.0  0.41309  0.86082  0.26939  1.0000 -0.5313745495
O   O8        1.0  0.93279  0.45772  0.69119  1.0000 -0.5196033076
O   O9        1.0  0.04274  0.49803  0.68013  1.0000 -0.5582229352
O   O10       1.0  0.30411  0.62271  0.42748  1.0000 -0.4766748901
O   O11       1.0  0.77605  0.22054  0.44891  1.0000 -0.5514339165
O   O12       1.0  0.86082  0.26939  0.41309  1.0000 -0.5313745495
O   O13       1.0  0.45772  0.69119  0.93279  1.0000 -0.5196033076
O   O14       1.0  0.49803  0.68013  0.04274  1.0000 -0.5582229352
O   O15       1.0  0.62271  0.42748  0.30411  1.0000 -0.4731161948
O   O16       1.0  0.77946  0.55109  0.22395  1.0000 -0.5514339165
O   O17       1.0  0.73061  0.58691  0.13918  1.0000 -0.5313745495
O   O18       1.0  0.30881  0.06721  0.54228  1.0000 -0.5196033076
O   O19       1.0  0.31987  0.95726  0.50197  1.0000 -0.5582229352
O   O20       1.0  0.57252  0.69589  0.37729  1.0000 -0.4766748901
O   O21       1.0  0.55109  0.22395  0.77946  1.0000 -0.5514339165
O   O22       1.0  0.58691  0.13918  0.73061  1.0000 -0.5313745495
O   O23       1.0  0.06721  0.54228  0.30881  1.0000 -0.5196033076
O   O24       1.0  0.95726  0.50197  0.31987  1.0000 -0.5582229352
O   O25       1.0  0.69589  0.37729  0.57252  1.0000 -0.4731161948
O   O26       1.0  0.22395  0.77946  0.55109  1.0000 -0.5514339165
O   O27       1.0  0.13918  0.73061  0.58691  1.0000 -0.5313745495
O   O28       1.0  0.54228  0.30881  0.06721  1.0000 -0.5196033076
O   O29       1.0  0.50197  0.31987  0.95726  1.0000 -0.5582229352
O   O30       1.0  0.37729  0.57252  0.69589  1.0000 -0.4766748901
