# DDEC6 charges by PACMAN v1.1 (https://github.com/mtap-research/PACMAN-charge/)
data_2022[Zn][utj]3[ASR]1
_chemical_formula_sum              "Zn16 C48 O96"
_cell_length_a       15.6601
_cell_length_b       17.6325
_cell_length_c       18.4194
_cell_angle_alpha    90
_cell_angle_beta     90
_cell_angle_gamma    90

_symmetry_space_group_name_H-M    "P 1"
_symmetry_Int_Tables_number       1

loop_
  _symmetry_equiv_pos_as_xyz
  'x, y, z'

loop_
  _atom_site_type_symbol
  _atom_site_label
  _atom_site_symmetry_multiplicity
  _atom_site_fract_x
  _atom_site_fract_y
  _atom_site_fract_z
  _atom_site_occupancy
  _atom_site_charge
Zn  Zn1       1.0  0.07865  0.81062  0.13082  1.0000 0.9243351085
Zn  Zn2       1.0  0.41210  0.86740  0.18656  1.0000 0.9372927509
Zn  Zn3       1.0  0.07865  0.18938  0.86918  1.0000 0.9303610152
Zn  Zn4       1.0  0.41210  0.13260  0.81344  1.0000 0.9303610152
Zn  Zn5       1.0  0.92135  0.18938  0.13082  1.0000 0.9303610152
Zn  Zn6       1.0  0.58790  0.13260  0.18656  1.0000 0.9303610152
Zn  Zn7       1.0  0.92135  0.81062  0.86918  1.0000 0.9243351085
Zn  Zn8       1.0  0.58790  0.86740  0.81344  1.0000 0.9372927509
Zn  Zn9       1.0  0.92135  0.68938  0.36918  1.0000 0.9303610152
Zn  Zn10      1.0  0.58790  0.63260  0.31344  1.0000 0.9303610152
Zn  Zn11      1.0  0.92135  0.31062  0.63082  1.0000 0.9243351085
Zn  Zn12      1.0  0.58790  0.36740  0.68656  1.0000 0.9303610152
Zn  Zn13      1.0  0.07865  0.31062  0.36918  1.0000 0.9303610152
Zn  Zn14      1.0  0.41210  0.36740  0.31344  1.0000 0.9303610152
Zn  Zn15      1.0  0.07865  0.68938  0.63082  1.0000 0.9303610152
Zn  Zn16      1.0  0.41210  0.63260  0.68656  1.0000 0.9303610152
C   C1        1.0  0.03380  0.71870  0.25220  1.0000 0.5517361531
C   C2        1.0  0.46560  0.74710  0.28060  1.0000 0.5517361531
C   C3        1.0  0.25850  0.82050  0.12240  1.0000 0.5605824374
C   C4        1.0  0.23160  0.87730  0.18210  1.0000 0.5605824374
C   C5        1.0  0.03380  0.28130  0.74780  1.0000 0.5517361531
C   C6        1.0  0.46560  0.25290  0.71940  1.0000 0.5517361531
C   C7        1.0  0.25850  0.17950  0.87760  1.0000 0.5605824374
C   C8        1.0  0.23160  0.12270  0.81790  1.0000 0.5605824374
C   C9        1.0  0.96620  0.28130  0.25220  1.0000 0.5517361531
C   C10       1.0  0.53440  0.25290  0.28060  1.0000 0.5517361531
C   C11       1.0  0.74150  0.17950  0.12240  1.0000 0.5605824374
C   C12       1.0  0.76840  0.12270  0.18210  1.0000 0.5605824374
C   C13       1.0  0.96620  0.71870  0.74780  1.0000 0.5517361531
C   C14       1.0  0.53440  0.74710  0.71940  1.0000 0.5517361531
C   C15       1.0  0.74150  0.82050  0.87760  1.0000 0.5605824374
C   C16       1.0  0.76840  0.87730  0.81790  1.0000 0.5605824374
C   C17       1.0  0.96620  0.78130  0.24780  1.0000 0.5517361531
C   C18       1.0  0.53440  0.75290  0.21940  1.0000 0.5517361531
C   C19       1.0  0.74150  0.67950  0.37760  1.0000 0.5605824374
C   C20       1.0  0.76840  0.62270  0.31790  1.0000 0.5605824374
C   C21       1.0  0.96620  0.21870  0.75220  1.0000 0.5517361531
C   C22       1.0  0.53440  0.24710  0.78060  1.0000 0.5517361531
C   C23       1.0  0.74150  0.32050  0.62240  1.0000 0.5605824374
C   C24       1.0  0.76840  0.37730  0.68210  1.0000 0.5605824374
C   C25       1.0  0.03380  0.21870  0.24780  1.0000 0.5517361531
C   C26       1.0  0.46560  0.24710  0.21940  1.0000 0.5517361531
C   C27       1.0  0.25850  0.32050  0.37760  1.0000 0.5605824374
C   C28       1.0  0.23160  0.37730  0.31790  1.0000 0.5605824374
C   C29       1.0  0.03380  0.78130  0.75220  1.0000 0.5517361531
C   C30       1.0  0.46560  0.75290  0.78060  1.0000 0.5517361531
C   C31       1.0  0.25850  0.67950  0.62240  1.0000 0.5653097294
C   C32       1.0  0.23160  0.62270  0.68210  1.0000 0.5605824374
C   C33       1.0  0.00000  0.76580  0.00000  1.0000 0.5517361531
C   C34       1.0  0.00000  0.85360  0.00000  1.0000 0.5383722149
C   C35       1.0  0.00000  0.23420  0.00000  1.0000 0.5517361531
C   C36       1.0  0.00000  0.14640  0.00000  1.0000 0.5383722149
C   C37       1.0  0.00000  0.73420  0.50000  1.0000 0.5517361531
C   C38       1.0  0.00000  0.64640  0.50000  1.0000 0.5383722149
C   C39       1.0  0.00000  0.26580  0.50000  1.0000 0.5517361531
C   C40       1.0  0.00000  0.35360  0.50000  1.0000 0.5383722149
C   C41       1.0  0.50000  0.00000  0.14390  1.0000 0.5517361531
C   C42       1.0  0.50000  0.00000  0.22710  1.0000 0.5517361531
C   C43       1.0  0.50000  0.00000  0.85610  1.0000 0.5517361531
C   C44       1.0  0.50000  0.00000  0.77290  1.0000 0.5517361531
C   C45       1.0  0.50000  0.50000  0.35610  1.0000 0.5517361531
C   C46       1.0  0.50000  0.50000  0.27290  1.0000 0.5517361531
C   C47       1.0  0.50000  0.50000  0.64390  1.0000 0.5517361531
C   C48       1.0  0.50000  0.50000  0.72710  1.0000 0.5517361531
O   O1        1.0  0.03010  0.73350  0.05510  1.0000 -0.4386778097
O   O2        1.0  0.03420  0.88720  0.05360  1.0000 -0.4297391098
O   O3        1.0  0.02780  0.67150  0.30160  1.0000 -0.4128686269
O   O4        1.0  0.09020  0.71940  0.20440  1.0000 -0.4297391098
O   O5        1.0  0.46110  0.94630  0.11380  1.0000 -0.4297391098
O   O6        1.0  0.46790  0.94400  0.25830  1.0000 -0.4386778097
O   O7        1.0  0.47830  0.69980  0.32960  1.0000 -0.4297391098
O   O8        1.0  0.40110  0.78990  0.27380  1.0000 -0.4479977136
O   O9        1.0  0.20070  0.78880  0.08730  1.0000 -0.4211379791
O   O10       1.0  0.15370  0.88600  0.19270  1.0000 -0.4297391098
O   O11       1.0  0.29080  0.91090  0.21470  1.0000 -0.4297391098
O   O12       1.0  0.33790  0.80980  0.11340  1.0000 -0.4479977136
O   O13       1.0  0.03010  0.26650  0.94490  1.0000 -0.4386778097
O   O14       1.0  0.03420  0.11280  0.94640  1.0000 -0.4297391098
O   O15       1.0  0.02780  0.32850  0.69840  1.0000 -0.4128686269
O   O16       1.0  0.09020  0.28060  0.79560  1.0000 -0.4297391098
O   O17       1.0  0.46110  0.05370  0.88620  1.0000 -0.4297391098
O   O18       1.0  0.46790  0.05600  0.74170  1.0000 -0.4386778097
O   O19       1.0  0.47830  0.30020  0.67040  1.0000 -0.4297391098
O   O20       1.0  0.40110  0.21010  0.72620  1.0000 -0.4479977136
O   O21       1.0  0.20070  0.21120  0.91270  1.0000 -0.4211379791
O   O22       1.0  0.15370  0.11400  0.80730  1.0000 -0.4297391098
O   O23       1.0  0.29080  0.08910  0.78530  1.0000 -0.4297391098
O   O24       1.0  0.33790  0.19020  0.88660  1.0000 -0.4479977136
O   O25       1.0  0.96990  0.26650  0.05510  1.0000 -0.4386778097
O   O26       1.0  0.96580  0.11280  0.05360  1.0000 -0.4297391098
O   O27       1.0  0.97220  0.32850  0.30160  1.0000 -0.4211379791
O   O28       1.0  0.90980  0.28060  0.20440  1.0000 -0.4297391098
O   O29       1.0  0.53890  0.05370  0.11380  1.0000 -0.4297391098
O   O30       1.0  0.53210  0.05600  0.25830  1.0000 -0.4386778097
O   O31       1.0  0.52170  0.30020  0.32960  1.0000 -0.4297391098
O   O32       1.0  0.59890  0.21010  0.27380  1.0000 -0.4479977136
O   O33       1.0  0.79930  0.21120  0.08730  1.0000 -0.4211379791
O   O34       1.0  0.84630  0.11400  0.19270  1.0000 -0.4297391098
O   O35       1.0  0.70920  0.08910  0.21470  1.0000 -0.4297391098
O   O36       1.0  0.66210  0.19020  0.11340  1.0000 -0.4479977136
O   O37       1.0  0.96990  0.73350  0.94490  1.0000 -0.4386778097
O   O38       1.0  0.96580  0.88720  0.94640  1.0000 -0.4297391098
O   O39       1.0  0.97220  0.67150  0.69840  1.0000 -0.4128686269
O   O40       1.0  0.90980  0.71940  0.79560  1.0000 -0.4297391098
O   O41       1.0  0.53890  0.94630  0.88620  1.0000 -0.4297391098
O   O42       1.0  0.53210  0.94400  0.74170  1.0000 -0.4386778097
O   O43       1.0  0.52170  0.69980  0.67040  1.0000 -0.4297391098
O   O44       1.0  0.59890  0.78990  0.72620  1.0000 -0.4479977136
O   O45       1.0  0.79930  0.78880  0.91270  1.0000 -0.4211379791
O   O46       1.0  0.84630  0.88600  0.80730  1.0000 -0.4297391098
O   O47       1.0  0.70920  0.91090  0.78530  1.0000 -0.4297391098
O   O48       1.0  0.66210  0.80980  0.88660  1.0000 -0.4479977136
O   O49       1.0  0.96990  0.76650  0.44490  1.0000 -0.4386778097
O   O50       1.0  0.96580  0.61280  0.44640  1.0000 -0.4297391098
O   O51       1.0  0.97220  0.82850  0.19840  1.0000 -0.4128686269
O   O52       1.0  0.90980  0.78060  0.29560  1.0000 -0.4297391098
O   O53       1.0  0.53890  0.55370  0.38620  1.0000 -0.4297391098
O   O54       1.0  0.53210  0.55600  0.24170  1.0000 -0.4386778097
O   O55       1.0  0.52170  0.80020  0.17040  1.0000 -0.4297391098
O   O56       1.0  0.59890  0.71010  0.22620  1.0000 -0.4479977136
O   O57       1.0  0.79930  0.71120  0.41270  1.0000 -0.4211379791
O   O58       1.0  0.84630  0.61400  0.30730  1.0000 -0.4297391098
O   O59       1.0  0.70920  0.58910  0.28530  1.0000 -0.4297391098
O   O60       1.0  0.66210  0.69020  0.38660  1.0000 -0.4479977136
O   O61       1.0  0.96990  0.23350  0.55510  1.0000 -0.4386778097
O   O62       1.0  0.96580  0.38720  0.55360  1.0000 -0.4297391098
O   O63       1.0  0.97220  0.17150  0.80160  1.0000 -0.4128686269
O   O64       1.0  0.90980  0.21940  0.70440  1.0000 -0.4297391098
O   O65       1.0  0.53890  0.44630  0.61380  1.0000 -0.4297391098
O   O66       1.0  0.53210  0.44400  0.75830  1.0000 -0.4386778097
O   O67       1.0  0.52170  0.19980  0.82960  1.0000 -0.4297391098
O   O68       1.0  0.59890  0.28990  0.77380  1.0000 -0.4479977136
O   O69       1.0  0.79930  0.28880  0.58730  1.0000 -0.4211379791
O   O70       1.0  0.84630  0.38600  0.69270  1.0000 -0.4297391098
O   O71       1.0  0.70920  0.41090  0.71470  1.0000 -0.4297391098
O   O72       1.0  0.66210  0.30980  0.61340  1.0000 -0.4386778097
O   O73       1.0  0.03010  0.23350  0.44490  1.0000 -0.4386778097
O   O74       1.0  0.03420  0.38720  0.44640  1.0000 -0.4297391098
O   O75       1.0  0.02780  0.17150  0.19840  1.0000 -0.4128686269
O   O76       1.0  0.09020  0.21940  0.29560  1.0000 -0.4297391098
O   O77       1.0  0.46110  0.44630  0.38620  1.0000 -0.4297391098
O   O78       1.0  0.46790  0.44400  0.24170  1.0000 -0.4386778097
O   O79       1.0  0.47830  0.19980  0.17040  1.0000 -0.4297391098
O   O80       1.0  0.40110  0.28990  0.22620  1.0000 -0.4479977136
O   O81       1.0  0.20070  0.28880  0.41270  1.0000 -0.4211379791
O   O82       1.0  0.15370  0.38600  0.30730  1.0000 -0.4297391098
O   O83       1.0  0.29080  0.41090  0.28530  1.0000 -0.4297391098
O   O84       1.0  0.33790  0.30980  0.38660  1.0000 -0.4386778097
O   O85       1.0  0.03010  0.76650  0.55510  1.0000 -0.4386778097
O   O86       1.0  0.03420  0.61280  0.55360  1.0000 -0.4297391098
O   O87       1.0  0.02780  0.82850  0.80160  1.0000 -0.4128686269
O   O88       1.0  0.09020  0.78060  0.70440  1.0000 -0.4297391098
O   O89       1.0  0.46110  0.55370  0.61380  1.0000 -0.4297391098
O   O90       1.0  0.46790  0.55600  0.75830  1.0000 -0.4297391098
O   O91       1.0  0.47830  0.80020  0.82960  1.0000 -0.4297391098
O   O92       1.0  0.40110  0.71010  0.77380  1.0000 -0.4479977136
O   O93       1.0  0.20070  0.71120  0.58730  1.0000 -0.4211379791
O   O94       1.0  0.15370  0.61400  0.69270  1.0000 -0.4297391098
O   O95       1.0  0.29080  0.58910  0.71470  1.0000 -0.4297391098
O   O96       1.0  0.33790  0.69020  0.61340  1.0000 -0.4386778097
