# DDEC6 charges by PACMAN v1.1 (https://github.com/mtap-research/PACMAN-charge/)
data_2023[ZnTi][nan]3[ASR]9
_chemical_formula_sum              "Ti8 Zn6 H246 C384 N30 O72"
_cell_length_a       20.7413
_cell_length_b       20.7413
_cell_length_c       30.8214
_cell_angle_alpha    90
_cell_angle_beta     90
_cell_angle_gamma    120

_symmetry_space_group_name_H-M    "P 1"
_symmetry_Int_Tables_number       1

loop_
  _symmetry_equiv_pos_as_xyz
  'x, y, z'

loop_
  _atom_site_type_symbol
  _atom_site_label
  _atom_site_symmetry_multiplicity
  _atom_site_fract_x
  _atom_site_fract_y
  _atom_site_fract_z
  _atom_site_occupancy
  _atom_site_charge
Ti  Ti1       1.0  0.33333  0.66667  0.60520  1.0000 1.8984060189
Ti  Ti2       1.0  0.66667  0.33333  0.10520  1.0000 1.8984060189
Ti  Ti3       1.0  0.05162  0.56641  0.36495  1.0000 1.9063310524
Ti  Ti4       1.0  0.43359  0.48521  0.36495  1.0000 1.9063310524
Ti  Ti5       1.0  0.51479  0.94838  0.36495  1.0000 1.9063310524
Ti  Ti6       1.0  0.94838  0.43359  0.86495  1.0000 1.9063310524
Ti  Ti7       1.0  0.56641  0.51479  0.86495  1.0000 1.9063310524
Ti  Ti8       1.0  0.48521  0.05162  0.86495  1.0000 1.9063310524
Zn  Zn1       1.0  0.83993  0.57516  0.35450  1.0000 0.7398385903
Zn  Zn2       1.0  0.42484  0.26477  0.35450  1.0000 0.7398385903
Zn  Zn3       1.0  0.73523  0.16007  0.35450  1.0000 0.7398385903
Zn  Zn4       1.0  0.16007  0.42484  0.85450  1.0000 0.7398385903
Zn  Zn5       1.0  0.57516  0.73523  0.85450  1.0000 0.7398385903
Zn  Zn6       1.0  0.26477  0.83993  0.85450  1.0000 0.7398385903
H   H1        1.0  0.83733  0.48645  0.30231  1.0000 0.3093463531
H   H2        1.0  0.51355  0.35088  0.30231  1.0000 0.3093463531
H   H3        1.0  0.64912  0.16267  0.30231  1.0000 0.3093463531
H   H4        1.0  0.16267  0.51355  0.80231  1.0000 0.3093463531
H   H5        1.0  0.48645  0.64912  0.80231  1.0000 0.3093463531
H   H6        1.0  0.35088  0.83733  0.80231  1.0000 0.3093463531
H   H7        1.0  0.80190  0.44562  0.34175  1.0000 0.3093463531
H   H8        1.0  0.55438  0.35628  0.34175  1.0000 0.3093463531
H   H9        1.0  0.64372  0.19810  0.34175  1.0000 0.3093463531
H   H10       1.0  0.19810  0.55438  0.84175  1.0000 0.3093463531
H   H11       1.0  0.44562  0.64372  0.84175  1.0000 0.3093463531
H   H12       1.0  0.35628  0.80190  0.84175  1.0000 0.3093463531
H   H13       1.0  0.88261  0.48813  0.33875  1.0000 0.301042522
H   H14       1.0  0.51187  0.39448  0.33875  1.0000 0.301042522
H   H15       1.0  0.60552  0.11739  0.33875  1.0000 0.301042522
H   H16       1.0  0.11739  0.51187  0.83875  1.0000 0.301042522
H   H17       1.0  0.48813  0.60552  0.83875  1.0000 0.301042522
H   H18       1.0  0.39448  0.88261  0.83875  1.0000 0.301042522
H   H19       1.0  0.17515  0.62981  0.47139  1.0000 0.130737316
H   H20       1.0  0.37019  0.54534  0.47139  1.0000 0.130737316
H   H21       1.0  0.45466  0.82485  0.47139  1.0000 0.130737316
H   H22       1.0  0.82485  0.37019  0.97139  1.0000 0.130737316
H   H23       1.0  0.62981  0.45466  0.97139  1.0000 0.130737316
H   H24       1.0  0.54534  0.17515  0.97139  1.0000 0.130737316
H   H25       1.0  0.19086  0.59074  0.51018  1.0000 0.130737316
H   H26       1.0  0.40926  0.60012  0.51018  1.0000 0.130737316
H   H27       1.0  0.39988  0.80914  0.51018  1.0000 0.130737316
H   H28       1.0  0.80914  0.40926  0.01018  1.0000 0.130737316
H   H29       1.0  0.59074  0.39988  0.01018  1.0000 0.130737316
H   H30       1.0  0.60012  0.19086  0.01018  1.0000 0.130737316
H   H31       1.0  0.42576  0.90515  0.20153  1.0000 0.1192867138
H   H32       1.0  0.09485  0.52061  0.20153  1.0000 0.1192867138
H   H33       1.0  0.47939  0.57424  0.20153  1.0000 0.1192867138
H   H34       1.0  0.57424  0.09485  0.70153  1.0000 0.1192867138
H   H35       1.0  0.90515  0.47939  0.70153  1.0000 0.1192867138
H   H36       1.0  0.52061  0.42576  0.70153  1.0000 0.1192867138
H   H37       1.0  0.25178  0.73511  0.34538  1.0000 0.130737316
H   H38       1.0  0.26489  0.51667  0.34538  1.0000 0.130737316
H   H39       1.0  0.48333  0.74822  0.34538  1.0000 0.130737316
H   H40       1.0  0.74822  0.26489  0.84538  1.0000 0.130737316
H   H41       1.0  0.73511  0.48333  0.84538  1.0000 0.130737316
H   H42       1.0  0.51667  0.25178  0.84538  1.0000 0.130737316
H   H43       1.0  0.29990  0.81258  0.36774  1.0000 0.130737316
H   H44       1.0  0.18742  0.48732  0.36774  1.0000 0.130737316
H   H45       1.0  0.51268  0.70010  0.36774  1.0000 0.130737316
H   H46       1.0  0.70010  0.18742  0.86774  1.0000 0.130737316
H   H47       1.0  0.81258  0.51268  0.86774  1.0000 0.130737316
H   H48       1.0  0.48732  0.29990  0.86774  1.0000 0.130737316
H   H49       1.0  0.16653  0.81241  0.76920  1.0000 0.130737316
H   H50       1.0  0.18759  0.35412  0.76920  1.0000 0.130737316
H   H51       1.0  0.64588  0.83347  0.76920  1.0000 0.130737316
H   H52       1.0  0.83347  0.18759  0.26920  1.0000 0.130737316
H   H53       1.0  0.81241  0.64588  0.26920  1.0000 0.130737316
H   H54       1.0  0.35412  0.16653  0.26920  1.0000 0.130737316
H   H55       1.0  0.90538  0.58831  0.44736  1.0000 0.1192867138
H   H56       1.0  0.41169  0.31707  0.44736  1.0000 0.1192867138
H   H57       1.0  0.68293  0.09462  0.44736  1.0000 0.1192867138
H   H58       1.0  0.09462  0.41169  0.94736  1.0000 0.1192867138
H   H59       1.0  0.58831  0.68293  0.94736  1.0000 0.1192867138
H   H60       1.0  0.31707  0.90538  0.94736  1.0000 0.130737316
H   H61       1.0  0.07004  0.59596  0.79279  1.0000 0.1479849716
H   H62       1.0  0.40404  0.47408  0.79279  1.0000 0.1479849716
H   H63       1.0  0.52592  0.92996  0.79279  1.0000 0.1479849716
H   H64       1.0  0.92996  0.40404  0.29279  1.0000 0.1479849716
H   H65       1.0  0.59596  0.52592  0.29279  1.0000 0.1479849716
H   H66       1.0  0.47408  0.07004  0.29279  1.0000 0.1479849716
H   H67       1.0  0.87726  0.39421  0.49252  1.0000 0.1123031946
H   H68       1.0  0.60579  0.48305  0.49252  1.0000 0.1123031946
H   H69       1.0  0.51695  0.12274  0.49252  1.0000 0.1123031946
H   H70       1.0  0.12274  0.60579  0.99252  1.0000 0.1123031946
H   H71       1.0  0.39421  0.51695  0.99252  1.0000 0.1123031946
H   H72       1.0  0.48305  0.87726  0.99252  1.0000 0.1123031946
H   H73       1.0  0.13030  0.54690  0.57834  1.0000 0.130737316
H   H74       1.0  0.45310  0.58340  0.57834  1.0000 0.130737316
H   H75       1.0  0.41660  0.86970  0.57834  1.0000 0.130737316
H   H76       1.0  0.86970  0.45310  0.07834  1.0000 0.130737316
H   H77       1.0  0.54690  0.41660  0.07834  1.0000 0.130737316
H   H78       1.0  0.58340  0.13030  0.07834  1.0000 0.130737316
H   H79       1.0  0.09258  0.67873  0.46142  1.0000 0.130737316
H   H80       1.0  0.32127  0.41385  0.46142  1.0000 0.130737316
H   H81       1.0  0.58615  0.90742  0.46142  1.0000 0.130737316
H   H82       1.0  0.90742  0.32127  0.96142  1.0000 0.130737316
H   H83       1.0  0.67873  0.58615  0.96142  1.0000 0.130737316
H   H84       1.0  0.41385  0.09258  0.96142  1.0000 0.130737316
H   H85       1.0  0.03324  0.74582  0.45349  1.0000 0.1192867138
H   H86       1.0  0.25418  0.28742  0.45349  1.0000 0.1192867138
H   H87       1.0  0.71258  0.96676  0.45349  1.0000 0.1192867138
H   H88       1.0  0.96676  0.25418  0.95349  1.0000 0.1192867138
H   H89       1.0  0.74582  0.71258  0.95349  1.0000 0.1192867138
H   H90       1.0  0.28742  0.03324  0.95349  1.0000 0.1192867138
H   H91       1.0  0.17685  0.70667  0.27862  1.0000 0.1192867138
H   H92       1.0  0.29333  0.47018  0.27862  1.0000 0.1192867138
H   H93       1.0  0.52982  0.82315  0.27862  1.0000 0.1192867138
H   H94       1.0  0.82315  0.29333  0.77862  1.0000 0.1192867138
H   H95       1.0  0.70667  0.52982  0.77862  1.0000 0.1192867138
H   H96       1.0  0.47018  0.17685  0.77862  1.0000 0.1192867138
H   H97       1.0  0.15667  0.66323  0.85181  1.0000 0.1385006508
H   H98       1.0  0.33677  0.49344  0.85181  1.0000 0.1385006508
H   H99       1.0  0.50656  0.84333  0.85181  1.0000 0.1385006508
H   H100      1.0  0.84333  0.33677  0.35181  1.0000 0.1385006508
H   H101      1.0  0.66323  0.50656  0.35181  1.0000 0.1385006508
H   H102      1.0  0.49344  0.15667  0.35181  1.0000 0.1385006508
H   H103      1.0  0.12715  0.67312  0.21038  1.0000 0.1192867138
H   H104      1.0  0.32688  0.45403  0.21038  1.0000 0.1192867138
H   H105      1.0  0.54597  0.87285  0.21038  1.0000 0.1192867138
H   H106      1.0  0.87285  0.32688  0.71038  1.0000 0.1192867138
H   H107      1.0  0.67312  0.54597  0.71038  1.0000 0.1192867138
H   H108      1.0  0.45403  0.12715  0.71038  1.0000 0.1192867138
H   H109      1.0  0.06662  0.47600  0.63819  1.0000 0.130737316
H   H110      1.0  0.52400  0.59062  0.63819  1.0000 0.130737316
H   H111      1.0  0.40938  0.93338  0.63819  1.0000 0.130737316
H   H112      1.0  0.93338  0.52400  0.13819  1.0000 0.130737316
H   H113      1.0  0.47600  0.40938  0.13819  1.0000 0.130737316
H   H114      1.0  0.59062  0.06662  0.13819  1.0000 0.130737316
H   H115      1.0  0.18096  0.80991  0.61394  1.0000 0.1192867138
H   H116      1.0  0.19009  0.37105  0.61394  1.0000 0.1192867138
H   H117      1.0  0.62895  0.81904  0.61394  1.0000 0.1192867138
H   H118      1.0  0.81904  0.19009  0.11394  1.0000 0.1192867138
H   H119      1.0  0.80991  0.62895  0.11394  1.0000 0.1192867138
H   H120      1.0  0.37105  0.18096  0.11394  1.0000 0.1192867138
H   H121      1.0  0.31903  0.82309  0.15554  1.0000 0.1192867138
H   H122      1.0  0.17691  0.49594  0.15554  1.0000 0.1192867138
H   H123      1.0  0.50406  0.68097  0.15554  1.0000 0.1192867138
H   H124      1.0  0.68097  0.17691  0.65554  1.0000 0.1192867138
H   H125      1.0  0.82309  0.50406  0.65554  1.0000 0.1192867138
H   H126      1.0  0.49594  0.31903  0.65554  1.0000 0.1192867138
H   H127      1.0  0.08669  0.60809  0.70558  1.0000 0.1479849716
H   H128      1.0  0.39191  0.47860  0.70558  1.0000 0.1479849716
H   H129      1.0  0.52140  0.91331  0.70558  1.0000 0.1479849716
H   H130      1.0  0.91331  0.39191  0.20558  1.0000 0.1479849716
H   H131      1.0  0.60809  0.52140  0.20558  1.0000 0.1479849716
H   H132      1.0  0.47860  0.08669  0.20558  1.0000 0.1479849716
H   H133      1.0  0.31757  0.93283  0.34765  1.0000 0.1192867138
H   H134      1.0  0.06717  0.38474  0.34765  1.0000 0.1192867138
H   H135      1.0  0.61526  0.68243  0.34765  1.0000 0.1192867138
H   H136      1.0  0.68243  0.06717  0.84765  1.0000 0.1192867138
H   H137      1.0  0.93283  0.61526  0.84765  1.0000 0.1192867138
H   H138      1.0  0.38474  0.31757  0.84765  1.0000 0.1192867138
H   H139      1.0  0.32116  0.04528  0.34532  1.0000 0.0998851037
H   H140      1.0  0.95472  0.27588  0.34532  1.0000 0.0998851037
H   H141      1.0  0.72412  0.67884  0.34532  1.0000 0.0998851037
H   H142      1.0  0.67884  0.95472  0.84532  1.0000 0.0998851037
H   H143      1.0  0.04528  0.72412  0.84532  1.0000 0.0998851037
H   H144      1.0  0.27588  0.32116  0.84532  1.0000 0.0998851037
H   H145      1.0  0.74450  0.61940  0.49551  1.0000 0.1385006508
H   H146      1.0  0.38060  0.12510  0.49551  1.0000 0.1385006508
H   H147      1.0  0.87490  0.25550  0.49551  1.0000 0.1385006508
H   H148      1.0  0.25550  0.38060  0.99551  1.0000 0.1385006508
H   H149      1.0  0.61940  0.87490  0.99551  1.0000 0.1385006508
H   H150      1.0  0.12510  0.74450  0.99551  1.0000 0.1385006508
H   H151      1.0  0.19805  0.72798  0.14908  1.0000 0.1123031946
H   H152      1.0  0.27202  0.47007  0.14908  1.0000 0.1123031946
H   H153      1.0  0.52993  0.80195  0.14908  1.0000 0.1123031946
H   H154      1.0  0.80195  0.27202  0.64908  1.0000 0.1123031946
H   H155      1.0  0.72798  0.52993  0.64908  1.0000 0.1123031946
H   H156      1.0  0.47007  0.19805  0.64908  1.0000 0.1123031946
H   H157      1.0  0.03750  0.82618  0.50622  1.0000 0.1192867138
H   H158      1.0  0.17382  0.21132  0.50622  1.0000 0.1192867138
H   H159      1.0  0.78868  0.96250  0.50622  1.0000 0.1192867138
H   H160      1.0  0.96250  0.17382  0.00622  1.0000 0.1192867138
H   H161      1.0  0.82618  0.78868  0.00622  1.0000 0.1192867138
H   H162      1.0  0.21132  0.03750  0.00622  1.0000 0.1192867138
H   H163      1.0  0.72381  0.59552  0.41706  1.0000 0.130737316
H   H164      1.0  0.40448  0.12829  0.41706  1.0000 0.130737316
H   H165      1.0  0.87171  0.27619  0.41706  1.0000 0.130737316
H   H166      1.0  0.27619  0.40448  0.91706  1.0000 0.130737316
H   H167      1.0  0.59552  0.87171  0.91706  1.0000 0.130737316
H   H168      1.0  0.12829  0.72381  0.91706  1.0000 0.130737316
H   H169      1.0  0.87748  0.37042  0.57146  1.0000 0.1192867138
H   H170      1.0  0.62958  0.50706  0.57146  1.0000 0.1192867138
H   H171      1.0  0.49294  0.12252  0.57146  1.0000 0.1192867138
H   H172      1.0  0.12252  0.62958  0.07146  1.0000 0.1192867138
H   H173      1.0  0.37042  0.49294  0.07146  1.0000 0.1192867138
H   H174      1.0  0.50706  0.87748  0.07146  1.0000 0.1192867138
H   H175      1.0  0.93555  0.57094  0.51300  1.0000 0.130737316
H   H176      1.0  0.42906  0.36461  0.51300  1.0000 0.130737316
H   H177      1.0  0.63539  0.06445  0.51300  1.0000 0.130737316
H   H178      1.0  0.06445  0.42906  0.01300  1.0000 0.130737316
H   H179      1.0  0.57094  0.63539  0.01300  1.0000 0.130737316
H   H180      1.0  0.36461  0.93555  0.01300  1.0000 0.130737316
H   H181      1.0  0.82311  0.66809  0.55517  1.0000 0.130737316
H   H182      1.0  0.33191  0.15502  0.55517  1.0000 0.130737316
H   H183      1.0  0.84498  0.17689  0.55517  1.0000 0.130737316
H   H184      1.0  0.17689  0.33191  0.05517  1.0000 0.130737316
H   H185      1.0  0.66809  0.84498  0.05517  1.0000 0.130737316
H   H186      1.0  0.15502  0.82311  0.05517  1.0000 0.130737316
H   H187      1.0  0.09949  0.83828  0.56949  1.0000 0.1192867138
H   H188      1.0  0.16172  0.26121  0.56949  1.0000 0.1192867138
H   H189      1.0  0.73879  0.90051  0.56949  1.0000 0.1192867138
H   H190      1.0  0.90051  0.16172  0.06949  1.0000 0.1192867138
H   H191      1.0  0.83828  0.73879  0.06949  1.0000 0.1192867138
H   H192      1.0  0.26121  0.09949  0.06949  1.0000 0.1192867138
H   H193      1.0  0.02419  0.58806  0.64012  1.0000 0.1192867138
H   H194      1.0  0.41194  0.43613  0.64012  1.0000 0.1192867138
H   H195      1.0  0.56387  0.97581  0.64012  1.0000 0.1192867138
H   H196      1.0  0.97581  0.41194  0.14012  1.0000 0.1192867138
H   H197      1.0  0.58806  0.56387  0.14012  1.0000 0.1192867138
H   H198      1.0  0.43613  0.02419  0.14012  1.0000 0.1192867138
H   H199      1.0  0.02413  0.80747  0.34580  1.0000 0.1192867138
H   H200      1.0  0.19253  0.21666  0.34580  1.0000 0.1192867138
H   H201      1.0  0.78334  0.97587  0.34580  1.0000 0.1192867138
H   H202      1.0  0.97587  0.19253  0.84580  1.0000 0.1192867138
H   H203      1.0  0.80747  0.78334  0.84580  1.0000 0.1192867138
H   H204      1.0  0.21666  0.02413  0.84580  1.0000 0.1192867138
H   H205      1.0  0.88003  0.68547  0.62212  1.0000 0.1192867138
H   H206      1.0  0.31453  0.19456  0.62212  1.0000 0.1192867138
H   H207      1.0  0.80544  0.11997  0.62212  1.0000 0.1192867138
H   H208      1.0  0.11997  0.31453  0.12212  1.0000 0.1192867138
H   H209      1.0  0.68547  0.80544  0.12212  1.0000 0.1192867138
H   H210      1.0  0.19456  0.88003  0.12212  1.0000 0.1192867138
H   H211      1.0  0.93942  0.39444  0.63479  1.0000 0.1192867138
H   H212      1.0  0.60556  0.54498  0.63479  1.0000 0.1192867138
H   H213      1.0  0.45502  0.06058  0.63479  1.0000 0.1192867138
H   H214      1.0  0.06058  0.60556  0.13479  1.0000 0.1192867138
H   H215      1.0  0.39444  0.45502  0.13479  1.0000 0.1192867138
H   H216      1.0  0.54498  0.93942  0.13479  1.0000 0.1192867138
H   H217      1.0  0.21245  0.05224  0.33772  1.0000 0.1192867138
H   H218      1.0  0.94776  0.16021  0.33772  1.0000 0.1192867138
H   H219      1.0  0.83979  0.78755  0.33772  1.0000 0.1192867138
H   H220      1.0  0.78755  0.94776  0.83772  1.0000 0.1192867138
H   H221      1.0  0.05224  0.83979  0.83772  1.0000 0.1192867138
H   H222      1.0  0.16021  0.21245  0.83772  1.0000 0.1192867138
H   H223      1.0  0.09805  0.94591  0.34237  1.0000 0.1192867138
H   H224      1.0  0.05409  0.15214  0.34237  1.0000 0.1192867138
H   H225      1.0  0.84786  0.90195  0.34237  1.0000 0.1192867138
H   H226      1.0  0.90195  0.05409  0.84237  1.0000 0.1192867138
H   H227      1.0  0.94591  0.84786  0.84237  1.0000 0.1192867138
H   H228      1.0  0.15214  0.09805  0.84237  1.0000 0.1192867138
H   H229      1.0  0.02528  0.75456  0.73765  1.0000 0.130737316
H   H230      1.0  0.24544  0.27072  0.73765  1.0000 0.130737316
H   H231      1.0  0.72928  0.97472  0.73765  1.0000 0.130737316
H   H232      1.0  0.97472  0.24544  0.23765  1.0000 0.130737316
H   H233      1.0  0.75456  0.72928  0.23765  1.0000 0.130737316
H   H234      1.0  0.27072  0.02528  0.23765  1.0000 0.130737316
H   H235      1.0  0.99550  0.59430  0.57930  1.0000 0.1192867138
H   H236      1.0  0.40570  0.40120  0.57930  1.0000 0.1192867138
H   H237      1.0  0.59880  0.00450  0.57930  1.0000 0.1192867138
H   H238      1.0  0.00450  0.40570  0.07930  1.0000 0.1192867138
H   H239      1.0  0.59430  0.59880  0.07930  1.0000 0.1192867138
H   H240      1.0  0.40120  0.99550  0.07930  1.0000 0.1192867138
H   H241      1.0  0.96930  0.73798  0.67007  1.0000 0.1192867138
H   H242      1.0  0.26202  0.23132  0.67007  1.0000 0.1192867138
H   H243      1.0  0.76868  0.03070  0.67007  1.0000 0.1192867138
H   H244      1.0  0.03070  0.26202  0.17007  1.0000 0.1192867138
H   H245      1.0  0.73798  0.76868  0.17007  1.0000 0.1192867138
H   H246      1.0  0.23132  0.96930  0.17007  1.0000 0.1192867138
C   C1        1.0  0.92220  0.44880  0.41540  1.0000 0.5917170992
C   C2        1.0  0.55120  0.47340  0.41540  1.0000 0.5917170992
C   C3        1.0  0.52660  0.07780  0.41540  1.0000 0.5917170992
C   C4        1.0  0.07780  0.55120  0.91540  1.0000 0.5917170992
C   C5        1.0  0.44880  0.52660  0.91540  1.0000 0.5917170992
C   C6        1.0  0.47340  0.92220  0.91540  1.0000 0.5917170992
C   C7        1.0  0.98900  0.67040  0.35700  1.0000 0.615422229
C   C8        1.0  0.32960  0.31860  0.35700  1.0000 0.615422229
C   C9        1.0  0.68140  0.01100  0.35700  1.0000 0.615422229
C   C10       1.0  0.01100  0.32960  0.85700  1.0000 0.615422229
C   C11       1.0  0.67040  0.68140  0.85700  1.0000 0.615422229
C   C12       1.0  0.31860  0.98900  0.85700  1.0000 0.615422229
C   C13       1.0  0.12940  0.73210  0.35120  1.0000 0.2636764249
C   C14       1.0  0.26790  0.39730  0.35120  1.0000 0.2636764249
C   C15       1.0  0.60270  0.87060  0.35120  1.0000 0.2636764249
C   C16       1.0  0.87060  0.26790  0.85120  1.0000 0.2636764249
C   C17       1.0  0.73210  0.60270  0.85120  1.0000 0.2636764249
C   C18       1.0  0.39730  0.12940  0.85120  1.0000 0.2636764249
C   C19       1.0  0.27980  0.79280  0.26010  1.0000 0.0501380703
C   C20       1.0  0.20720  0.48700  0.26010  1.0000 0.0501380703
C   C21       1.0  0.51300  0.72020  0.26010  1.0000 0.0501380703
C   C22       1.0  0.72020  0.20720  0.76010  1.0000 0.0501380703
C   C23       1.0  0.79280  0.51300  0.76010  1.0000 0.0501380703
C   C24       1.0  0.48700  0.27980  0.76010  1.0000 0.0501380703
C   C25       1.0  0.21350  0.68790  0.56730  1.0000 0.2381550347
C   C26       1.0  0.31210  0.52560  0.56730  1.0000 0.2381550347
C   C27       1.0  0.47440  0.78650  0.56730  1.0000 0.2381550347
C   C28       1.0  0.78650  0.31210  0.06730  1.0000 0.2381550347
C   C29       1.0  0.68790  0.47440  0.06730  1.0000 0.2381550347
C   C30       1.0  0.52560  0.21350  0.06730  1.0000 0.2381550347
C   C31       1.0  0.32290  0.82650  0.22200  1.0000 0.0579022998
C   C32       1.0  0.17350  0.49640  0.22200  1.0000 0.0579022998
C   C33       1.0  0.50360  0.67710  0.22200  1.0000 0.0579022998
C   C34       1.0  0.67710  0.17350  0.72200  1.0000 0.0579022998
C   C35       1.0  0.82650  0.50360  0.72200  1.0000 0.0579022998
C   C36       1.0  0.49640  0.32290  0.72200  1.0000 0.0579022998
C   C37       1.0  0.19920  0.79650  0.34660  1.0000 -0.0224306232
C   C38       1.0  0.20350  0.40270  0.34660  1.0000 -0.0224306232
C   C39       1.0  0.59730  0.80080  0.34660  1.0000 -0.0224306232
C   C40       1.0  0.80080  0.20350  0.84660  1.0000 -0.0224306232
C   C41       1.0  0.79650  0.59730  0.84660  1.0000 -0.0224306232
C   C42       1.0  0.40270  0.19920  0.84660  1.0000 -0.0224306232
C   C43       1.0  0.16880  0.67260  0.53080  1.0000 -0.0300601401
C   C44       1.0  0.32740  0.49620  0.53080  1.0000 -0.0300601401
C   C45       1.0  0.50380  0.83120  0.53080  1.0000 -0.0300601401
C   C46       1.0  0.83120  0.32740  0.03080  1.0000 -0.0300601401
C   C47       1.0  0.67260  0.50380  0.03080  1.0000 -0.0300601401
C   C48       1.0  0.49620  0.16880  0.03080  1.0000 -0.0300601401
C   C49       1.0  0.13370  0.71500  0.52300  1.0000 0.0435412315
C   C50       1.0  0.28500  0.41870  0.52300  1.0000 0.0435412315
C   C51       1.0  0.58130  0.86630  0.52300  1.0000 0.0435412315
C   C52       1.0  0.86630  0.28500  0.02300  1.0000 0.0435412315
C   C53       1.0  0.71500  0.58130  0.02300  1.0000 0.0435412315
C   C54       1.0  0.41870  0.13370  0.02300  1.0000 0.0435412315
C   C55       1.0  0.96400  0.47020  0.45670  1.0000 -0.1758241852
C   C56       1.0  0.52980  0.49380  0.45670  1.0000 -0.1758241852
C   C57       1.0  0.50620  0.03600  0.45670  1.0000 -0.1758241852
C   C58       1.0  0.03600  0.52980  0.95670  1.0000 -0.1758241852
C   C59       1.0  0.47020  0.50620  0.95670  1.0000 -0.1758241852
C   C60       1.0  0.49380  0.96400  0.95670  1.0000 -0.1758241852
C   C61       1.0  0.51070  0.96660  0.26760  1.0000 0.5917170992
C   C62       1.0  0.03340  0.54410  0.26760  1.0000 0.5917170992
C   C63       1.0  0.45590  0.48930  0.26760  1.0000 0.5917170992
C   C64       1.0  0.48930  0.03340  0.76760  1.0000 0.5917170992
C   C65       1.0  0.96660  0.45590  0.76760  1.0000 0.5917170992
C   C66       1.0  0.54410  0.51070  0.76760  1.0000 0.5917170992
C   C67       1.0  0.15910  0.60970  0.50030  1.0000 -0.2385171154
C   C68       1.0  0.39030  0.54940  0.50030  1.0000 -0.2385171154
C   C69       1.0  0.45060  0.84090  0.50030  1.0000 -0.2385171154
C   C70       1.0  0.84090  0.39030  0.00030  1.0000 -0.2385171154
C   C71       1.0  0.60970  0.45060  0.00030  1.0000 -0.2385171154
C   C72       1.0  0.54940  0.15910  0.00030  1.0000 -0.2385171154
C   C73       1.0  0.43140  0.90580  0.26640  1.0000 -0.1697509462
C   C74       1.0  0.09420  0.52560  0.26640  1.0000 -0.1697509462
C   C75       1.0  0.47440  0.56860  0.26640  1.0000 -0.1697509462
C   C76       1.0  0.56860  0.09420  0.76640  1.0000 -0.1697509462
C   C77       1.0  0.90580  0.47440  0.76640  1.0000 -0.1697509462
C   C78       1.0  0.52560  0.43140  0.76640  1.0000 -0.1697509462
C   C79       1.0  0.04050  0.52770  0.45940  1.0000 0.2381550347
C   C80       1.0  0.47230  0.51280  0.45940  1.0000 0.2381550347
C   C81       1.0  0.48720  0.95950  0.45940  1.0000 0.2381550347
C   C82       1.0  0.95950  0.47230  0.95940  1.0000 0.2381550347
C   C83       1.0  0.52770  0.48720  0.95940  1.0000 0.2381550347
C   C84       1.0  0.51280  0.04050  0.95940  1.0000 0.2381550347
C   C85       1.0  0.31240  0.81820  0.30160  1.0000 -0.0224306232
C   C86       1.0  0.18180  0.49420  0.30160  1.0000 -0.0224306232
C   C87       1.0  0.50580  0.68760  0.30160  1.0000 -0.0224306232
C   C88       1.0  0.68760  0.18180  0.80160  1.0000 -0.0224306232
C   C89       1.0  0.81820  0.50580  0.80160  1.0000 -0.0224306232
C   C90       1.0  0.49420  0.31240  0.80160  1.0000 -0.0224306232
C   C91       1.0  0.39800  0.88290  0.22640  1.0000 -0.1494806192
C   C92       1.0  0.11710  0.51510  0.22640  1.0000 -0.1494806192
C   C93       1.0  0.48490  0.60200  0.22640  1.0000 -0.1494806192
C   C94       1.0  0.60200  0.11710  0.72640  1.0000 -0.1494806192
C   C95       1.0  0.88290  0.48490  0.72640  1.0000 -0.1494806192
C   C96       1.0  0.51510  0.39800  0.72640  1.0000 -0.1494806192
C   C97       1.0  0.96500  0.44660  0.53400  1.0000 0.0501380703
C   C98       1.0  0.55340  0.51840  0.53400  1.0000 0.0501380703
C   C99       1.0  0.48160  0.03500  0.53400  1.0000 0.0501380703
C   C100      1.0  0.03500  0.55340  0.03400  1.0000 0.0501380703
C   C101      1.0  0.44660  0.48160  0.03400  1.0000 0.0501380703
C   C102      1.0  0.51840  0.96500  0.03400  1.0000 0.0501380703
C   C103      1.0  0.38780  0.87260  0.30450  1.0000 0.2531772555
C   C104      1.0  0.12740  0.51520  0.30450  1.0000 0.2531772555
C   C105      1.0  0.48480  0.61220  0.30450  1.0000 0.2531772555
C   C106      1.0  0.61220  0.12740  0.80450  1.0000 0.2531772555
C   C107      1.0  0.87260  0.48480  0.80450  1.0000 0.2531772555
C   C108      1.0  0.51520  0.38780  0.80450  1.0000 0.2531772555
C   C109      1.0  0.26760  0.78760  0.34320  1.0000 -0.2476721753
C   C110      1.0  0.21240  0.48000  0.34320  1.0000 -0.2476721753
C   C111      1.0  0.52000  0.73240  0.34320  1.0000 -0.2476721753
C   C112      1.0  0.73240  0.21240  0.84320  1.0000 -0.2476721753
C   C113      1.0  0.78760  0.52000  0.84320  1.0000 -0.2476721753
C   C114      1.0  0.48000  0.26760  0.84320  1.0000 -0.2476721753
C   C115      1.0  0.15380  0.76730  0.78240  1.0000 0.1123031946
C   C116      1.0  0.23270  0.38650  0.78240  1.0000 0.1123031946
C   C117      1.0  0.61350  0.84620  0.78240  1.0000 0.1123031946
C   C118      1.0  0.84620  0.23270  0.28240  1.0000 0.1123031946
C   C119      1.0  0.76730  0.61350  0.28240  1.0000 0.1123031946
C   C120      1.0  0.38650  0.15380  0.28240  1.0000 0.1123031946
C   C121      1.0  0.06350  0.73810  0.35110  1.0000 -0.1494806192
C   C122      1.0  0.26190  0.32540  0.35110  1.0000 -0.1494806192
C   C123      1.0  0.67460  0.93650  0.35110  1.0000 -0.1494806192
C   C124      1.0  0.93650  0.26190  0.85110  1.0000 -0.1494806192
C   C125      1.0  0.73810  0.67460  0.85110  1.0000 -0.1494806192
C   C126      1.0  0.32540  0.06350  0.85110  1.0000 -0.1494806192
C   C127      1.0  0.86200  0.59080  0.44970  1.0000 0.1192867138
C   C128      1.0  0.40920  0.27120  0.44970  1.0000 0.1192867138
C   C129      1.0  0.72880  0.13800  0.44970  1.0000 0.1192867138
C   C130      1.0  0.13800  0.40920  0.94970  1.0000 0.1192867138
C   C131      1.0  0.59080  0.72880  0.94970  1.0000 0.1192867138
C   C132      1.0  0.27120  0.86200  0.94970  1.0000 0.1192867138
C   C133      1.0  0.10000  0.64730  0.79530  1.0000 -0.0776727808
C   C134      1.0  0.35270  0.45270  0.79530  1.0000 -0.0776727808
C   C135      1.0  0.54730  0.90000  0.79530  1.0000 -0.0776727808
C   C136      1.0  0.90000  0.35270  0.29530  1.0000 -0.0776727808
C   C137      1.0  0.64730  0.54730  0.29530  1.0000 -0.0776727808
C   C138      1.0  0.45270  0.10000  0.29530  1.0000 -0.0776727808
C   C139      1.0  0.87120  0.61380  0.52850  1.0000 0.1568123599
C   C140      1.0  0.38620  0.25740  0.52850  1.0000 0.1568123599
C   C141      1.0  0.74260  0.12880  0.52850  1.0000 0.1568123599
C   C142      1.0  0.12880  0.38620  0.02850  1.0000 0.1568123599
C   C143      1.0  0.61380  0.74260  0.02850  1.0000 0.1568123599
C   C144      1.0  0.25740  0.87120  0.02850  1.0000 0.1568123599
C   C145      1.0  0.92710  0.43090  0.49400  1.0000 -0.1697509462
C   C146      1.0  0.56910  0.49620  0.49400  1.0000 -0.1697509462
C   C147      1.0  0.50380  0.07290  0.49400  1.0000 -0.1697509462
C   C148      1.0  0.07290  0.56910  0.99400  1.0000 -0.1697509462
C   C149      1.0  0.43090  0.50380  0.99400  1.0000 -0.1697509462
C   C150      1.0  0.49620  0.92710  0.99400  1.0000 -0.1697509462
C   C151      1.0  0.04220  0.50140  0.53600  1.0000 0.0435412315
C   C152      1.0  0.49860  0.54080  0.53600  1.0000 0.0435412315
C   C153      1.0  0.45920  0.95780  0.53600  1.0000 0.0435412315
C   C154      1.0  0.95780  0.49860  0.03600  1.0000 0.0435412315
C   C155      1.0  0.50140  0.45920  0.03600  1.0000 0.0435412315
C   C156      1.0  0.54080  0.04220  0.03600  1.0000 0.0435412315
C   C157      1.0  0.07890  0.54550  0.49820  1.0000 -0.0300601401
C   C158      1.0  0.45450  0.53340  0.49820  1.0000 -0.0300601401
C   C159      1.0  0.46660  0.92110  0.49820  1.0000 -0.0300601401
C   C160      1.0  0.92110  0.45450  0.99820  1.0000 -0.0300601401
C   C161      1.0  0.54550  0.46660  0.99820  1.0000 -0.0300601401
C   C162      1.0  0.53340  0.07890  0.99820  1.0000 -0.0300601401
C   C163      1.0  0.07990  0.51200  0.57620  1.0000 -0.1290163341
C   C164      1.0  0.48800  0.56790  0.57620  1.0000 -0.1290163341
C   C165      1.0  0.43210  0.92010  0.57620  1.0000 -0.1290163341
C   C166      1.0  0.92010  0.48800  0.07620  1.0000 -0.1290163341
C   C167      1.0  0.51200  0.43210  0.07620  1.0000 -0.1290163341
C   C168      1.0  0.56790  0.07990  0.07620  1.0000 -0.1290163341
C   C169      1.0  0.94560  0.64330  0.60770  1.0000 0.0679514272
C   C170      1.0  0.35670  0.30230  0.60770  1.0000 0.0679514272
C   C171      1.0  0.69770  0.05440  0.60770  1.0000 0.0679514272
C   C172      1.0  0.05440  0.35670  0.10770  1.0000 0.0679514272
C   C173      1.0  0.64330  0.69770  0.10770  1.0000 0.0679514272
C   C174      1.0  0.30230  0.94560  0.10770  1.0000 0.0679514272
C   C175      1.0  0.21880  0.73940  0.59950  1.0000 -0.1494806192
C   C176      1.0  0.26060  0.47940  0.59950  1.0000 -0.1494806192
C   C177      1.0  0.52060  0.78120  0.59950  1.0000 -0.1494806192
C   C178      1.0  0.78120  0.26060  0.09950  1.0000 -0.1494806192
C   C179      1.0  0.73940  0.52060  0.09950  1.0000 -0.1494806192
C   C180      1.0  0.47940  0.21880  0.09950  1.0000 -0.1494806192
C   C181      1.0  0.26180  0.75400  0.64020  1.0000 0.608077556
C   C182      1.0  0.24600  0.50780  0.64020  1.0000 0.608077556
C   C183      1.0  0.49220  0.73820  0.64020  1.0000 0.608077556
C   C184      1.0  0.73820  0.24600  0.14020  1.0000 0.608077556
C   C185      1.0  0.75400  0.49220  0.14020  1.0000 0.608077556
C   C186      1.0  0.50780  0.26180  0.14020  1.0000 0.608077556
C   C187      1.0  0.98600  0.65930  0.64960  1.0000 0.0679514272
C   C188      1.0  0.34070  0.32670  0.64960  1.0000 0.0679514272
C   C189      1.0  0.67330  0.01400  0.64960  1.0000 0.0679514272
C   C190      1.0  0.01400  0.34070  0.14960  1.0000 0.0679514272
C   C191      1.0  0.65930  0.67330  0.14960  1.0000 0.0679514272
C   C192      1.0  0.32670  0.98600  0.14960  1.0000 0.0679514272
C   C193      1.0  0.09440  0.70980  0.48370  1.0000 -0.1290163341
C   C194      1.0  0.29020  0.38460  0.48370  1.0000 -0.1290163341
C   C195      1.0  0.61540  0.90560  0.48370  1.0000 -0.1290163341
C   C196      1.0  0.90560  0.29020  0.98370  1.0000 -0.1290163341
C   C197      1.0  0.70980  0.61540  0.98370  1.0000 -0.1290163341
C   C198      1.0  0.38460  0.09440  0.98370  1.0000 -0.1290163341
C   C199      1.0  0.06390  0.68670  0.72660  1.0000 0.1479849716
C   C200      1.0  0.31330  0.37720  0.72660  1.0000 0.1479849716
C   C201      1.0  0.62280  0.93610  0.72660  1.0000 0.1479849716
C   C202      1.0  0.93610  0.31330  0.22660  1.0000 0.1479849716
C   C203      1.0  0.68670  0.62280  0.22660  1.0000 0.1479849716
C   C204      1.0  0.37720  0.06390  0.22660  1.0000 0.1479849716
C   C205      1.0  0.05940  0.75070  0.47900  1.0000 -0.1001987473
C   C206      1.0  0.24930  0.30870  0.47900  1.0000 -0.1001987473
C   C207      1.0  0.69130  0.94060  0.47900  1.0000 -0.1001987473
C   C208      1.0  0.94060  0.24930  0.97900  1.0000 -0.1001987473
C   C209      1.0  0.75070  0.69130  0.97900  1.0000 -0.1001987473
C   C210      1.0  0.30870  0.05940  0.97900  1.0000 -0.1001987473
C   C211      1.0  0.20540  0.73180  0.25450  1.0000 -0.1203435212
C   C212      1.0  0.26820  0.47360  0.25450  1.0000 -0.1203435212
C   C213      1.0  0.52640  0.79460  0.25450  1.0000 -0.1203435212
C   C214      1.0  0.79460  0.26820  0.75450  1.0000 -0.1203435212
C   C215      1.0  0.73180  0.52640  0.75450  1.0000 -0.1203435212
C   C216      1.0  0.47360  0.20540  0.75450  1.0000 -0.1203435212
C   C217      1.0  0.14790  0.68470  0.82770  1.0000 -0.0427522106
C   C218      1.0  0.31530  0.46320  0.82770  1.0000 -0.0427522106
C   C219      1.0  0.53680  0.85210  0.82770  1.0000 -0.0427522106
C   C220      1.0  0.85210  0.31530  0.32770  1.0000 -0.0427522106
C   C221      1.0  0.68470  0.53680  0.32770  1.0000 -0.0427522106
C   C222      1.0  0.46320  0.14790  0.32770  1.0000 -0.0427522106
C   C223      1.0  0.20360  0.86760  0.34580  1.0000 0.0501380703
C   C224      1.0  0.13240  0.33600  0.34580  1.0000 0.0501380703
C   C225      1.0  0.66400  0.79640  0.34580  1.0000 0.0501380703
C   C226      1.0  0.79640  0.13240  0.84580  1.0000 0.0501380703
C   C227      1.0  0.86760  0.66400  0.84580  1.0000 0.0501380703
C   C228      1.0  0.33600  0.20360  0.84580  1.0000 0.0501380703
C   C229      1.0  0.17640  0.71080  0.21350  1.0000 -0.0901229046
C   C230      1.0  0.28920  0.46560  0.21350  1.0000 -0.0901229046
C   C231      1.0  0.53440  0.82360  0.21350  1.0000 -0.0901229046
C   C232      1.0  0.82360  0.28920  0.71350  1.0000 -0.0901229046
C   C233      1.0  0.71080  0.53440  0.71350  1.0000 -0.0901229046
C   C234      1.0  0.46560  0.17640  0.71350  1.0000 -0.0901229046
C   C235      1.0  0.04140  0.47020  0.61220  1.0000 -0.0776727808
C   C236      1.0  0.52980  0.57120  0.61220  1.0000 -0.0776727808
C   C237      1.0  0.42880  0.95860  0.61220  1.0000 -0.0776727808
C   C238      1.0  0.95860  0.52980  0.11220  1.0000 -0.0776727808
C   C239      1.0  0.47020  0.42880  0.11220  1.0000 -0.0776727808
C   C240      1.0  0.57120  0.04140  0.11220  1.0000 -0.0776727808
C   C241      1.0  0.17900  0.77700  0.59280  1.0000 -0.156748299
C   C242      1.0  0.22300  0.40200  0.59280  1.0000 -0.1494806192
C   C243      1.0  0.59800  0.82100  0.59280  1.0000 -0.1494806192
C   C244      1.0  0.82100  0.22300  0.09280  1.0000 -0.1494806192
C   C245      1.0  0.77700  0.59800  0.09280  1.0000 -0.1494806192
C   C246      1.0  0.40200  0.17900  0.09280  1.0000 -0.1494806192
C   C247      1.0  0.29090  0.80110  0.18030  1.0000 -0.1494806192
C   C248      1.0  0.19890  0.48980  0.18030  1.0000 -0.1494806192
C   C249      1.0  0.51020  0.70910  0.18030  1.0000 -0.1494806192
C   C250      1.0  0.70910  0.19890  0.68030  1.0000 -0.1405044274
C   C251      1.0  0.80110  0.51020  0.68030  1.0000 -0.1405044274
C   C252      1.0  0.48980  0.29090  0.68030  1.0000 -0.1494806192
C   C253      1.0  0.13700  0.76660  0.55580  1.0000 0.0579022998
C   C254      1.0  0.23340  0.37040  0.55580  1.0000 0.0579022998
C   C255      1.0  0.62960  0.86300  0.55580  1.0000 0.0579022998
C   C256      1.0  0.86300  0.23340  0.05580  1.0000 0.0579022998
C   C257      1.0  0.76660  0.62960  0.05580  1.0000 0.0579022998
C   C258      1.0  0.37040  0.13700  0.05580  1.0000 0.0579022998
C   C259      1.0  0.06260  0.63440  0.69870  1.0000 -0.1405044274
C   C260      1.0  0.36560  0.42820  0.69870  1.0000 -0.1405044274
C   C261      1.0  0.57180  0.93740  0.69870  1.0000 -0.1405044274
C   C262      1.0  0.93740  0.36560  0.19870  1.0000 -0.1405044274
C   C263      1.0  0.63440  0.57180  0.19870  1.0000 -0.1405044274
C   C264      1.0  0.42820  0.06260  0.19870  1.0000 -0.1405044274
C   C265      1.0  0.27360  0.93440  0.34620  1.0000 -0.1290163341
C   C266      1.0  0.06560  0.33920  0.34620  1.0000 -0.1290163341
C   C267      1.0  0.66080  0.72640  0.34620  1.0000 -0.1290163341
C   C268      1.0  0.72640  0.06560  0.84620  1.0000 -0.1290163341
C   C269      1.0  0.93440  0.66080  0.84620  1.0000 -0.1290163341
C   C270      1.0  0.33920  0.27360  0.84620  1.0000 -0.1290163341
C   C271      1.0  0.27540  0.00150  0.34430  1.0000 -0.1001987473
C   C272      1.0  0.99850  0.27390  0.34430  1.0000 -0.1001987473
C   C273      1.0  0.72610  0.72460  0.34430  1.0000 -0.1001987473
C   C274      1.0  0.72460  0.99850  0.84430  1.0000 -0.1001987473
C   C275      1.0  0.00150  0.72610  0.84430  1.0000 -0.1001987473
C   C276      1.0  0.27390  0.27540  0.84430  1.0000 -0.1001987473
C   C277      1.0  0.77280  0.60890  0.47650  1.0000 -0.1116331576
C   C278      1.0  0.39110  0.16390  0.47650  1.0000 -0.1116331576
C   C279      1.0  0.83610  0.22720  0.47650  1.0000 -0.1116331576
C   C280      1.0  0.22720  0.39110  0.97650  1.0000 -0.1116331576
C   C281      1.0  0.60890  0.83610  0.97650  1.0000 -0.1116331576
C   C282      1.0  0.16390  0.77280  0.97650  1.0000 -0.1116331576
C   C283      1.0  0.21880  0.74430  0.17640  1.0000 -0.1116331576
C   C284      1.0  0.25570  0.47450  0.17640  1.0000 -0.1116331576
C   C285      1.0  0.52550  0.78120  0.17640  1.0000 -0.1116331576
C   C286      1.0  0.78120  0.25570  0.67640  1.0000 -0.1116331576
C   C287      1.0  0.74430  0.52550  0.67640  1.0000 -0.1116331576
C   C288      1.0  0.47450  0.21880  0.67640  1.0000 -0.1116331576
C   C289      1.0  0.06150  0.79900  0.51060  1.0000 -0.1001987473
C   C290      1.0  0.20100  0.26250  0.51060  1.0000 -0.1001987473
C   C291      1.0  0.73750  0.93850  0.51060  1.0000 -0.1001987473
C   C292      1.0  0.93850  0.20100  0.01060  1.0000 -0.1001987473
C   C293      1.0  0.79900  0.73750  0.01060  1.0000 -0.1001987473
C   C294      1.0  0.26250  0.06150  0.01060  1.0000 -0.1001987473
C   C295      1.0  0.76180  0.59570  0.43320  1.0000 -0.0133563283
C   C296      1.0  0.40430  0.16610  0.43320  1.0000 -0.0133563283
C   C297      1.0  0.83390  0.23820  0.43320  1.0000 -0.0133563283
C   C298      1.0  0.23820  0.40430  0.93320  1.0000 -0.0133563283
C   C299      1.0  0.59570  0.83390  0.93320  1.0000 -0.0133563283
C   C300      1.0  0.16610  0.76180  0.93320  1.0000 -0.0133563283
C   C301      1.0  0.92780  0.40610  0.57250  1.0000 -0.156748299
C   C302      1.0  0.59390  0.52170  0.57250  1.0000 -0.156748299
C   C303      1.0  0.47830  0.07220  0.57250  1.0000 -0.156748299
C   C304      1.0  0.07220  0.59390  0.07250  1.0000 -0.156748299
C   C305      1.0  0.40610  0.47830  0.07250  1.0000 -0.156748299
C   C306      1.0  0.52170  0.92780  0.07250  1.0000 -0.156748299
C   C307      1.0  0.92380  0.59400  0.53500  1.0000 -0.1494806192
C   C308      1.0  0.40600  0.32980  0.53500  1.0000 -0.1494806192
C   C309      1.0  0.67020  0.07620  0.53500  1.0000 -0.1494806192
C   C310      1.0  0.07620  0.40600  0.03500  1.0000 -0.1494806192
C   C311      1.0  0.59400  0.67020  0.03500  1.0000 -0.1494806192
C   C312      1.0  0.32980  0.92380  0.03500  1.0000 -0.1494806192
C   C313      1.0  0.85640  0.65120  0.56020  1.0000 -0.1697509462
C   C314      1.0  0.34880  0.20520  0.56020  1.0000 -0.1697509462
C   C315      1.0  0.79480  0.14360  0.56020  1.0000 -0.1697509462
C   C316      1.0  0.14360  0.34880  0.06020  1.0000 -0.1697509462
C   C317      1.0  0.65120  0.79480  0.06020  1.0000 -0.1697509462
C   C318      1.0  0.20520  0.85640  0.06020  1.0000 -0.1697509462
C   C319      1.0  0.09890  0.80630  0.54820  1.0000 -0.1405044274
C   C320      1.0  0.19370  0.29260  0.54820  1.0000 -0.1405044274
C   C321      1.0  0.70740  0.90110  0.54820  1.0000 -0.1405044274
C   C322      1.0  0.90110  0.19370  0.04820  1.0000 -0.1405044274
C   C323      1.0  0.80630  0.70740  0.04820  1.0000 -0.1405044274
C   C324      1.0  0.29260  0.09890  0.04820  1.0000 -0.1405044274
C   C325      1.0  0.13680  0.87110  0.34480  1.0000 0.0501380703
C   C326      1.0  0.12890  0.26570  0.34480  1.0000 0.0501380703
C   C327      1.0  0.73430  0.86320  0.34480  1.0000 0.0501380703
C   C328      1.0  0.86320  0.12890  0.84480  1.0000 0.0501380703
C   C329      1.0  0.87110  0.73430  0.84480  1.0000 0.0501380703
C   C330      1.0  0.26570  0.13680  0.84480  1.0000 0.0501380703
C   C331      1.0  0.02430  0.62210  0.65980  1.0000 -0.1290163341
C   C332      1.0  0.37790  0.40220  0.65980  1.0000 -0.1290163341
C   C333      1.0  0.59780  0.97570  0.65980  1.0000 -0.1290163341
C   C334      1.0  0.97570  0.37790  0.15980  1.0000 -0.1290163341
C   C335      1.0  0.62210  0.59780  0.15980  1.0000 -0.1290163341
C   C336      1.0  0.40220  0.02430  0.15980  1.0000 -0.1290163341
C   C337      1.0  0.06770  0.80510  0.34710  1.0000 -0.1405044274
C   C338      1.0  0.19490  0.26260  0.34710  1.0000 -0.1405044274
C   C339      1.0  0.73740  0.93230  0.34710  1.0000 -0.1405044274
C   C340      1.0  0.93230  0.19490  0.84710  1.0000 -0.1405044274
C   C341      1.0  0.80510  0.73740  0.84710  1.0000 -0.1405044274
C   C342      1.0  0.26260  0.06770  0.84710  1.0000 -0.1405044274
C   C343      1.0  0.89230  0.66320  0.59990  1.0000 -0.1405044274
C   C344      1.0  0.33680  0.22910  0.59990  1.0000 -0.1405044274
C   C345      1.0  0.77090  0.10770  0.59990  1.0000 -0.1405044274
C   C346      1.0  0.10770  0.33680  0.09990  1.0000 -0.1405044274
C   C347      1.0  0.66320  0.77090  0.09990  1.0000 -0.1405044274
C   C348      1.0  0.22910  0.89230  0.09990  1.0000 -0.1405044274
C   C349      1.0  0.96490  0.41940  0.60980  1.0000 -0.0901229046
C   C350      1.0  0.58060  0.54550  0.60980  1.0000 -0.0901229046
C   C351      1.0  0.45450  0.03510  0.60980  1.0000 -0.0901229046
C   C352      1.0  0.03510  0.58060  0.10980  1.0000 -0.0901229046
C   C353      1.0  0.41940  0.45450  0.10980  1.0000 -0.0901229046
C   C354      1.0  0.54550  0.96490  0.10980  1.0000 -0.0901229046
C   C355      1.0  0.20930  0.00620  0.34100  1.0000 -0.1116331576
C   C356      1.0  0.99380  0.20310  0.34100  1.0000 -0.1116331576
C   C357      1.0  0.79690  0.79070  0.34100  1.0000 -0.1116331576
C   C358      1.0  0.79070  0.99380  0.84100  1.0000 -0.1116331576
C   C359      1.0  0.00620  0.79690  0.84100  1.0000 -0.1116331576
C   C360      1.0  0.20310  0.20930  0.84100  1.0000 -0.1116331576
C   C361      1.0  0.14130  0.94290  0.34260  1.0000 -0.1405044274
C   C362      1.0  0.05710  0.19840  0.34260  1.0000 -0.1405044274
C   C363      1.0  0.80160  0.85870  0.34260  1.0000 -0.1405044274
C   C364      1.0  0.85870  0.05710  0.84260  1.0000 -0.1405044274
C   C365      1.0  0.94290  0.80160  0.84260  1.0000 -0.1405044274
C   C366      1.0  0.19840  0.14130  0.84260  1.0000 -0.1405044274
C   C367      1.0  0.02710  0.72200  0.71760  1.0000 -0.156748299
C   C368      1.0  0.27800  0.30510  0.71760  1.0000 -0.156748299
C   C369      1.0  0.69490  0.97290  0.71760  1.0000 -0.156748299
C   C370      1.0  0.97290  0.27800  0.21760  1.0000 -0.156748299
C   C371      1.0  0.72200  0.69490  0.21760  1.0000 -0.156748299
C   C372      1.0  0.30510  0.02710  0.21760  1.0000 -0.156748299
C   C373      1.0  0.96010  0.60870  0.57500  1.0000 -0.1116331576
C   C374      1.0  0.39130  0.35140  0.57500  1.0000 -0.1116331576
C   C375      1.0  0.64860  0.03990  0.57500  1.0000 -0.1116331576
C   C376      1.0  0.03990  0.39130  0.07500  1.0000 -0.1116331576
C   C377      1.0  0.60870  0.64860  0.07500  1.0000 -0.1116331576
C   C378      1.0  0.35140  0.96010  0.07500  1.0000 -0.1116331576
C   C379      1.0  0.99080  0.70940  0.67730  1.0000 -0.1203435212
C   C380      1.0  0.29060  0.28140  0.67730  1.0000 -0.1203435212
C   C381      1.0  0.71860  0.00920  0.67730  1.0000 -0.1203435212
C   C382      1.0  0.00920  0.29060  0.17730  1.0000 -0.1203435212
C   C383      1.0  0.70940  0.71860  0.17730  1.0000 -0.1203435212
C   C384      1.0  0.28140  0.99080  0.17730  1.0000 -0.1203435212
N   N1        1.0  0.18190  0.76020  0.81942  1.0000 -0.2963160673
N   N2        1.0  0.23980  0.42170  0.81942  1.0000 -0.2963160673
N   N3        1.0  0.57830  0.81810  0.81942  1.0000 -0.2963160673
N   N4        1.0  0.81810  0.23980  0.31942  1.0000 -0.2963160673
N   N5        1.0  0.76020  0.57830  0.31942  1.0000 -0.2963160673
N   N6        1.0  0.42170  0.18190  0.31942  1.0000 -0.2963160673
N   N7        1.0  0.81670  0.58260  0.41690  1.0000 -0.2838017146
N   N8        1.0  0.41740  0.23410  0.41690  1.0000 -0.2838017146
N   N9        1.0  0.76590  0.18330  0.41690  1.0000 -0.2838017146
N   N10       1.0  0.18330  0.41740  0.91690  1.0000 -0.2838017146
N   N11       1.0  0.58260  0.76590  0.91690  1.0000 -0.2838017146
N   N12       1.0  0.23410  0.81670  0.91690  1.0000 -0.2838017146
N   N13       1.0  0.10450  0.70030  0.76672  1.0000 0.0122427744
N   N14       1.0  0.29970  0.40420  0.76672  1.0000 0.0122427744
N   N15       1.0  0.59580  0.89550  0.76672  1.0000 0.0122427744
N   N16       1.0  0.89550  0.29970  0.26672  1.0000 0.0122427744
N   N17       1.0  0.70030  0.59580  0.26672  1.0000 0.0122427744
N   N18       1.0  0.40420  0.10450  0.26672  1.0000 0.0122427744
N   N19       1.0  0.84050  0.48670  0.33110  1.0000 -0.7638959686
N   N20       1.0  0.51330  0.35380  0.33110  1.0000 -0.7638959686
N   N21       1.0  0.64620  0.15950  0.33110  1.0000 -0.7638959686
N   N22       1.0  0.15950  0.51330  0.83110  1.0000 -0.7638959686
N   N23       1.0  0.48670  0.64620  0.83110  1.0000 -0.7638959686
N   N24       1.0  0.35380  0.84050  0.83110  1.0000 -0.7638959686
N   N25       1.0  0.83560  0.60330  0.48660  1.0000 0.0122427744
N   N26       1.0  0.39670  0.23230  0.48660  1.0000 0.0122427744
N   N27       1.0  0.76770  0.16440  0.48660  1.0000 0.0122427744
N   N28       1.0  0.16440  0.39670  0.98660  1.0000 0.0122427744
N   N29       1.0  0.60330  0.76770  0.98660  1.0000 0.0122427744
N   N30       1.0  0.23230  0.83560  0.98660  1.0000 0.0122427744
O   O1        1.0  0.95760  0.47320  0.37928  1.0000 -0.6340483035
O   O2        1.0  0.52680  0.48440  0.37928  1.0000 -0.6340483035
O   O3        1.0  0.51560  0.04240  0.37928  1.0000 -0.6340483035
O   O4        1.0  0.04240  0.52680  0.87928  1.0000 -0.6340483035
O   O5        1.0  0.47320  0.51560  0.87928  1.0000 -0.6340483035
O   O6        1.0  0.48440  0.95760  0.87928  1.0000 -0.6340483035
O   O7        1.0  0.98340  0.61240  0.37459  1.0000 -0.6153892974
O   O8        1.0  0.38760  0.37100  0.37459  1.0000 -0.6071512233
O   O9        1.0  0.62900  0.01660  0.37459  1.0000 -0.6071512233
O   O10       1.0  0.01660  0.38760  0.87459  1.0000 -0.6153892974
O   O11       1.0  0.61240  0.62900  0.87459  1.0000 -0.6153892974
O   O12       1.0  0.37100  0.98340  0.87459  1.0000 -0.6153892974
O   O13       1.0  0.12430  0.66550  0.35341  1.0000 -0.6071512233
O   O14       1.0  0.33450  0.45880  0.35341  1.0000 -0.6071512233
O   O15       1.0  0.54120  0.87570  0.35341  1.0000 -0.6071512233
O   O16       1.0  0.87570  0.33450  0.85341  1.0000 -0.6071512233
O   O17       1.0  0.66550  0.54120  0.85341  1.0000 -0.6071512233
O   O18       1.0  0.45880  0.12430  0.85341  1.0000 -0.6071512233
O   O19       1.0  0.54190  0.99140  0.30473  1.0000 -0.6340483035
O   O20       1.0  0.00860  0.55050  0.30473  1.0000 -0.6340483035
O   O21       1.0  0.44950  0.45810  0.30473  1.0000 -0.6340483035
O   O22       1.0  0.45810  0.00860  0.80473  1.0000 -0.6340483035
O   O23       1.0  0.99140  0.44950  0.80473  1.0000 -0.6340483035
O   O24       1.0  0.55050  0.54190  0.80473  1.0000 -0.6340483035
O   O25       1.0  0.07440  0.56760  0.42347  1.0000 -0.6340483035
O   O26       1.0  0.43240  0.50680  0.42347  1.0000 -0.6340483035
O   O27       1.0  0.49320  0.92560  0.42347  1.0000 -0.6340483035
O   O28       1.0  0.92560  0.43240  0.92347  1.0000 -0.6340483035
O   O29       1.0  0.56760  0.49320  0.92347  1.0000 -0.6340483035
O   O30       1.0  0.50680  0.07440  0.92347  1.0000 -0.6359446744
O   O31       1.0  0.41820  0.89400  0.34363  1.0000 -0.6071512233
O   O32       1.0  0.10600  0.52420  0.34363  1.0000 -0.6071512233
O   O33       1.0  0.47580  0.58180  0.34363  1.0000 -0.6071512233
O   O34       1.0  0.58180  0.10600  0.84363  1.0000 -0.6071512233
O   O35       1.0  0.89400  0.47580  0.84363  1.0000 -0.6071512233
O   O36       1.0  0.52420  0.41820  0.84363  1.0000 -0.6071512233
O   O37       1.0  0.25010  0.65030  0.57298  1.0000 -0.5986878715
O   O38       1.0  0.34970  0.59980  0.57298  1.0000 -0.5986878715
O   O39       1.0  0.40020  0.74990  0.57298  1.0000 -0.5986878715
O   O40       1.0  0.74990  0.34970  0.07298  1.0000 -0.5986878715
O   O41       1.0  0.65030  0.40020  0.07298  1.0000 -0.5986878715
O   O42       1.0  0.59980  0.25010  0.07298  1.0000 -0.5986878715
O   O43       1.0  0.30320  0.72400  0.64567  1.0000 -0.6071512233
O   O44       1.0  0.27600  0.57920  0.64567  1.0000 -0.6071512233
O   O45       1.0  0.42080  0.69680  0.64567  1.0000 -0.6071512233
O   O46       1.0  0.69680  0.27600  0.14567  1.0000 -0.6071512233
O   O47       1.0  0.72400  0.42080  0.14567  1.0000 -0.6071512233
O   O48       1.0  0.57920  0.30320  0.14567  1.0000 -0.5986878715
O   O49       1.0  0.93250  0.67280  0.34474  1.0000 -0.510986482
O   O50       1.0  0.32720  0.25970  0.34474  1.0000 -0.510986482
O   O51       1.0  0.74030  0.06750  0.34474  1.0000 -0.510986482
O   O52       1.0  0.06750  0.32720  0.84474  1.0000 -0.510986482
O   O53       1.0  0.67280  0.74030  0.84474  1.0000 -0.510986482
O   O54       1.0  0.25970  0.93250  0.84474  1.0000 -0.510986482
O   O55       1.0  0.85330  0.40600  0.41560  1.0000 -0.523478955
O   O56       1.0  0.59400  0.44730  0.41560  1.0000 -0.523478955
O   O57       1.0  0.55270  0.14670  0.41560  1.0000 -0.523478955
O   O58       1.0  0.14670  0.59400  0.91560  1.0000 -0.523478955
O   O59       1.0  0.40600  0.55270  0.91560  1.0000 -0.523478955
O   O60       1.0  0.44730  0.85330  0.91560  1.0000 -0.523478955
O   O61       1.0  0.54360  0.99370  0.23315  1.0000 -0.510986482
O   O62       1.0  0.00630  0.54990  0.23315  1.0000 -0.510986482
O   O63       1.0  0.45010  0.45640  0.23315  1.0000 -0.510986482
O   O64       1.0  0.45640  0.00630  0.73315  1.0000 -0.510986482
O   O65       1.0  0.99370  0.45010  0.73315  1.0000 -0.510986482
O   O66       1.0  0.54990  0.54360  0.73315  1.0000 -0.510986482
O   O67       1.0  0.25710  0.79310  0.66910  1.0000 -0.5274345576
O   O68       1.0  0.20690  0.46400  0.66910  1.0000 -0.5274345576
O   O69       1.0  0.53600  0.74290  0.66910  1.0000 -0.5274345576
O   O70       1.0  0.74290  0.20690  0.16910  1.0000 -0.5274345576
O   O71       1.0  0.79310  0.53600  0.16910  1.0000 -0.5274345576
O   O72       1.0  0.46400  0.25710  0.16910  1.0000 -0.5274345576
