# DDEC6 charges by PACMAN v1.1 (https://github.com/mtap-research/PACMAN-charge/)
data_2023[ZnTi][nan]3[ASR]8
_chemical_formula_sum              "Ti8 Zn6 H246 C384 N30 O72"
_cell_length_a       20.7138
_cell_length_b       20.7138
_cell_length_c       30.6389
_cell_angle_alpha    90
_cell_angle_beta     90
_cell_angle_gamma    120

_symmetry_space_group_name_H-M    "P 1"
_symmetry_Int_Tables_number       1

loop_
  _symmetry_equiv_pos_as_xyz
  'x, y, z'

loop_
  _atom_site_type_symbol
  _atom_site_label
  _atom_site_symmetry_multiplicity
  _atom_site_fract_x
  _atom_site_fract_y
  _atom_site_fract_z
  _atom_site_occupancy
  _atom_site_charge
Ti  Ti1       1.0  0.51436  0.94833  0.54803  1.0000 1.9072897512
Ti  Ti2       1.0  0.05167  0.56603  0.54803  1.0000 1.9072897512
Ti  Ti3       1.0  0.43397  0.48564  0.54803  1.0000 1.9072897512
Ti  Ti4       1.0  0.48564  0.05167  0.04803  1.0000 1.9072897512
Ti  Ti5       1.0  0.94833  0.43397  0.04803  1.0000 1.9072897512
Ti  Ti6       1.0  0.56603  0.51436  0.04803  1.0000 1.9072897512
Ti  Ti7       1.0  0.33333  0.66667  0.78841  1.0000 1.9072897512
Ti  Ti8       1.0  0.66667  0.33333  0.28841  1.0000 1.9072897512
Zn  Zn1       1.0  0.83917  0.57523  0.53676  1.0000 0.7361380088
Zn  Zn2       1.0  0.42477  0.26394  0.53676  1.0000 0.7361380088
Zn  Zn3       1.0  0.73606  0.16083  0.53676  1.0000 0.7361380088
Zn  Zn4       1.0  0.16083  0.42477  0.03676  1.0000 0.7361380088
Zn  Zn5       1.0  0.57523  0.73606  0.03676  1.0000 0.7361380088
Zn  Zn6       1.0  0.26394  0.83917  0.03676  1.0000 0.7361380088
H   H1        1.0  0.25139  0.73474  0.52685  1.0000 0.1310054228
H   H2        1.0  0.26526  0.51665  0.52685  1.0000 0.1310054228
H   H3        1.0  0.48335  0.74861  0.52685  1.0000 0.1310054228
H   H4        1.0  0.74861  0.26526  0.02685  1.0000 0.1310054228
H   H5        1.0  0.73474  0.48335  0.02685  1.0000 0.1310054228
H   H6        1.0  0.51665  0.25139  0.02685  1.0000 0.1310054228
H   H7        1.0  0.29922  0.81168  0.54995  1.0000 0.1310054228
H   H8        1.0  0.18832  0.48754  0.54995  1.0000 0.1310054228
H   H9        1.0  0.51246  0.70078  0.54995  1.0000 0.1310054228
H   H10       1.0  0.70078  0.18832  0.04995  1.0000 0.1310054228
H   H11       1.0  0.81168  0.51246  0.04995  1.0000 0.1310054228
H   H12       1.0  0.48754  0.29922  0.04995  1.0000 0.1310054228
H   H13       1.0  0.88318  0.48939  0.52229  1.0000 0.303027275
H   H14       1.0  0.51061  0.39379  0.52229  1.0000 0.303027275
H   H15       1.0  0.60621  0.11682  0.52229  1.0000 0.303027275
H   H16       1.0  0.11682  0.51061  0.02229  1.0000 0.303027275
H   H17       1.0  0.48939  0.60621  0.02229  1.0000 0.303027275
H   H18       1.0  0.39379  0.88318  0.02229  1.0000 0.303027275
H   H19       1.0  0.84208  0.49013  0.48409  1.0000 0.3181959667
H   H20       1.0  0.50987  0.35195  0.48409  1.0000 0.3181959667
H   H21       1.0  0.64805  0.15792  0.48409  1.0000 0.3181959667
H   H22       1.0  0.15792  0.50987  0.98409  1.0000 0.3181959667
H   H23       1.0  0.49013  0.64805  0.98409  1.0000 0.3181959667
H   H24       1.0  0.35195  0.84208  0.98409  1.0000 0.3181959667
H   H25       1.0  0.80224  0.44705  0.52229  1.0000 0.306950711
H   H26       1.0  0.55295  0.35519  0.52229  1.0000 0.306950711
H   H27       1.0  0.64481  0.19776  0.52229  1.0000 0.306950711
H   H28       1.0  0.19776  0.55295  0.02229  1.0000 0.306950711
H   H29       1.0  0.44705  0.64481  0.02229  1.0000 0.306950711
H   H30       1.0  0.35519  0.80224  0.02229  1.0000 0.306950711
H   H31       1.0  0.59499  0.53124  0.47838  1.0000 0.1474470126
H   H32       1.0  0.46876  0.06375  0.47838  1.0000 0.1474470126
H   H33       1.0  0.93625  0.40501  0.47838  1.0000 0.1474470126
H   H34       1.0  0.40501  0.46876  0.97838  1.0000 0.1474470126
H   H35       1.0  0.53124  0.93625  0.97838  1.0000 0.1474470126
H   H36       1.0  0.06375  0.59499  0.97838  1.0000 0.1474470126
H   H37       1.0  0.46152  0.82863  0.65504  1.0000 0.1310054228
H   H38       1.0  0.17137  0.63289  0.65504  1.0000 0.1310054228
H   H39       1.0  0.36711  0.53848  0.65504  1.0000 0.1310054228
H   H40       1.0  0.53848  0.17137  0.15504  1.0000 0.1310054228
H   H41       1.0  0.82863  0.36711  0.15504  1.0000 0.1310054228
H   H42       1.0  0.63289  0.46152  0.15504  1.0000 0.1310054228
H   H43       1.0  0.40377  0.80938  0.69286  1.0000 0.1310054228
H   H44       1.0  0.19062  0.59439  0.69286  1.0000 0.1310054228
H   H45       1.0  0.40561  0.59623  0.69286  1.0000 0.1310054228
H   H46       1.0  0.59623  0.19062  0.19286  1.0000 0.1310054228
H   H47       1.0  0.80938  0.40561  0.19286  1.0000 0.1310054228
H   H48       1.0  0.59439  0.40377  0.19286  1.0000 0.1310054228
H   H49       1.0  0.41707  0.86920  0.76276  1.0000 0.1204561544
H   H50       1.0  0.13080  0.54787  0.76276  1.0000 0.1204561544
H   H51       1.0  0.45213  0.58293  0.76276  1.0000 0.1204561544
H   H52       1.0  0.58293  0.13080  0.26276  1.0000 0.1204561544
H   H53       1.0  0.86920  0.45213  0.26276  1.0000 0.1204561544
H   H54       1.0  0.54787  0.41707  0.26276  1.0000 0.1204561544
H   H55       1.0  0.81035  0.64752  0.45103  1.0000 0.1310054228
H   H56       1.0  0.35248  0.16283  0.45103  1.0000 0.1310054228
H   H57       1.0  0.83717  0.18965  0.45103  1.0000 0.1310054228
H   H58       1.0  0.18965  0.35248  0.95103  1.0000 0.1310054228
H   H59       1.0  0.64752  0.83717  0.95103  1.0000 0.1310054228
H   H60       1.0  0.16283  0.81035  0.95103  1.0000 0.1310054228
H   H61       1.0  0.42860  0.90380  0.38328  1.0000 0.1204561544
H   H62       1.0  0.09620  0.52480  0.38328  1.0000 0.1204561544
H   H63       1.0  0.47520  0.57140  0.38328  1.0000 0.1204561544
H   H64       1.0  0.57140  0.09620  0.88328  1.0000 0.1204561544
H   H65       1.0  0.90380  0.47520  0.88328  1.0000 0.1204561544
H   H66       1.0  0.52480  0.42860  0.88328  1.0000 0.1204561544
H   H67       1.0  0.66394  0.50619  0.53478  1.0000 0.1358326304
H   H68       1.0  0.49381  0.15775  0.53478  1.0000 0.1358326304
H   H69       1.0  0.84225  0.33606  0.53478  1.0000 0.1358326304
H   H70       1.0  0.33606  0.49381  0.03478  1.0000 0.1358326304
H   H71       1.0  0.50619  0.84225  0.03478  1.0000 0.1358326304
H   H72       1.0  0.15775  0.66394  0.03478  1.0000 0.1358326304
H   H73       1.0  0.59163  0.91661  0.64874  1.0000 0.1204561544
H   H74       1.0  0.08339  0.67502  0.64874  1.0000 0.1204561544
H   H75       1.0  0.32498  0.40837  0.64874  1.0000 0.1204561544
H   H76       1.0  0.40837  0.08339  0.14874  1.0000 0.1204561544
H   H77       1.0  0.91661  0.32498  0.14874  1.0000 0.1204561544
H   H78       1.0  0.67502  0.59163  0.14874  1.0000 0.1204561544
H   H79       1.0  0.71736  0.97888  0.64247  1.0000 0.1134898477
H   H80       1.0  0.02112  0.73848  0.64247  1.0000 0.1134898477
H   H81       1.0  0.26152  0.28264  0.64247  1.0000 0.1134898477
H   H82       1.0  0.28264  0.02112  0.14247  1.0000 0.1134898477
H   H83       1.0  0.97888  0.26152  0.14247  1.0000 0.1134898477
H   H84       1.0  0.73848  0.71736  0.14247  1.0000 0.1134898477
H   H85       1.0  0.31759  0.93254  0.53020  1.0000 0.1204561544
H   H86       1.0  0.06746  0.38505  0.53020  1.0000 0.1204561544
H   H87       1.0  0.61495  0.68241  0.53020  1.0000 0.1204561544
H   H88       1.0  0.68241  0.06746  0.03020  1.0000 0.1204561544
H   H89       1.0  0.93254  0.61495  0.03020  1.0000 0.1204561544
H   H90       1.0  0.38505  0.31759  0.03020  1.0000 0.1204561544
H   H91       1.0  0.32317  0.04435  0.53112  1.0000 0.1016146432
H   H92       1.0  0.95565  0.27882  0.53112  1.0000 0.1016146432
H   H93       1.0  0.72118  0.67683  0.53112  1.0000 0.1016146432
H   H94       1.0  0.67683  0.95565  0.03112  1.0000 0.1016146432
H   H95       1.0  0.04435  0.72118  0.03112  1.0000 0.1016146432
H   H96       1.0  0.27882  0.32317  0.03112  1.0000 0.1016146432
H   H97       1.0  0.62904  0.81976  0.80046  1.0000 0.1204561544
H   H98       1.0  0.18024  0.80928  0.80046  1.0000 0.1204561544
H   H99       1.0  0.19072  0.37096  0.80046  1.0000 0.1204561544
H   H100      1.0  0.37096  0.18024  0.30046  1.0000 0.1204561544
H   H101      1.0  0.81976  0.19072  0.30046  1.0000 0.1204561544
H   H102      1.0  0.80928  0.62904  0.30046  1.0000 0.1204561544
H   H103      1.0  0.17784  0.70908  0.46032  1.0000 0.1204561544
H   H104      1.0  0.29092  0.46876  0.46032  1.0000 0.1204561544
H   H105      1.0  0.53124  0.82216  0.46032  1.0000 0.1204561544
H   H106      1.0  0.82216  0.29092  0.96032  1.0000 0.1204561544
H   H107      1.0  0.70908  0.53124  0.96032  1.0000 0.1204561544
H   H108      1.0  0.46876  0.17784  0.96032  1.0000 0.1204561544
H   H109      1.0  0.58176  0.68329  0.13085  1.0000 0.1310054228
H   H110      1.0  0.31671  0.89847  0.13085  1.0000 0.1310054228
H   H111      1.0  0.10153  0.41824  0.13085  1.0000 0.1310054228
H   H112      1.0  0.41824  0.31671  0.63085  1.0000 0.1310054228
H   H113      1.0  0.68329  0.10153  0.63085  1.0000 0.1310054228
H   H114      1.0  0.89847  0.58176  0.63085  1.0000 0.1310054228
H   H115      1.0  0.51378  0.12094  0.67578  1.0000 0.1134898477
H   H116      1.0  0.87906  0.39284  0.67578  1.0000 0.1134898477
H   H117      1.0  0.60716  0.48622  0.67578  1.0000 0.1134898477
H   H118      1.0  0.48622  0.87906  0.17578  1.0000 0.1134898477
H   H119      1.0  0.12094  0.60716  0.17578  1.0000 0.1134898477
H   H120      1.0  0.39284  0.51378  0.17578  1.0000 0.1134898477
H   H121      1.0  0.32222  0.81888  0.33681  1.0000 0.1204561544
H   H122      1.0  0.18112  0.50334  0.33681  1.0000 0.1204561544
H   H123      1.0  0.49666  0.67778  0.33681  1.0000 0.1204561544
H   H124      1.0  0.67778  0.18112  0.83681  1.0000 0.1204561544
H   H125      1.0  0.81888  0.49666  0.83681  1.0000 0.1204561544
H   H126      1.0  0.50334  0.32222  0.83681  1.0000 0.1204561544
H   H127      1.0  0.12792  0.67224  0.39128  1.0000 0.1134898477
H   H128      1.0  0.32776  0.45568  0.39128  1.0000 0.1134898477
H   H129      1.0  0.54432  0.87208  0.39128  1.0000 0.1134898477
H   H130      1.0  0.87208  0.32776  0.89128  1.0000 0.1134898477
H   H131      1.0  0.67224  0.54432  0.89128  1.0000 0.1134898477
H   H132      1.0  0.45568  0.12792  0.89128  1.0000 0.1134898477
H   H133      1.0  0.59695  0.87408  0.09877  1.0000 0.1310054228
H   H134      1.0  0.12592  0.72287  0.09877  1.0000 0.1310054228
H   H135      1.0  0.27713  0.40305  0.09877  1.0000 0.1310054228
H   H136      1.0  0.40305  0.12592  0.59877  1.0000 0.1310054228
H   H137      1.0  0.87408  0.27713  0.59877  1.0000 0.1310054228
H   H138      1.0  0.72287  0.59695  0.59877  1.0000 0.1310054228
H   H139      1.0  0.02578  0.80971  0.53131  1.0000 0.1204561544
H   H140      1.0  0.19029  0.21607  0.53131  1.0000 0.1204561544
H   H141      1.0  0.78393  0.97422  0.53131  1.0000 0.1204561544
H   H142      1.0  0.97422  0.19029  0.03131  1.0000 0.1204561544
H   H143      1.0  0.80971  0.78393  0.03131  1.0000 0.1204561544
H   H144      1.0  0.21607  0.02578  0.03131  1.0000 0.1204561544
H   H145      1.0  0.40856  0.93234  0.82339  1.0000 0.1310054228
H   H146      1.0  0.06766  0.47622  0.82339  1.0000 0.1310054228
H   H147      1.0  0.52378  0.59144  0.82339  1.0000 0.1310054228
H   H148      1.0  0.59144  0.06766  0.32339  1.0000 0.1310054228
H   H149      1.0  0.93234  0.52378  0.32339  1.0000 0.1310054228
H   H150      1.0  0.47622  0.40856  0.32339  1.0000 0.1310054228
H   H151      1.0  0.68682  0.85043  0.23311  1.0000 0.1310054228
H   H152      1.0  0.14957  0.83639  0.23311  1.0000 0.1310054228
H   H153      1.0  0.16361  0.31318  0.23311  1.0000 0.1310054228
H   H154      1.0  0.31318  0.14957  0.73311  1.0000 0.1310054228
H   H155      1.0  0.85043  0.16361  0.73311  1.0000 0.1310054228
H   H156      1.0  0.83639  0.68682  0.73311  1.0000 0.1310054228
H   H157      1.0  0.62196  0.87951  0.17678  1.0000 0.1310054228
H   H158      1.0  0.12049  0.74245  0.17678  1.0000 0.1310054228
H   H159      1.0  0.25755  0.37804  0.17678  1.0000 0.1310054228
H   H160      1.0  0.37804  0.12049  0.67678  1.0000 0.1310054228
H   H161      1.0  0.87951  0.25755  0.67678  1.0000 0.1310054228
H   H162      1.0  0.74245  0.62196  0.67678  1.0000 0.1310054228
H   H163      1.0  0.20361  0.72534  0.32924  1.0000 0.1134898477
H   H164      1.0  0.27466  0.47827  0.32924  1.0000 0.1134898477
H   H165      1.0  0.52173  0.79639  0.32924  1.0000 0.1134898477
H   H166      1.0  0.79639  0.27466  0.82924  1.0000 0.1134898477
H   H167      1.0  0.72534  0.52173  0.82924  1.0000 0.1134898477
H   H168      1.0  0.47827  0.20361  0.82924  1.0000 0.1134898477
H   H169      1.0  0.74021  0.90482  0.75873  1.0000 0.1204561544
H   H170      1.0  0.09518  0.83539  0.75873  1.0000 0.1204561544
H   H171      1.0  0.16461  0.25979  0.75873  1.0000 0.1204561544
H   H172      1.0  0.25979  0.09518  0.25873  1.0000 0.1204561544
H   H173      1.0  0.90482  0.16461  0.25873  1.0000 0.1204561544
H   H174      1.0  0.83539  0.74021  0.25873  1.0000 0.1204561544
H   H175      1.0  0.60534  0.56800  0.31712  1.0000 0.1204561544
H   H176      1.0  0.43200  0.03734  0.31712  1.0000 0.1204561544
H   H177      1.0  0.96266  0.39466  0.31712  1.0000 0.1204561544
H   H178      1.0  0.39466  0.43200  0.81712  1.0000 0.1204561544
H   H179      1.0  0.56800  0.96266  0.81712  1.0000 0.1204561544
H   H180      1.0  0.03734  0.60534  0.81712  1.0000 0.1204561544
H   H181      1.0  0.10059  0.94579  0.52992  1.0000 0.1204561544
H   H182      1.0  0.05421  0.15480  0.52992  1.0000 0.1204561544
H   H183      1.0  0.84520  0.89941  0.52992  1.0000 0.1204561544
H   H184      1.0  0.89941  0.05421  0.02992  1.0000 0.1204561544
H   H185      1.0  0.94579  0.84520  0.02992  1.0000 0.1204561544
H   H186      1.0  0.15480  0.10059  0.02992  1.0000 0.1204561544
H   H187      1.0  0.63178  0.52742  0.38137  1.0000 0.1474470126
H   H188      1.0  0.47258  0.10436  0.38137  1.0000 0.1474470126
H   H189      1.0  0.89564  0.36822  0.38137  1.0000 0.1474470126
H   H190      1.0  0.36822  0.47258  0.88137  1.0000 0.1474470126
H   H191      1.0  0.52742  0.89564  0.88137  1.0000 0.1474470126
H   H192      1.0  0.10436  0.63178  0.88137  1.0000 0.1474470126
H   H193      1.0  0.79320  0.97289  0.69631  1.0000 0.1204561544
H   H194      1.0  0.02711  0.82031  0.69631  1.0000 0.1204561544
H   H195      1.0  0.17969  0.20680  0.69631  1.0000 0.1204561544
H   H196      1.0  0.20680  0.02711  0.19631  1.0000 0.1204561544
H   H197      1.0  0.97289  0.17969  0.19631  1.0000 0.1204561544
H   H198      1.0  0.82031  0.79320  0.19631  1.0000 0.1204561544
H   H199      1.0  0.21474  0.05266  0.52923  1.0000 0.1204561544
H   H200      1.0  0.94734  0.16208  0.52923  1.0000 0.1204561544
H   H201      1.0  0.83792  0.78526  0.52923  1.0000 0.1204561544
H   H202      1.0  0.78526  0.94734  0.02923  1.0000 0.1204561544
H   H203      1.0  0.05266  0.83792  0.02923  1.0000 0.1204561544
H   H204      1.0  0.16208  0.21474  0.02923  1.0000 0.1204561544
H   H205      1.0  0.70532  0.81168  0.30090  1.0000 0.1204561544
H   H206      1.0  0.18832  0.89364  0.30090  1.0000 0.1204561544
H   H207      1.0  0.10636  0.29468  0.30090  1.0000 0.1204561544
H   H208      1.0  0.29468  0.18832  0.80090  1.0000 0.1204561544
H   H209      1.0  0.81168  0.10636  0.80090  1.0000 0.1204561544
H   H210      1.0  0.89364  0.70532  0.80090  1.0000 0.1204561544
H   H211      1.0  0.48514  0.11971  0.75509  1.0000 0.1204561544
H   H212      1.0  0.88029  0.36543  0.75509  1.0000 0.1204561544
H   H213      1.0  0.63457  0.51486  0.75509  1.0000 0.1204561544
H   H214      1.0  0.51486  0.88029  0.25509  1.0000 0.1204561544
H   H215      1.0  0.11971  0.63457  0.25509  1.0000 0.1204561544
H   H216      1.0  0.36543  0.48514  0.25509  1.0000 0.1204561544
H   H217      1.0  0.44754  0.05817  0.81882  1.0000 0.1204561544
H   H218      1.0  0.94183  0.38937  0.81882  1.0000 0.1204561544
H   H219      1.0  0.61063  0.55246  0.81882  1.0000 0.1204561544
H   H220      1.0  0.55246  0.94183  0.31882  1.0000 0.1204561544
H   H221      1.0  0.05817  0.61063  0.31882  1.0000 0.1204561544
H   H222      1.0  0.38937  0.44754  0.31882  1.0000 0.1204561544
H   H223      1.0  0.54378  0.63799  0.20255  1.0000 0.1310054228
H   H224      1.0  0.36201  0.90579  0.20255  1.0000 0.1310054228
H   H225      1.0  0.09421  0.45622  0.20255  1.0000 0.1310054228
H   H226      1.0  0.45622  0.36201  0.70255  1.0000 0.1310054228
H   H227      1.0  0.63799  0.09421  0.70255  1.0000 0.1310054228
H   H228      1.0  0.90579  0.54378  0.70255  1.0000 0.1310054228
H   H229      1.0  0.56554  0.60154  0.26846  1.0000 0.1134898477
H   H230      1.0  0.39846  0.96400  0.26846  1.0000 0.1134898477
H   H231      1.0  0.03600  0.43446  0.26846  1.0000 0.1134898477
H   H232      1.0  0.43446  0.39846  0.76846  1.0000 0.1134898477
H   H233      1.0  0.60154  0.03600  0.76846  1.0000 0.1134898477
H   H234      1.0  0.96400  0.56554  0.76846  1.0000 0.1134898477
H   H235      1.0  0.68855  0.77065  0.36711  1.0000 0.1204561544
H   H236      1.0  0.22935  0.91790  0.36711  1.0000 0.1204561544
H   H237      1.0  0.08210  0.31145  0.36711  1.0000 0.1204561544
H   H238      1.0  0.31145  0.22935  0.86711  1.0000 0.1204561544
H   H239      1.0  0.77065  0.08210  0.86711  1.0000 0.1204561544
H   H240      1.0  0.91790  0.68855  0.86711  1.0000 0.1204561544
H   H241      1.0  0.71215  0.72834  0.43346  1.0000 0.1310054228
H   H242      1.0  0.27166  0.98381  0.43346  1.0000 0.1310054228
H   H243      1.0  0.01619  0.28785  0.43346  1.0000 0.1310054228
H   H244      1.0  0.28785  0.27166  0.93346  1.0000 0.1310054228
H   H245      1.0  0.72834  0.01619  0.93346  1.0000 0.1310054228
H   H246      1.0  0.98381  0.71215  0.93346  1.0000 0.1310054228
C   C1        1.0  0.19910  0.79530  0.52938  1.0000 -0.0286579388
C   C2        1.0  0.20470  0.40380  0.52938  1.0000 -0.0286579388
C   C3        1.0  0.59620  0.80090  0.52938  1.0000 -0.0286579388
C   C4        1.0  0.80090  0.20470  0.02938  1.0000 -0.0286579388
C   C5        1.0  0.79530  0.59620  0.02938  1.0000 -0.0286579388
C   C6        1.0  0.40380  0.19910  0.02938  1.0000 -0.0286579388
C   C7        1.0  0.98920  0.67050  0.54057  1.0000 0.6108315218
C   C8        1.0  0.32950  0.31870  0.54057  1.0000 0.6108315218
C   C9        1.0  0.68130  0.01080  0.54057  1.0000 0.6108315218
C   C10       1.0  0.01080  0.32950  0.04057  1.0000 0.6108315218
C   C11       1.0  0.67050  0.68130  0.04057  1.0000 0.6108315218
C   C12       1.0  0.31870  0.98920  0.04057  1.0000 0.6108315218
C   C13       1.0  0.52830  0.07910  0.59858  1.0000 0.5895615297
C   C14       1.0  0.92090  0.44920  0.59858  1.0000 0.5895615297
C   C15       1.0  0.55080  0.47170  0.59858  1.0000 0.5895615297
C   C16       1.0  0.47170  0.92090  0.09858  1.0000 0.5895615297
C   C17       1.0  0.07910  0.55080  0.09858  1.0000 0.5895615297
C   C18       1.0  0.44920  0.52830  0.09858  1.0000 0.5895615297
C   C19       1.0  0.31310  0.81880  0.48359  1.0000 -0.0286579388
C   C20       1.0  0.18120  0.49430  0.48359  1.0000 -0.0286579388
C   C21       1.0  0.50570  0.68690  0.48359  1.0000 -0.0286579388
C   C22       1.0  0.68690  0.18120  0.98359  1.0000 -0.0286579388
C   C23       1.0  0.81880  0.50570  0.98359  1.0000 -0.0286579388
C   C24       1.0  0.49430  0.31310  0.98359  1.0000 -0.0286579388
C   C25       1.0  0.12920  0.73180  0.53430  1.0000 0.2664013185
C   C26       1.0  0.26820  0.39740  0.53430  1.0000 0.2664013185
C   C27       1.0  0.60260  0.87080  0.53430  1.0000 0.2664013185
C   C28       1.0  0.87080  0.26820  0.03430  1.0000 0.2664013185
C   C29       1.0  0.73180  0.60260  0.03430  1.0000 0.2664013185
C   C30       1.0  0.39740  0.12920  0.03430  1.0000 0.2664013185
C   C31       1.0  0.51100  0.96690  0.44978  1.0000 0.5895615297
C   C32       1.0  0.03310  0.54410  0.44978  1.0000 0.5895615297
C   C33       1.0  0.45590  0.48900  0.44978  1.0000 0.5895615297
C   C34       1.0  0.48900  0.03310  0.94978  1.0000 0.5895615297
C   C35       1.0  0.96690  0.45590  0.94978  1.0000 0.5895615297
C   C36       1.0  0.54410  0.51100  0.94978  1.0000 0.5895615297
C   C37       1.0  0.28110  0.79160  0.44164  1.0000 0.0513640044
C   C38       1.0  0.20840  0.48950  0.44164  1.0000 0.0513640044
C   C39       1.0  0.51050  0.71890  0.44164  1.0000 0.0513640044
C   C40       1.0  0.71890  0.20840  0.94164  1.0000 0.0513640044
C   C41       1.0  0.79160  0.51050  0.94164  1.0000 0.0513640044
C   C42       1.0  0.48950  0.28110  0.94164  1.0000 0.0513640044
C   C43       1.0  0.32580  0.82350  0.40352  1.0000 0.0614010839
C   C44       1.0  0.17650  0.50230  0.40352  1.0000 0.0614010839
C   C45       1.0  0.49770  0.67420  0.40352  1.0000 0.0614010839
C   C46       1.0  0.67420  0.17650  0.90352  1.0000 0.0614010839
C   C47       1.0  0.82350  0.49770  0.90352  1.0000 0.0614010839
C   C48       1.0  0.50230  0.32580  0.90352  1.0000 0.0614010839
C   C49       1.0  0.47550  0.78640  0.75178  1.0000 0.2618268508
C   C50       1.0  0.21360  0.68910  0.75178  1.0000 0.2618268508
C   C51       1.0  0.31090  0.52450  0.75178  1.0000 0.2618268508
C   C52       1.0  0.52450  0.21360  0.25178  1.0000 0.2618268508
C   C53       1.0  0.78640  0.31090  0.25178  1.0000 0.2618268508
C   C54       1.0  0.68910  0.47550  0.25178  1.0000 0.2618268508
C   C55       1.0  0.58450  0.87150  0.70931  1.0000 0.0390769998
C   C56       1.0  0.12850  0.71300  0.70931  1.0000 0.0390769998
C   C57       1.0  0.28700  0.41550  0.70931  1.0000 0.0390769998
C   C58       1.0  0.41550  0.12850  0.20931  1.0000 0.0390769998
C   C59       1.0  0.87150  0.28700  0.20931  1.0000 0.0390769998
C   C60       1.0  0.71300  0.58450  0.20931  1.0000 0.0390769998
C   C61       1.0  0.50550  0.03610  0.64075  1.0000 -0.1605826176
C   C62       1.0  0.96390  0.46940  0.64075  1.0000 -0.1511522373
C   C63       1.0  0.53060  0.49450  0.64075  1.0000 -0.1511522373
C   C64       1.0  0.49450  0.96390  0.14075  1.0000 -0.1511522373
C   C65       1.0  0.03610  0.53060  0.14075  1.0000 -0.1511522373
C   C66       1.0  0.46940  0.50550  0.14075  1.0000 -0.1511522373
C   C67       1.0  0.26710  0.78730  0.52511  1.0000 -0.2461580135
C   C68       1.0  0.21270  0.47980  0.52511  1.0000 -0.2461580135
C   C69       1.0  0.52020  0.73290  0.52511  1.0000 -0.2461580135
C   C70       1.0  0.73290  0.21270  0.02511  1.0000 -0.2461580135
C   C71       1.0  0.78730  0.52020  0.02511  1.0000 -0.2461580135
C   C72       1.0  0.47980  0.26710  0.02511  1.0000 -0.2461580135
C   C73       1.0  0.20480  0.86670  0.52960  1.0000 0.0513640044
C   C74       1.0  0.13330  0.33810  0.52960  1.0000 0.0513640044
C   C75       1.0  0.66190  0.79520  0.52960  1.0000 0.0513640044
C   C76       1.0  0.79520  0.13330  0.02960  1.0000 0.0513640044
C   C77       1.0  0.86670  0.66190  0.02960  1.0000 0.0513640044
C   C78       1.0  0.33810  0.20480  0.02960  1.0000 0.0513640044
C   C79       1.0  0.48910  0.96080  0.64288  1.0000 0.2463431585
C   C80       1.0  0.03920  0.52830  0.64288  1.0000 0.2463431585
C   C81       1.0  0.47170  0.51090  0.64288  1.0000 0.2463431585
C   C82       1.0  0.51090  0.03920  0.14288  1.0000 0.2463431585
C   C83       1.0  0.96080  0.47170  0.14288  1.0000 0.2463431585
C   C84       1.0  0.52830  0.48910  0.14288  1.0000 0.2463431585
C   C85       1.0  0.50710  0.83390  0.71554  1.0000 -0.02237765
C   C86       1.0  0.16610  0.67320  0.71554  1.0000 -0.02237765
C   C87       1.0  0.32680  0.49290  0.71554  1.0000 -0.02237765
C   C88       1.0  0.49290  0.16610  0.21554  1.0000 -0.02237765
C   C89       1.0  0.83390  0.32680  0.21554  1.0000 -0.02237765
C   C90       1.0  0.67320  0.50710  0.21554  1.0000 -0.02237765
C   C91       1.0  0.38790  0.87240  0.48666  1.0000 0.2373025793
C   C92       1.0  0.12760  0.51550  0.48666  1.0000 0.2373025793
C   C93       1.0  0.48450  0.61210  0.48666  1.0000 0.2373025793
C   C94       1.0  0.61210  0.12760  0.98666  1.0000 0.2373025793
C   C95       1.0  0.87240  0.48450  0.98666  1.0000 0.2373025793
C   C96       1.0  0.51550  0.38790  0.98666  1.0000 0.2373025793
C   C97       1.0  0.47770  0.03350  0.71782  1.0000 0.0513640044
C   C98       1.0  0.96650  0.44420  0.71782  1.0000 0.0513640044
C   C99       1.0  0.55580  0.52230  0.71782  1.0000 0.0513640044
C   C100      1.0  0.52230  0.96650  0.21782  1.0000 0.0513640044
C   C101      1.0  0.03350  0.55580  0.21782  1.0000 0.0513640044
C   C102      1.0  0.44420  0.47770  0.21782  1.0000 0.0513640044
C   C103      1.0  0.64640  0.55130  0.47973  1.0000 -0.0783286849
C   C104      1.0  0.44870  0.09510  0.47973  1.0000 -0.0783286849
C   C105      1.0  0.90490  0.35360  0.47973  1.0000 -0.0783286849
C   C106      1.0  0.35360  0.44870  0.97973  1.0000 -0.0783286849
C   C107      1.0  0.55130  0.90490  0.97973  1.0000 -0.0783286849
C   C108      1.0  0.09510  0.64640  0.97973  1.0000 -0.0783286849
C   C109      1.0  0.45490  0.84290  0.68412  1.0000 -0.2427984498
C   C110      1.0  0.15710  0.61200  0.68412  1.0000 -0.2427984498
C   C111      1.0  0.38800  0.54510  0.68412  1.0000 -0.2427984498
C   C112      1.0  0.54510  0.15710  0.18412  1.0000 -0.2427984498
C   C113      1.0  0.84290  0.38800  0.18412  1.0000 -0.2427984498
C   C114      1.0  0.61200  0.45490  0.18412  1.0000 -0.2427984498
C   C115      1.0  0.43170  0.91950  0.76065  1.0000 -0.1309769801
C   C116      1.0  0.08050  0.51220  0.76065  1.0000 -0.1309769801
C   C117      1.0  0.48780  0.56830  0.76065  1.0000 -0.1309769801
C   C118      1.0  0.56830  0.08050  0.26065  1.0000 -0.1309769801
C   C119      1.0  0.91950  0.48780  0.26065  1.0000 -0.1309769801
C   C120      1.0  0.51220  0.43170  0.26065  1.0000 -0.1309769801
C   C121      1.0  0.76570  0.61570  0.46505  1.0000 0.1016146432
C   C122      1.0  0.38430  0.15000  0.46505  1.0000 0.1016146432
C   C123      1.0  0.85000  0.23430  0.46505  1.0000 0.1016146432
C   C124      1.0  0.23430  0.38430  0.96505  1.0000 0.1016146432
C   C125      1.0  0.61570  0.85000  0.96505  1.0000 0.1016146432
C   C126      1.0  0.15000  0.76570  0.96505  1.0000 0.1016146432
C   C127      1.0  0.43230  0.90500  0.44868  1.0000 -0.1605826176
C   C128      1.0  0.09500  0.52730  0.44868  1.0000 -0.1605826176
C   C129      1.0  0.47270  0.56770  0.44868  1.0000 -0.1605826176
C   C130      1.0  0.56770  0.09500  0.94868  1.0000 -0.1605826176
C   C131      1.0  0.90500  0.47270  0.94868  1.0000 -0.1605826176
C   C132      1.0  0.52730  0.43230  0.94868  1.0000 -0.1605826176
C   C133      1.0  0.65340  0.67640  0.33379  1.0000 0.0614010839
C   C134      1.0  0.32360  0.97700  0.33379  1.0000 0.0614010839
C   C135      1.0  0.02300  0.34660  0.33379  1.0000 0.0614010839
C   C136      1.0  0.34660  0.32360  0.83379  1.0000 0.0614010839
C   C137      1.0  0.67640  0.02300  0.83379  1.0000 0.0614010839
C   C138      1.0  0.97700  0.65340  0.83379  1.0000 0.0614010839
C   C139      1.0  0.52270  0.78140  0.78454  1.0000 -0.1605826176
C   C140      1.0  0.21860  0.74130  0.78454  1.0000 -0.1605826176
C   C141      1.0  0.25870  0.47730  0.78454  1.0000 -0.1605826176
C   C142      1.0  0.47730  0.21860  0.28454  1.0000 -0.1605826176
C   C143      1.0  0.78140  0.25870  0.28454  1.0000 -0.1605826176
C   C144      1.0  0.74130  0.52270  0.28454  1.0000 -0.1605826176
C   C145      1.0  0.40040  0.88130  0.40811  1.0000 -0.1511522373
C   C146      1.0  0.11870  0.51910  0.40811  1.0000 -0.1511522373
C   C147      1.0  0.48090  0.59960  0.40811  1.0000 -0.1511522373
C   C148      1.0  0.59960  0.11870  0.90811  1.0000 -0.1511522373
C   C149      1.0  0.88130  0.48090  0.90811  1.0000 -0.1511522373
C   C150      1.0  0.51910  0.40040  0.90811  1.0000 -0.1511522373
C   C151      1.0  0.68490  0.53810  0.51110  1.0000 -0.0451705565
C   C152      1.0  0.46190  0.14680  0.51110  1.0000 -0.0451705565
C   C153      1.0  0.85320  0.31510  0.51110  1.0000 -0.0451705565
C   C154      1.0  0.31510  0.46190  0.01110  1.0000 -0.0451705565
C   C155      1.0  0.53810  0.85320  0.01110  1.0000 -0.0451705565
C   C156      1.0  0.14680  0.68490  0.01110  1.0000 -0.0451705565
C   C157      1.0  0.06330  0.73760  0.53554  1.0000 -0.1605826176
C   C158      1.0  0.26240  0.32570  0.53554  1.0000 -0.1605826176
C   C159      1.0  0.67430  0.93670  0.53554  1.0000 -0.1605826176
C   C160      1.0  0.93670  0.26240  0.03554  1.0000 -0.1605826176
C   C161      1.0  0.73760  0.67430  0.03554  1.0000 -0.1605826176
C   C162      1.0  0.32570  0.06330  0.03554  1.0000 -0.1605826176
C   C163      1.0  0.62030  0.91400  0.67130  1.0000 -0.1309769801
C   C164      1.0  0.08600  0.70630  0.67130  1.0000 -0.1309769801
C   C165      1.0  0.29370  0.37970  0.67130  1.0000 -0.1309769801
C   C166      1.0  0.37970  0.08600  0.17130  1.0000 -0.1309769801
C   C167      1.0  0.91400  0.29370  0.17130  1.0000 -0.1309769801
C   C168      1.0  0.70630  0.62030  0.17130  1.0000 -0.1309769801
C   C169      1.0  0.69560  0.95070  0.66740  1.0000 -0.1021539374
C   C170      1.0  0.04930  0.74490  0.66740  1.0000 -0.1021539374
C   C171      1.0  0.25510  0.30440  0.66740  1.0000 -0.1021539374
C   C172      1.0  0.30440  0.04930  0.16740  1.0000 -0.1021539374
C   C173      1.0  0.95070  0.25510  0.16740  1.0000 -0.1021539374
C   C174      1.0  0.74490  0.69560  0.16740  1.0000 -0.1021539374
C   C175      1.0  0.27350  0.93410  0.53010  1.0000 -0.1309769801
C   C176      1.0  0.06590  0.33940  0.53010  1.0000 -0.1309769801
C   C177      1.0  0.66060  0.72650  0.53010  1.0000 -0.1309769801
C   C178      1.0  0.72650  0.06590  0.03010  1.0000 -0.1309769801
C   C179      1.0  0.93410  0.66060  0.03010  1.0000 -0.1309769801
C   C180      1.0  0.33940  0.27350  0.03010  1.0000 -0.1309769801
C   C181      1.0  0.61020  0.74730  0.21186  1.0000 0.1584905016
C   C182      1.0  0.25270  0.86290  0.21186  1.0000 0.1584905016
C   C183      1.0  0.13710  0.38980  0.21186  1.0000 0.1584905016
C   C184      1.0  0.38980  0.25270  0.71186  1.0000 0.1584905016
C   C185      1.0  0.74730  0.13710  0.71186  1.0000 0.1584905016
C   C186      1.0  0.86290  0.61020  0.71186  1.0000 0.1584905016
C   C187      1.0  0.27690  0.00100  0.53040  1.0000 -0.0908977047
C   C188      1.0  0.99900  0.27590  0.53040  1.0000 -0.0908977047
C   C189      1.0  0.72410  0.72310  0.53040  1.0000 -0.0908977047
C   C190      1.0  0.72310  0.99900  0.03040  1.0000 -0.0908977047
C   C191      1.0  0.00100  0.72410  0.03040  1.0000 -0.0908977047
C   C192      1.0  0.27590  0.27690  0.03040  1.0000 -0.0908977047
C   C193      1.0  0.45920  0.95800  0.72006  1.0000 0.0390769998
C   C194      1.0  0.04200  0.50120  0.72006  1.0000 0.0390769998
C   C195      1.0  0.49880  0.54080  0.72006  1.0000 0.0390769998
C   C196      1.0  0.54080  0.04200  0.22006  1.0000 0.0390769998
C   C197      1.0  0.95800  0.49880  0.22006  1.0000 0.0390769998
C   C198      1.0  0.50120  0.45920  0.22006  1.0000 0.0390769998
C   C199      1.0  0.68220  0.62610  0.41086  1.0000 0.1474470126
C   C200      1.0  0.37390  0.05610  0.41086  1.0000 0.1474470126
C   C201      1.0  0.94390  0.31780  0.41086  1.0000 0.1474470126
C   C202      1.0  0.31780  0.37390  0.91086  1.0000 0.1474470126
C   C203      1.0  0.62610  0.94390  0.91086  1.0000 0.1474470126
C   C204      1.0  0.05610  0.68220  0.91086  1.0000 0.1474470126
C   C205      1.0  0.49240  0.73630  0.82453  1.0000 0.6108315218
C   C206      1.0  0.26370  0.75610  0.82453  1.0000 0.6108315218
C   C207      1.0  0.24390  0.50760  0.82453  1.0000 0.6108315218
C   C208      1.0  0.50760  0.26370  0.32453  1.0000 0.6108315218
C   C209      1.0  0.73630  0.24390  0.32453  1.0000 0.6108315218
C   C210      1.0  0.75610  0.49240  0.32453  1.0000 0.6108315218
C   C211      1.0  0.63150  0.86660  0.74200  1.0000 0.0614010839
C   C212      1.0  0.13340  0.76490  0.74200  1.0000 0.0614010839
C   C213      1.0  0.23510  0.36850  0.74200  1.0000 0.0614010839
C   C214      1.0  0.36850  0.13340  0.24200  1.0000 0.0614010839
C   C215      1.0  0.86660  0.23510  0.24200  1.0000 0.0614010839
C   C216      1.0  0.76490  0.63150  0.24200  1.0000 0.0614010839
C   C217      1.0  0.59840  0.82190  0.77899  1.0000 -0.1409100197
C   C218      1.0  0.17810  0.77650  0.77899  1.0000 -0.1409100197
C   C219      1.0  0.22350  0.40160  0.77899  1.0000 -0.1409100197
C   C220      1.0  0.40160  0.17810  0.27899  1.0000 -0.1409100197
C   C221      1.0  0.82190  0.22350  0.27899  1.0000 -0.1409100197
C   C222      1.0  0.77650  0.59840  0.27899  1.0000 -0.1409100197
C   C223      1.0  0.20700  0.73260  0.43596  1.0000 -0.1225075629
C   C224      1.0  0.26740  0.47440  0.43596  1.0000 -0.1225075629
C   C225      1.0  0.52560  0.79300  0.43596  1.0000 -0.1225075629
C   C226      1.0  0.79300  0.26740  0.93596  1.0000 -0.1225075629
C   C227      1.0  0.73260  0.52560  0.93596  1.0000 -0.1225075629
C   C228      1.0  0.47440  0.20700  0.93596  1.0000 -0.1225075629
C   C229      1.0  0.63830  0.70160  0.29192  1.0000 0.0662826427
C   C230      1.0  0.29840  0.93670  0.29192  1.0000 0.0662826427
C   C231      1.0  0.06330  0.36170  0.29192  1.0000 0.0662826427
C   C232      1.0  0.36170  0.29840  0.79192  1.0000 0.0662826427
C   C233      1.0  0.70160  0.06330  0.79192  1.0000 0.0662826427
C   C234      1.0  0.93670  0.63830  0.79192  1.0000 0.0662826427
C   C235      1.0  0.13770  0.87110  0.53022  1.0000 0.0513640044
C   C236      1.0  0.12890  0.26660  0.53022  1.0000 0.0513640044
C   C237      1.0  0.73340  0.86230  0.53022  1.0000 0.0513640044
C   C238      1.0  0.86230  0.12890  0.03022  1.0000 0.0513640044
C   C239      1.0  0.87110  0.73340  0.03022  1.0000 0.0513640044
C   C240      1.0  0.26660  0.13770  0.03022  1.0000 0.0513640044
C   C241      1.0  0.58620  0.73020  0.13254  1.0000 0.1204561544
C   C242      1.0  0.26980  0.85600  0.13254  1.0000 0.1204561544
C   C243      1.0  0.14400  0.41380  0.13254  1.0000 0.1204561544
C   C244      1.0  0.41380  0.26980  0.63254  1.0000 0.1204561544
C   C245      1.0  0.73020  0.14400  0.63254  1.0000 0.1204561544
C   C246      1.0  0.85600  0.58620  0.63254  1.0000 0.1204561544
C   C247      1.0  0.46820  0.92200  0.68264  1.0000 -0.02237765
C   C248      1.0  0.07800  0.54620  0.68264  1.0000 -0.02237765
C   C249      1.0  0.45380  0.53180  0.68264  1.0000 -0.02237765
C   C250      1.0  0.53180  0.07800  0.18264  1.0000 -0.02237765
C   C251      1.0  0.92200  0.45380  0.18264  1.0000 -0.02237765
C   C252      1.0  0.54620  0.46820  0.18264  1.0000 -0.02237765
C   C253      1.0  0.50110  0.07110  0.67742  1.0000 -0.1685937814
C   C254      1.0  0.92890  0.43000  0.67742  1.0000 -0.1685937814
C   C255      1.0  0.57000  0.49890  0.67742  1.0000 -0.1685937814
C   C256      1.0  0.49890  0.92890  0.17742  1.0000 -0.1685937814
C   C257      1.0  0.07110  0.57000  0.17742  1.0000 -0.1685937814
C   C258      1.0  0.43000  0.50110  0.17742  1.0000 -0.1685937814
C   C259      1.0  0.29350  0.79720  0.36159  1.0000 -0.1409100197
C   C260      1.0  0.20280  0.49630  0.36159  1.0000 -0.1409100197
C   C261      1.0  0.50370  0.70650  0.36159  1.0000 -0.1409100197
C   C262      1.0  0.70650  0.20280  0.86159  1.0000 -0.1409100197
C   C263      1.0  0.79720  0.50370  0.86159  1.0000 -0.1409100197
C   C264      1.0  0.49630  0.29350  0.86159  1.0000 -0.1409100197
C   C265      1.0  0.17750  0.70930  0.39457  1.0000 -0.0908977047
C   C266      1.0  0.29070  0.46820  0.39457  1.0000 -0.0908977047
C   C267      1.0  0.53180  0.82250  0.39457  1.0000 -0.0908977047
C   C268      1.0  0.82250  0.29070  0.89457  1.0000 -0.0908977047
C   C269      1.0  0.70930  0.53180  0.89457  1.0000 -0.0908977047
C   C270      1.0  0.46820  0.17750  0.89457  1.0000 -0.0908977047
C   C271      1.0  0.59570  0.83580  0.11531  1.0000 -0.02237765
C   C272      1.0  0.16420  0.75990  0.11531  1.0000 -0.02237765
C   C273      1.0  0.24010  0.40430  0.11531  1.0000 -0.02237765
C   C274      1.0  0.40430  0.16420  0.61531  1.0000 -0.02237765
C   C275      1.0  0.83580  0.24010  0.61531  1.0000 -0.02237765
C   C276      1.0  0.75990  0.59570  0.61531  1.0000 -0.02237765
C   C277      1.0  0.06900  0.80650  0.53223  1.0000 -0.1409100197
C   C278      1.0  0.19350  0.26250  0.53223  1.0000 -0.1409100197
C   C279      1.0  0.73750  0.93100  0.53223  1.0000 -0.1409100197
C   C280      1.0  0.93100  0.19350  0.03223  1.0000 -0.1409100197
C   C281      1.0  0.80650  0.73750  0.03223  1.0000 -0.1409100197
C   C282      1.0  0.26250  0.06900  0.03223  1.0000 -0.1409100197
C   C283      1.0  0.42670  0.95750  0.79711  1.0000 -0.0729974282
C   C284      1.0  0.04250  0.46920  0.79711  1.0000 -0.0729974282
C   C285      1.0  0.53080  0.57330  0.79711  1.0000 -0.0729974282
C   C286      1.0  0.57330  0.04250  0.29711  1.0000 -0.0729974282
C   C287      1.0  0.95750  0.53080  0.29711  1.0000 -0.0729974282
C   C288      1.0  0.46920  0.42670  0.29711  1.0000 -0.0729974282
C   C289      1.0  0.66120  0.80020  0.24060  1.0000 -0.1761429977
C   C290      1.0  0.19980  0.86100  0.24060  1.0000 -0.1761429977
C   C291      1.0  0.13900  0.33880  0.24060  1.0000 -0.1761429977
C   C292      1.0  0.33880  0.19980  0.74060  1.0000 -0.1761429977
C   C293      1.0  0.80020  0.13900  0.74060  1.0000 -0.1761429977
C   C294      1.0  0.86100  0.66120  0.74060  1.0000 -0.1761429977
C   C295      1.0  0.60920  0.83930  0.15829  1.0000 -0.108953522
C   C296      1.0  0.16070  0.76990  0.15829  1.0000 -0.108953522
C   C297      1.0  0.23010  0.39080  0.15829  1.0000 -0.108953522
C   C298      1.0  0.39080  0.16070  0.65829  1.0000 -0.108953522
C   C299      1.0  0.83930  0.23010  0.65829  1.0000 -0.108953522
C   C300      1.0  0.76990  0.60920  0.65829  1.0000 -0.108953522
C   C301      1.0  0.22300  0.74220  0.35697  1.0000 -0.108953522
C   C302      1.0  0.25780  0.48080  0.35697  1.0000 -0.108953522
C   C303      1.0  0.51920  0.77700  0.35697  1.0000 -0.108953522
C   C304      1.0  0.77700  0.25780  0.85697  1.0000 -0.108953522
C   C305      1.0  0.74220  0.51920  0.85697  1.0000 -0.108953522
C   C306      1.0  0.48080  0.22300  0.85697  1.0000 -0.108953522
C   C307      1.0  0.71000  0.90650  0.73680  1.0000 -0.1409100197
C   C308      1.0  0.09350  0.80350  0.73680  1.0000 -0.1409100197
C   C309      1.0  0.19650  0.29000  0.73680  1.0000 -0.1409100197
C   C310      1.0  0.29000  0.09350  0.23680  1.0000 -0.1409100197
C   C311      1.0  0.90650  0.19650  0.23680  1.0000 -0.1409100197
C   C312      1.0  0.80350  0.71000  0.23680  1.0000 -0.1409100197
C   C313      1.0  0.63090  0.60180  0.33940  1.0000 -0.1225075629
C   C314      1.0  0.39820  0.02910  0.33940  1.0000 -0.1225075629
C   C315      1.0  0.97090  0.36910  0.33940  1.0000 -0.1225075629
C   C316      1.0  0.36910  0.39820  0.83940  1.0000 -0.1225075629
C   C317      1.0  0.60180  0.97090  0.83940  1.0000 -0.1225075629
C   C318      1.0  0.02910  0.63090  0.83940  1.0000 -0.1225075629
C   C319      1.0  0.14370  0.94240  0.53000  1.0000 -0.1409100197
C   C320      1.0  0.05760  0.20130  0.53000  1.0000 -0.1409100197
C   C321      1.0  0.79870  0.85630  0.53000  1.0000 -0.1409100197
C   C322      1.0  0.85630  0.05760  0.03000  1.0000 -0.1409100197
C   C323      1.0  0.94240  0.79870  0.03000  1.0000 -0.1409100197
C   C324      1.0  0.20130  0.14370  0.03000  1.0000 -0.1409100197
C   C325      1.0  0.64630  0.57750  0.37800  1.0000 -0.1309769801
C   C326      1.0  0.42250  0.06880  0.37800  1.0000 -0.1309769801
C   C327      1.0  0.93120  0.35370  0.37800  1.0000 -0.1309769801
C   C328      1.0  0.35370  0.42250  0.87800  1.0000 -0.1309769801
C   C329      1.0  0.57750  0.93120  0.87800  1.0000 -0.1309769801
C   C330      1.0  0.06880  0.64630  0.87800  1.0000 -0.1309769801
C   C331      1.0  0.74170  0.94750  0.69990  1.0000 -0.1021539374
C   C332      1.0  0.05250  0.79420  0.69990  1.0000 -0.1021539374
C   C333      1.0  0.20580  0.25830  0.69990  1.0000 -0.1021539374
C   C334      1.0  0.25830  0.05250  0.19990  1.0000 -0.1021539374
C   C335      1.0  0.94750  0.20580  0.19990  1.0000 -0.1021539374
C   C336      1.0  0.79420  0.74170  0.19990  1.0000 -0.1021539374
C   C337      1.0  0.21160  0.00630  0.52980  1.0000 -0.108953522
C   C338      1.0  0.99370  0.20530  0.52980  1.0000 -0.108953522
C   C339      1.0  0.79470  0.78840  0.52980  1.0000 -0.108953522
C   C340      1.0  0.78840  0.99370  0.02980  1.0000 -0.108953522
C   C341      1.0  0.00630  0.79470  0.02980  1.0000 -0.108953522
C   C342      1.0  0.20530  0.21160  0.02980  1.0000 -0.108953522
C   C343      1.0  0.67320  0.77640  0.28090  1.0000 -0.1309769801
C   C344      1.0  0.22360  0.89680  0.28090  1.0000 -0.1309769801
C   C345      1.0  0.10320  0.32680  0.28090  1.0000 -0.1309769801
C   C346      1.0  0.32680  0.22360  0.78090  1.0000 -0.1309769801
C   C347      1.0  0.77640  0.10320  0.78090  1.0000 -0.1309769801
C   C348      1.0  0.89680  0.67320  0.78090  1.0000 -0.1309769801
C   C349      1.0  0.47230  0.06980  0.75640  1.0000 -0.1605826176
C   C350      1.0  0.93020  0.40250  0.75640  1.0000 -0.1605826176
C   C351      1.0  0.59750  0.52770  0.75640  1.0000 -0.1605826176
C   C352      1.0  0.52770  0.93020  0.25640  1.0000 -0.1605826176
C   C353      1.0  0.06980  0.59750  0.25640  1.0000 -0.1605826176
C   C354      1.0  0.40250  0.47230  0.25640  1.0000 -0.1605826176
C   C355      1.0  0.44900  0.03300  0.79400  1.0000 -0.0908977047
C   C356      1.0  0.96700  0.41600  0.79400  1.0000 -0.0908977047
C   C357      1.0  0.58400  0.55100  0.79400  1.0000 -0.0908977047
C   C358      1.0  0.55100  0.96700  0.29400  1.0000 -0.0908977047
C   C359      1.0  0.03300  0.58400  0.29400  1.0000 -0.0908977047
C   C360      1.0  0.41600  0.44900  0.29400  1.0000 -0.0908977047
C   C361      1.0  0.57630  0.67360  0.22220  1.0000 -0.1605826176
C   C362      1.0  0.32640  0.90270  0.22220  1.0000 -0.1605826176
C   C363      1.0  0.09730  0.42370  0.22220  1.0000 -0.1605826176
C   C364      1.0  0.42370  0.32640  0.72220  1.0000 -0.1605826176
C   C365      1.0  0.67360  0.09730  0.72220  1.0000 -0.1605826176
C   C366      1.0  0.90270  0.57630  0.72220  1.0000 -0.1605826176
C   C367      1.0  0.59000  0.65210  0.26180  1.0000 -0.1225075629
C   C368      1.0  0.34790  0.93790  0.26180  1.0000 -0.1225075629
C   C369      1.0  0.06210  0.41000  0.26180  1.0000 -0.1225075629
C   C370      1.0  0.41000  0.34790  0.76180  1.0000 -0.1225075629
C   C371      1.0  0.65210  0.06210  0.76180  1.0000 -0.1225075629
C   C372      1.0  0.93790  0.59000  0.76180  1.0000 -0.1225075629
C   C373      1.0  0.67990  0.72220  0.36920  1.0000 -0.1225075629
C   C374      1.0  0.27780  0.95770  0.36920  1.0000 -0.1225075629
C   C375      1.0  0.04230  0.32010  0.36920  1.0000 -0.1225075629
C   C376      1.0  0.32010  0.27780  0.86920  1.0000 -0.1225075629
C   C377      1.0  0.72220  0.04230  0.86920  1.0000 -0.1225075629
C   C378      1.0  0.95770  0.67990  0.86920  1.0000 -0.1225075629
C   C379      1.0  0.69470  0.69720  0.40920  1.0000 -0.1605826176
C   C380      1.0  0.30280  0.99750  0.40920  1.0000 -0.1605826176
C   C381      1.0  0.00250  0.30530  0.40920  1.0000 -0.1605826176
C   C382      1.0  0.30530  0.30280  0.90920  1.0000 -0.1605826176
C   C383      1.0  0.69720  0.00250  0.90920  1.0000 -0.1605826176
C   C384      1.0  0.99750  0.69470  0.90920  1.0000 -0.1605826176
N   N1        1.0  0.76006  0.57970  0.50217  1.0000 -0.3010850024
N   N2        1.0  0.42030  0.18036  0.50217  1.0000 -0.3010850024
N   N3        1.0  0.81964  0.23994  0.50217  1.0000 -0.3010850024
N   N4        1.0  0.23994  0.42030  0.00217  1.0000 -0.3010850024
N   N5        1.0  0.57970  0.81964  0.00217  1.0000 -0.3010850024
N   N6        1.0  0.18036  0.76006  0.00217  1.0000 -0.3010850024
N   N7        1.0  0.57960  0.76650  0.09905  1.0000 -0.2824195993
N   N8        1.0  0.23350  0.81310  0.09905  1.0000 -0.2824195993
N   N9        1.0  0.18690  0.42040  0.09905  1.0000 -0.2824195993
N   N10       1.0  0.42040  0.23350  0.59905  1.0000 -0.2824195993
N   N11       1.0  0.76650  0.18690  0.59905  1.0000 -0.2824195993
N   N12       1.0  0.81310  0.57960  0.59905  1.0000 -0.2824195993
N   N13       1.0  0.69780  0.59960  0.45062  1.0000 0.0166390113
N   N14       1.0  0.40040  0.09820  0.45062  1.0000 0.0166390113
N   N15       1.0  0.90180  0.30220  0.45062  1.0000 0.0166390113
N   N16       1.0  0.30220  0.40040  0.95062  1.0000 0.0166390113
N   N17       1.0  0.59960  0.90180  0.95062  1.0000 0.0166390113
N   N18       1.0  0.09820  0.69780  0.95062  1.0000 0.0166390113
N   N19       1.0  0.84210  0.48860  0.51307  1.0000 -0.7612759841
N   N20       1.0  0.51140  0.35350  0.51307  1.0000 -0.7612759841
N   N21       1.0  0.64650  0.15790  0.51307  1.0000 -0.7612759841
N   N22       1.0  0.15790  0.51140  0.01307  1.0000 -0.7612759841
N   N23       1.0  0.48860  0.64650  0.01307  1.0000 -0.7612759841
N   N24       1.0  0.35350  0.84210  0.01307  1.0000 -0.7612759841
N   N25       1.0  0.60020  0.77010  0.16948  1.0000 0.009319358
N   N26       1.0  0.22990  0.83010  0.16948  1.0000 0.009319358
N   N27       1.0  0.16990  0.39980  0.16948  1.0000 0.009319358
N   N28       1.0  0.39980  0.22990  0.66948  1.0000 0.009319358
N   N29       1.0  0.77010  0.16990  0.66948  1.0000 0.009319358
N   N30       1.0  0.83010  0.60020  0.66948  1.0000 0.009319358
O   O1        1.0  0.51487  0.04270  0.56240  1.0000 -0.6396614931
O   O2        1.0  0.95730  0.47217  0.56240  1.0000 -0.6396614931
O   O3        1.0  0.52783  0.48513  0.56240  1.0000 -0.6396614931
O   O4        1.0  0.48513  0.95730  0.06240  1.0000 -0.6396614931
O   O5        1.0  0.04270  0.52783  0.06240  1.0000 -0.6396614931
O   O6        1.0  0.47217  0.51487  0.06240  1.0000 -0.6396614931
O   O7        1.0  0.49353  0.92590  0.60739  1.0000 -0.6104777676
O   O8        1.0  0.07410  0.56763  0.60739  1.0000 -0.6104777676
O   O9        1.0  0.43237  0.50647  0.60739  1.0000 -0.6104777676
O   O10       1.0  0.50647  0.07410  0.10739  1.0000 -0.6104777676
O   O11       1.0  0.92590  0.43237  0.10739  1.0000 -0.6104777676
O   O12       1.0  0.56763  0.49353  0.10739  1.0000 -0.6104777676
O   O13       1.0  0.12390  0.66498  0.53607  1.0000 -0.6104777676
O   O14       1.0  0.33502  0.45892  0.53607  1.0000 -0.6104777676
O   O15       1.0  0.54108  0.87610  0.53607  1.0000 -0.6104777676
O   O16       1.0  0.87610  0.33502  0.03607  1.0000 -0.6104777676
O   O17       1.0  0.66498  0.54108  0.03607  1.0000 -0.6104777676
O   O18       1.0  0.45892  0.12390  0.03607  1.0000 -0.6104777676
O   O19       1.0  0.54220  0.99214  0.48759  1.0000 -0.6396614931
O   O20       1.0  0.00786  0.55006  0.48759  1.0000 -0.6396614931
O   O21       1.0  0.44994  0.45780  0.48759  1.0000 -0.6396614931
O   O22       1.0  0.45780  0.00786  0.98759  1.0000 -0.6396614931
O   O23       1.0  0.99214  0.44994  0.98759  1.0000 -0.6396614931
O   O24       1.0  0.55006  0.54220  0.98759  1.0000 -0.6396614931
O   O25       1.0  0.98311  0.61148  0.55822  1.0000 -0.6321672372
O   O26       1.0  0.38852  0.37163  0.55822  1.0000 -0.6321672372
O   O27       1.0  0.62837  0.01689  0.55822  1.0000 -0.6321672372
O   O28       1.0  0.01689  0.38852  0.05822  1.0000 -0.6321672372
O   O29       1.0  0.61148  0.62837  0.05822  1.0000 -0.6321672372
O   O30       1.0  0.37163  0.98311  0.05822  1.0000 -0.6321672372
O   O31       1.0  0.41814  0.89460  0.52648  1.0000 -0.6189554107
O   O32       1.0  0.10540  0.52354  0.52648  1.0000 -0.6189554107
O   O33       1.0  0.47646  0.58186  0.52648  1.0000 -0.6189554107
O   O34       1.0  0.58186  0.10540  0.02648  1.0000 -0.6189554107
O   O35       1.0  0.89460  0.47646  0.02648  1.0000 -0.6189554107
O   O36       1.0  0.52354  0.41814  0.02648  1.0000 -0.6189554107
O   O37       1.0  0.93265  0.67297  0.52871  1.0000 -0.5097240579
O   O38       1.0  0.32703  0.25968  0.52871  1.0000 -0.5097240579
O   O39       1.0  0.74032  0.06735  0.52871  1.0000 -0.5097240579
O   O40       1.0  0.06735  0.32703  0.02871  1.0000 -0.5097240579
O   O41       1.0  0.67297  0.74032  0.02871  1.0000 -0.5097240579
O   O42       1.0  0.25968  0.93265  0.02871  1.0000 -0.5097240579
O   O43       1.0  0.40189  0.74854  0.75629  1.0000 -0.58610593
O   O44       1.0  0.25146  0.65335  0.75629  1.0000 -0.58610593
O   O45       1.0  0.34665  0.59811  0.75629  1.0000 -0.58610593
O   O46       1.0  0.59811  0.25146  0.25629  1.0000 -0.58610593
O   O47       1.0  0.74854  0.34665  0.25629  1.0000 -0.58610593
O   O48       1.0  0.65335  0.40189  0.25629  1.0000 -0.58610593
O   O49       1.0  0.42094  0.69483  0.82906  1.0000 -0.6189554107
O   O50       1.0  0.30517  0.72611  0.82906  1.0000 -0.6189554107
O   O51       1.0  0.27389  0.57906  0.82906  1.0000 -0.6189554107
O   O52       1.0  0.57906  0.30517  0.32906  1.0000 -0.6189554107
O   O53       1.0  0.69483  0.27389  0.32906  1.0000 -0.6189554107
O   O54       1.0  0.72611  0.42094  0.32906  1.0000 -0.6189554107
O   O55       1.0  0.54410  0.99350  0.41559  1.0000 -0.5097240579
O   O56       1.0  0.00650  0.55060  0.41559  1.0000 -0.5097240579
O   O57       1.0  0.44940  0.45590  0.41559  1.0000 -0.5097240579
O   O58       1.0  0.45590  0.00650  0.91559  1.0000 -0.5097240579
O   O59       1.0  0.99350  0.44940  0.91559  1.0000 -0.5097240579
O   O60       1.0  0.55060  0.54410  0.91559  1.0000 -0.5097240579
O   O61       1.0  0.55590  0.14710  0.59926  1.0000 -0.5097240579
O   O62       1.0  0.85290  0.40880  0.59926  1.0000 -0.5097240579
O   O63       1.0  0.59120  0.44410  0.59926  1.0000 -0.5097240579
O   O64       1.0  0.44410  0.85290  0.09926  1.0000 -0.5097240579
O   O65       1.0  0.14710  0.59120  0.09926  1.0000 -0.5097240579
O   O66       1.0  0.40880  0.55590  0.09926  1.0000 -0.5097240579
O   O67       1.0  0.53530  0.74040  0.85398  1.0000 -0.5219450764
O   O68       1.0  0.25960  0.79490  0.85398  1.0000 -0.5219450764
O   O69       1.0  0.20510  0.46470  0.85398  1.0000 -0.5219450764
O   O70       1.0  0.46470  0.25960  0.35398  1.0000 -0.5219450764
O   O71       1.0  0.74040  0.20510  0.35398  1.0000 -0.5219450764
O   O72       1.0  0.79490  0.53530  0.35398  1.0000 -0.5219450764
