# DDEC6 charges by PACMAN v1.1 (https://github.com/mtap-research/PACMAN-charge/)
data_2023[Zn][nan]2[ASR]3
_chemical_formula_sum              "Zn12 H120 C176 N16 O64"
_cell_length_a       11.2178
_cell_length_b       27.4465
_cell_length_c       19.3156
_cell_angle_alpha    90
_cell_angle_beta     116.553
_cell_angle_gamma    90

_symmetry_space_group_name_H-M    "P 1"
_symmetry_Int_Tables_number       1

loop_
  _symmetry_equiv_pos_as_xyz
  'x, y, z'

loop_
  _atom_site_type_symbol
  _atom_site_label
  _atom_site_symmetry_multiplicity
  _atom_site_fract_x
  _atom_site_fract_y
  _atom_site_fract_z
  _atom_site_occupancy
  _atom_site_charge
Zn  Zn1       1.0  0.89162  0.64545  0.23689  1.0000 0.835495199
Zn  Zn2       1.0  0.10838  0.14545  0.26311  1.0000 0.835495199
Zn  Zn3       1.0  0.10838  0.35455  0.76311  1.0000 0.835495199
Zn  Zn4       1.0  0.89162  0.85455  0.73689  1.0000 0.835495199
Zn  Zn5       1.0  0.88367  0.35425  0.21749  1.0000 0.8331747306
Zn  Zn6       1.0  0.11633  0.85425  0.28251  1.0000 0.8331747306
Zn  Zn7       1.0  0.11633  0.64575  0.78251  1.0000 0.8331747306
Zn  Zn8       1.0  0.88367  0.14575  0.71749  1.0000 0.8331747306
Zn  Zn9       1.0  0.00818  0.42844  0.98394  1.0000 0.9244610123
Zn  Zn10      1.0  0.99182  0.92844  0.51606  1.0000 0.9244610123
Zn  Zn11      1.0  0.99182  0.57156  0.01606  1.0000 0.9257990373
Zn  Zn12      1.0  0.00818  0.07156  0.48394  1.0000 0.9244610123
H   H1        1.0  0.39240  0.57481  0.11774  1.0000 0.1204838222
H   H2        1.0  0.60760  0.07481  0.38226  1.0000 0.1204838222
H   H3        1.0  0.60760  0.42519  0.88226  1.0000 0.1204838222
H   H4        1.0  0.39240  0.92519  0.61774  1.0000 0.1204838222
H   H5        1.0  0.99453  0.35149  0.49163  1.0000 0.129352484
H   H6        1.0  0.00547  0.85149  0.00837  1.0000 0.129352484
H   H7        1.0  0.00547  0.64851  0.50837  1.0000 0.129352484
H   H8        1.0  0.99453  0.14851  0.99163  1.0000 0.129352484
H   H9        1.0  0.06743  0.22397  0.60558  1.0000 0.1204838222
H   H10       1.0  0.93257  0.72397  0.89442  1.0000 0.1204838222
H   H11       1.0  0.93257  0.77603  0.39442  1.0000 0.1204838222
H   H12       1.0  0.06743  0.27603  0.10558  1.0000 0.1204838222
H   H13       1.0  0.44587  0.21041  0.34742  1.0000 0.147433519
H   H14       1.0  0.55413  0.71041  0.15258  1.0000 0.147433519
H   H15       1.0  0.55413  0.78959  0.65258  1.0000 0.147433519
H   H16       1.0  0.44587  0.28959  0.84742  1.0000 0.147433519
H   H17       1.0  0.38595  0.42883  0.10459  1.0000 0.1204838222
H   H18       1.0  0.61405  0.92883  0.39541  1.0000 0.1204838222
H   H19       1.0  0.61405  0.57117  0.89541  1.0000 0.1204838222
H   H20       1.0  0.38595  0.07117  0.60459  1.0000 0.1204838222
H   H21       1.0  0.45184  0.78948  0.36745  1.0000 0.1383521834
H   H22       1.0  0.54816  0.28948  0.13255  1.0000 0.1383521834
H   H23       1.0  0.54816  0.21052  0.63255  1.0000 0.1383521834
H   H24       1.0  0.45184  0.71052  0.86745  1.0000 0.1383521834
H   H25       1.0  0.85660  0.75034  0.67830  1.0000 0.129352484
H   H26       1.0  0.14340  0.25034  0.82170  1.0000 0.129352484
H   H27       1.0  0.14340  0.24966  0.32170  1.0000 0.129352484
H   H28       1.0  0.85660  0.74966  0.17830  1.0000 0.129352484
H   H29       1.0  0.32145  0.74401  0.26061  1.0000 0.129352484
H   H30       1.0  0.67855  0.24401  0.23939  1.0000 0.129352484
H   H31       1.0  0.67855  0.25599  0.73939  1.0000 0.129352484
H   H32       1.0  0.32145  0.75599  0.76061  1.0000 0.129352484
H   H33       1.0  0.31453  0.25632  0.24147  1.0000 0.129352484
H   H34       1.0  0.68547  0.75632  0.25853  1.0000 0.129352484
H   H35       1.0  0.68547  0.74368  0.75853  1.0000 0.129352484
H   H36       1.0  0.31453  0.24368  0.74147  1.0000 0.129352484
H   H37       1.0  0.84658  0.24910  0.65970  1.0000 0.129352484
H   H38       1.0  0.15342  0.74910  0.84030  1.0000 0.129352484
H   H39       1.0  0.15342  0.75090  0.34030  1.0000 0.129352484
H   H40       1.0  0.84658  0.25090  0.15970  1.0000 0.129352484
H   H41       1.0  0.92455  0.22548  0.37398  1.0000 0.1204838222
H   H42       1.0  0.07545  0.72548  0.12602  1.0000 0.1204838222
H   H43       1.0  0.07545  0.77452  0.62602  1.0000 0.1204838222
H   H44       1.0  0.92455  0.27452  0.87398  1.0000 0.1204838222
H   H45       1.0  0.74079  0.70613  0.56775  1.0000 0.1383521834
H   H46       1.0  0.25921  0.20613  0.93225  1.0000 0.1383521834
H   H47       1.0  0.25921  0.29387  0.43225  1.0000 0.1383521834
H   H48       1.0  0.74079  0.79387  0.06775  1.0000 0.1383521834
H   H49       1.0  0.73582  0.49957  0.19811  1.0000 0.147433519
H   H50       1.0  0.26418  0.99957  0.30189  1.0000 0.147433519
H   H51       1.0  0.26418  0.50043  0.80189  1.0000 0.147433519
H   H52       1.0  0.73582  0.00043  0.69811  1.0000 0.147433519
H   H53       1.0  0.73258  0.29378  0.54868  1.0000 0.1383521834
H   H54       1.0  0.26742  0.79378  0.95132  1.0000 0.1383521834
H   H55       1.0  0.26742  0.70622  0.45132  1.0000 0.1383521834
H   H56       1.0  0.73258  0.20622  0.04868  1.0000 0.1383521834
H   H57       1.0  0.73976  0.87261  0.56496  1.0000 0.1204838222
H   H58       1.0  0.26024  0.37261  0.93504  1.0000 0.1091029599
H   H59       1.0  0.26024  0.12739  0.43504  1.0000 0.1091029599
H   H60       1.0  0.73976  0.62739  0.06496  1.0000 0.1091029599
H   H61       1.0  0.62412  0.83193  0.45038  1.0000 0.1383521834
H   H62       1.0  0.37588  0.33193  0.04962  1.0000 0.1383521834
H   H63       1.0  0.37588  0.16807  0.54962  1.0000 0.1383521834
H   H64       1.0  0.62412  0.66807  0.95038  1.0000 0.1383521834
H   H65       1.0  0.73663  0.12717  0.54595  1.0000 0.1204838222
H   H66       1.0  0.26337  0.62717  0.95405  1.0000 0.1204838222
H   H67       1.0  0.26337  0.87283  0.45405  1.0000 0.1204838222
H   H68       1.0  0.73663  0.37283  0.04595  1.0000 0.1204838222
H   H69       1.0  0.61779  0.16792  0.43211  1.0000 0.1383521834
H   H70       1.0  0.38221  0.66792  0.06789  1.0000 0.1383521834
H   H71       1.0  0.38221  0.83208  0.56789  1.0000 0.1383521834
H   H72       1.0  0.61779  0.33208  0.93211  1.0000 0.1383521834
H   H73       1.0  0.30761  0.39854  0.26966  1.0000 0.129352484
H   H74       1.0  0.69239  0.89854  0.23034  1.0000 0.129352484
H   H75       1.0  0.69239  0.60146  0.73034  1.0000 0.129352484
H   H76       1.0  0.30761  0.10146  0.76966  1.0000 0.129352484
H   H77       1.0  0.22013  0.40642  0.18071  1.0000 0.147433519
H   H78       1.0  0.77987  0.90642  0.31929  1.0000 0.147433519
H   H79       1.0  0.77987  0.59358  0.81929  1.0000 0.147433519
H   H80       1.0  0.22013  0.09358  0.68071  1.0000 0.147433519
H   H81       1.0  0.31711  0.60176  0.28972  1.0000 0.129352484
H   H82       1.0  0.68289  0.10176  0.21028  1.0000 0.129352484
H   H83       1.0  0.68289  0.39824  0.71028  1.0000 0.129352484
H   H84       1.0  0.31711  0.89824  0.78972  1.0000 0.129352484
H   H85       1.0  0.23019  0.59319  0.20087  1.0000 0.147433519
H   H86       1.0  0.76981  0.09319  0.29913  1.0000 0.147433519
H   H87       1.0  0.76981  0.40681  0.79913  1.0000 0.147433519
H   H88       1.0  0.23019  0.90681  0.70087  1.0000 0.147433519
H   H89       1.0  0.39146  0.36302  0.18587  1.0000 0.1091029599
H   H90       1.0  0.60854  0.86302  0.31413  1.0000 0.1091029599
H   H91       1.0  0.60854  0.63698  0.81413  1.0000 0.1091029599
H   H92       1.0  0.39146  0.13698  0.68587  1.0000 0.1091029599
H   H93       1.0  0.27790  0.32419  0.16360  1.0000 0.1204838222
H   H94       1.0  0.72210  0.82419  0.33640  1.0000 0.1204838222
H   H95       1.0  0.72210  0.67581  0.83640  1.0000 0.1204838222
H   H96       1.0  0.27790  0.17581  0.66360  1.0000 0.1204838222
H   H97       1.0  0.55712  0.36778  0.32207  1.0000 0.1383521834
H   H98       1.0  0.44288  0.86778  0.17793  1.0000 0.1383521834
H   H99       1.0  0.44288  0.63222  0.67793  1.0000 0.1383521834
H   H100      1.0  0.55712  0.13222  0.82207  1.0000 0.1383521834
H   H101      1.0  0.28564  0.67659  0.18304  1.0000 0.1204838222
H   H102      1.0  0.71436  0.17659  0.31696  1.0000 0.1204838222
H   H103      1.0  0.71436  0.32341  0.81696  1.0000 0.1204838222
H   H104      1.0  0.28564  0.82341  0.68304  1.0000 0.1204838222
H   H105      1.0  0.39968  0.63803  0.20433  1.0000 0.1204838222
H   H106      1.0  0.60032  0.13803  0.29567  1.0000 0.1204838222
H   H107      1.0  0.60032  0.36197  0.79567  1.0000 0.1204838222
H   H108      1.0  0.39968  0.86197  0.70433  1.0000 0.1204838222
H   H109      1.0  0.56766  0.63314  0.34018  1.0000 0.1383521834
H   H110      1.0  0.43234  0.13314  0.15982  1.0000 0.1383521834
H   H111      1.0  0.43234  0.36686  0.65982  1.0000 0.1383521834
H   H112      1.0  0.56766  0.86686  0.84018  1.0000 0.1383521834
H   H113      1.0  0.68876  0.32523  0.43144  1.0000 0.147433519
H   H114      1.0  0.31124  0.82523  0.06856  1.0000 0.147433519
H   H115      1.0  0.31124  0.67477  0.56856  1.0000 0.147433519
H   H116      1.0  0.68876  0.17477  0.93144  1.0000 0.147433519
H   H117      1.0  0.69871  0.67574  0.45001  1.0000 0.147433519
H   H118      1.0  0.30129  0.17574  0.04999  1.0000 0.147433519
H   H119      1.0  0.30129  0.32426  0.54999  1.0000 0.147433519
H   H120      1.0  0.69871  0.82426  0.95001  1.0000 0.147433519
C   C1        1.0  0.43740  0.54520  0.12700  1.0000 -0.1145636878
C   C2        1.0  0.56260  0.04520  0.37300  1.0000 -0.1145636878
C   C3        1.0  0.56260  0.45480  0.87300  1.0000 -0.1145636878
C   C4        1.0  0.43740  0.95480  0.62700  1.0000 -0.1145636878
C   C5        1.0  0.03460  0.29210  0.55960  1.0000 -0.0318075876
C   C6        1.0  0.96540  0.79210  0.94040  1.0000 -0.0318075876
C   C7        1.0  0.96540  0.70790  0.44040  1.0000 -0.0318075876
C   C8        1.0  0.03460  0.20790  0.05960  1.0000 -0.0318075876
C   C9        1.0  0.95560  0.29320  0.42140  1.0000 -0.0361615895
C   C10       1.0  0.04440  0.79320  0.07860  1.0000 -0.0361615895
C   C11       1.0  0.04440  0.70680  0.57860  1.0000 -0.0361615895
C   C12       1.0  0.95560  0.20680  0.92140  1.0000 -0.0361615895
C   C13       1.0  0.99490  0.31760  0.49100  1.0000 -0.1376168999
C   C14       1.0  0.00510  0.81760  0.00900  1.0000 -0.1376168999
C   C15       1.0  0.00510  0.68240  0.50900  1.0000 -0.1376168999
C   C16       1.0  0.99490  0.18240  0.99100  1.0000 -0.1376168999
C   C17       1.0  0.03780  0.24120  0.55940  1.0000 -0.1279558568
C   C18       1.0  0.96220  0.74120  0.94060  1.0000 -0.1279558568
C   C19       1.0  0.96220  0.75880  0.44060  1.0000 -0.1279558568
C   C20       1.0  0.03780  0.25880  0.05940  1.0000 -0.1279558568
C   C21       1.0  0.46810  0.24270  0.34410  1.0000 -0.1892638943
C   C22       1.0  0.53190  0.74270  0.15590  1.0000 -0.1892638943
C   C23       1.0  0.53190  0.75730  0.65590  1.0000 -0.1892638943
C   C24       1.0  0.46810  0.25730  0.84410  1.0000 -0.1892638943
C   C25       1.0  0.57610  0.54450  0.16240  1.0000 -0.0191836907
C   C26       1.0  0.42390  0.04450  0.33760  1.0000 -0.0191836907
C   C27       1.0  0.42390  0.45550  0.83760  1.0000 -0.0191836907
C   C28       1.0  0.57610  0.95550  0.66240  1.0000 -0.0191836907
C   C29       1.0  0.66060  0.23580  0.47680  1.0000 0.1091029599
C   C30       1.0  0.33940  0.73580  0.02320  1.0000 0.1091029599
C   C31       1.0  0.33940  0.76420  0.52320  1.0000 0.1091029599
C   C32       1.0  0.66060  0.26420  0.97680  1.0000 0.1091029599
C   C33       1.0  0.43360  0.45790  0.11890  1.0000 -0.1184436763
C   C34       1.0  0.56640  0.95790  0.38110  1.0000 -0.1184436763
C   C35       1.0  0.56640  0.54210  0.88110  1.0000 -0.1184436763
C   C36       1.0  0.43360  0.04210  0.61890  1.0000 -0.1184436763
C   C37       1.0  0.57180  0.45700  0.15360  1.0000 -0.0191836907
C   C38       1.0  0.42820  0.95700  0.34640  1.0000 -0.0191836907
C   C39       1.0  0.42820  0.54300  0.84640  1.0000 -0.0191836907
C   C40       1.0  0.57180  0.04300  0.65360  1.0000 -0.0191836907
C   C41       1.0  0.99640  0.16210  0.48680  1.0000 0.5221998346
C   C42       1.0  0.00360  0.66210  0.01320  1.0000 0.5221998346
C   C43       1.0  0.00360  0.83790  0.51320  1.0000 0.5221998346
C   C44       1.0  0.99640  0.33790  0.98680  1.0000 0.5221998346
C   C45       1.0  0.47490  0.75740  0.36350  1.0000 -0.1892638943
C   C46       1.0  0.52510  0.25740  0.13650  1.0000 -0.1892638943
C   C47       1.0  0.52510  0.24260  0.63650  1.0000 -0.1892638943
C   C48       1.0  0.47490  0.74260  0.86350  1.0000 -0.1892638943
C   C49       1.0  0.80790  0.76690  0.63210  1.0000 0.1091029599
C   C50       1.0  0.19210  0.26690  0.86790  1.0000 0.1091029599
C   C51       1.0  0.19210  0.23310  0.36790  1.0000 0.1091029599
C   C52       1.0  0.80790  0.73310  0.13210  1.0000 0.1091029599
C   C53       1.0  0.39800  0.73030  0.29940  1.0000 0.0415958193
C   C54       1.0  0.60200  0.23030  0.20060  1.0000 0.0415958193
C   C55       1.0  0.60200  0.26970  0.70060  1.0000 0.0415958193
C   C56       1.0  0.39800  0.76970  0.79940  1.0000 0.0415958193
C   C57       1.0  0.39100  0.27000  0.28040  1.0000 0.0465009333
C   C58       1.0  0.60900  0.77000  0.21960  1.0000 0.0465009333
C   C59       1.0  0.60900  0.73000  0.71960  1.0000 0.0465009333
C   C60       1.0  0.39100  0.23000  0.78040  1.0000 0.0465009333
C   C61       1.0  0.79970  0.23270  0.61310  1.0000 0.1091029599
C   C62       1.0  0.20030  0.73270  0.88690  1.0000 0.1091029599
C   C63       1.0  0.20030  0.76730  0.38690  1.0000 0.1091029599
C   C64       1.0  0.79970  0.26730  0.11310  1.0000 0.1091029599
C   C65       1.0  0.66740  0.76420  0.49580  1.0000 0.1091029599
C   C66       1.0  0.33260  0.26420  0.00420  1.0000 0.1091029599
C   C67       1.0  0.33260  0.23580  0.50420  1.0000 0.1091029599
C   C68       1.0  0.66740  0.73580  0.99580  1.0000 0.1091029599
C   C69       1.0  0.99620  0.21640  0.48970  1.0000 -0.0318075876
C   C70       1.0  0.00380  0.71640  0.01030  1.0000 -0.0318075876
C   C71       1.0  0.00380  0.78360  0.51030  1.0000 -0.0318075876
C   C72       1.0  0.99620  0.28360  0.98970  1.0000 -0.0318075876
C   C73       1.0  0.95390  0.24220  0.42060  1.0000 -0.1279558568
C   C74       1.0  0.04610  0.74220  0.07940  1.0000 -0.1279558568
C   C75       1.0  0.04610  0.75780  0.57940  1.0000 -0.1279558568
C   C76       1.0  0.95390  0.25780  0.92060  1.0000 -0.1279558568
C   C77       1.0  0.65230  0.59170  0.18610  1.0000 0.5524186519
C   C78       1.0  0.34770  0.09170  0.31390  1.0000 0.5524186519
C   C79       1.0  0.34770  0.40830  0.81390  1.0000 0.5524186519
C   C80       1.0  0.65230  0.90830  0.68610  1.0000 0.5524186519
C   C81       1.0  0.73920  0.74000  0.56580  1.0000 -0.1892638943
C   C82       1.0  0.26080  0.24000  0.93420  1.0000 -0.1892638943
C   C83       1.0  0.26080  0.26000  0.43420  1.0000 -0.1892638943
C   C84       1.0  0.73920  0.76000  0.06580  1.0000 -0.1892638943
C   C85       1.0  0.64310  0.50020  0.17510  1.0000 -0.0983560424
C   C86       1.0  0.35690  0.00020  0.32490  1.0000 -0.0983560424
C   C87       1.0  0.35690  0.49980  0.82490  1.0000 -0.0983560424
C   C88       1.0  0.64310  0.99980  0.67510  1.0000 -0.0983560424
C   C89       1.0  0.64480  0.40890  0.17010  1.0000 0.5524186519
C   C90       1.0  0.35520  0.90890  0.32990  1.0000 0.5524186519
C   C91       1.0  0.35520  0.59110  0.82990  1.0000 0.5524186519
C   C92       1.0  0.64480  0.09110  0.67010  1.0000 0.5524186519
C   C93       1.0  0.73120  0.25990  0.54660  1.0000 -0.1892638943
C   C94       1.0  0.26880  0.75990  0.95340  1.0000 -0.1892638943
C   C95       1.0  0.26880  0.74010  0.45340  1.0000 -0.1892638943
C   C96       1.0  0.73120  0.24010  0.04660  1.0000 -0.1892638943
C   C97       1.0  0.58150  0.26370  0.40470  1.0000 0.1091029599
C   C98       1.0  0.41850  0.76370  0.09530  1.0000 0.1091029599
C   C99       1.0  0.41850  0.73630  0.59530  1.0000 0.1091029599
C   C100      1.0  0.58150  0.23630  0.90470  1.0000 0.1091029599
C   C101      1.0  0.58820  0.73670  0.42300  1.0000 0.1091029599
C   C102      1.0  0.41180  0.23670  0.07700  1.0000 0.1091029599
C   C103      1.0  0.41180  0.26330  0.57700  1.0000 0.1091029599
C   C104      1.0  0.58820  0.76330  0.92300  1.0000 0.1091029599
C   C105      1.0  0.36600  0.50200  0.10550  1.0000 -0.0318075876
C   C106      1.0  0.63400  0.00200  0.39450  1.0000 -0.0318075876
C   C107      1.0  0.63400  0.49800  0.89450  1.0000 -0.0318075876
C   C108      1.0  0.36600  0.99800  0.60550  1.0000 -0.0318075876
C   C109      1.0  0.73960  0.83870  0.56520  1.0000 0.0779259456
C   C110      1.0  0.26040  0.33870  0.93480  1.0000 0.0779259456
C   C111      1.0  0.26040  0.16130  0.43480  1.0000 0.0779259456
C   C112      1.0  0.73960  0.66130  0.06520  1.0000 0.0779259456
C   C113      1.0  0.21660  0.50310  0.06760  1.0000 0.5969922197
C   C114      1.0  0.78340  0.00310  0.43240  1.0000 0.5969922197
C   C115      1.0  0.78340  0.49690  0.93240  1.0000 0.5969922197
C   C116      1.0  0.21660  0.99690  0.56760  1.0000 0.5969922197
C   C117      1.0  0.66940  0.81460  0.49610  1.0000 -0.1819148316
C   C118      1.0  0.33060  0.31460  0.00390  1.0000 -0.1819148316
C   C119      1.0  0.33060  0.18540  0.50390  1.0000 -0.1819148316
C   C120      1.0  0.66940  0.68540  0.99610  1.0000 -0.1819148316
C   C121      1.0  0.06600  0.31950  0.63300  1.0000 0.5321484385
C   C122      1.0  0.93400  0.81950  0.86700  1.0000 0.5321484385
C   C123      1.0  0.93400  0.68050  0.36700  1.0000 0.5321484385
C   C124      1.0  0.06600  0.18050  0.13300  1.0000 0.5321484385
C   C125      1.0  0.73480  0.16100  0.54630  1.0000 0.0908431028
C   C126      1.0  0.26520  0.66100  0.95370  1.0000 0.0908431028
C   C127      1.0  0.26520  0.83900  0.45370  1.0000 0.0908431028
C   C128      1.0  0.73480  0.33900  0.04630  1.0000 0.0908431028
C   C129      1.0  0.92350  0.32130  0.34940  1.0000 0.5321484385
C   C130      1.0  0.07650  0.82130  0.15060  1.0000 0.5321484385
C   C131      1.0  0.07650  0.67870  0.65060  1.0000 0.5321484385
C   C132      1.0  0.92350  0.17870  0.84940  1.0000 0.5321484385
C   C133      1.0  0.14190  0.64010  0.24660  1.0000 0.6287077618
C   C134      1.0  0.85810  0.14010  0.25340  1.0000 0.6287077618
C   C135      1.0  0.85810  0.35990  0.75340  1.0000 0.6287077618
C   C136      1.0  0.14190  0.85990  0.74660  1.0000 0.6287077618
C   C137      1.0  0.66370  0.18530  0.47770  1.0000 -0.1819148316
C   C138      1.0  0.33630  0.68530  0.02230  1.0000 -0.1819148316
C   C139      1.0  0.33630  0.81470  0.52230  1.0000 -0.1819148316
C   C140      1.0  0.66370  0.31470  0.97770  1.0000 -0.1819148316
C   C141      1.0  0.25230  0.38210  0.22140  1.0000 -0.3391684639
C   C142      1.0  0.74770  0.88210  0.27860  1.0000 -0.3391684639
C   C143      1.0  0.74770  0.61790  0.77860  1.0000 -0.3391684639
C   C144      1.0  0.25230  0.11790  0.72140  1.0000 -0.3391684639
C   C145      1.0  0.26130  0.61780  0.24120  1.0000 -0.3391684639
C   C146      1.0  0.73870  0.11780  0.25880  1.0000 -0.3391684639
C   C147      1.0  0.73870  0.38220  0.75880  1.0000 -0.3391684639
C   C148      1.0  0.26130  0.88220  0.74120  1.0000 -0.3391684639
C   C149      1.0  0.33620  0.34580  0.20460  1.0000 -0.0983560424
C   C150      1.0  0.66380  0.84580  0.29540  1.0000 -0.0983560424
C   C151      1.0  0.66380  0.65420  0.79540  1.0000 -0.0983560424
C   C152      1.0  0.33620  0.15420  0.70460  1.0000 -0.0983560424
C   C153      1.0  0.53400  0.33610  0.32830  1.0000 0.0311469924
C   C154      1.0  0.46600  0.83610  0.17170  1.0000 0.0311469924
C   C155      1.0  0.46600  0.66390  0.67170  1.0000 0.0311469924
C   C156      1.0  0.53400  0.16390  0.82830  1.0000 0.0311469924
C   C157      1.0  0.34470  0.65500  0.22360  1.0000 -0.0983560424
C   C158      1.0  0.65530  0.15500  0.27640  1.0000 -0.0983560424
C   C159      1.0  0.65530  0.34500  0.77640  1.0000 -0.0983560424
C   C160      1.0  0.34470  0.84500  0.72360  1.0000 -0.0983560424
C   C161      1.0  0.13430  0.35950  0.22740  1.0000 0.6287077618
C   C162      1.0  0.86570  0.85950  0.27260  1.0000 0.6287077618
C   C163      1.0  0.86570  0.64050  0.77260  1.0000 0.6287077618
C   C164      1.0  0.13430  0.14050  0.72740  1.0000 0.6287077618
C   C165      1.0  0.54340  0.66460  0.34680  1.0000 0.0311469924
C   C166      1.0  0.45660  0.16460  0.15320  1.0000 0.0311469924
C   C167      1.0  0.45660  0.33540  0.65320  1.0000 0.0311469924
C   C168      1.0  0.54340  0.83540  0.84680  1.0000 0.0311469924
C   C169      1.0  0.61270  0.31060  0.39370  1.0000 -0.1819148316
C   C170      1.0  0.38730  0.81060  0.10630  1.0000 -0.1819148316
C   C171      1.0  0.38730  0.68940  0.60630  1.0000 -0.1819148316
C   C172      1.0  0.61270  0.18940  0.89370  1.0000 -0.1819148316
C   C173      1.0  0.62200  0.69000  0.41240  1.0000 -0.1819148316
C   C174      1.0  0.37800  0.19000  0.08760  1.0000 -0.1819148316
C   C175      1.0  0.37800  0.31000  0.58760  1.0000 -0.1819148316
C   C176      1.0  0.62200  0.81000  0.91240  1.0000 -0.1819148316
N   N1        1.0  0.80160  0.18450  0.61350  1.0000 -0.2306737649
N   N2        1.0  0.19840  0.68450  0.88650  1.0000 -0.2306737649
N   N3        1.0  0.19840  0.81550  0.38650  1.0000 -0.2306737649
N   N4        1.0  0.80160  0.31550  0.11350  1.0000 -0.2306737649
N   N5        1.0  0.80810  0.81535  0.63330  1.0000 -0.2361593145
N   N6        1.0  0.19190  0.31535  0.86670  1.0000 -0.2361593145
N   N7        1.0  0.19190  0.18465  0.36670  1.0000 -0.2361593145
N   N8        1.0  0.80810  0.68465  0.13330  1.0000 -0.2361593145
N   N9        1.0  0.42330  0.31590  0.27290  1.0000 0.1017612004
N   N10       1.0  0.57670  0.81590  0.22710  1.0000 0.1017612004
N   N11       1.0  0.57670  0.68410  0.72710  1.0000 0.1017612004
N   N12       1.0  0.42330  0.18410  0.77290  1.0000 0.1017612004
N   N13       1.0  0.43130  0.68430  0.29170  1.0000 0.1017612004
N   N14       1.0  0.56870  0.18430  0.20830  1.0000 0.1017612004
N   N15       1.0  0.56870  0.31570  0.70830  1.0000 0.1017612004
N   N16       1.0  0.43130  0.81570  0.79170  1.0000 0.1017612004
O   O1        1.0  0.76860  0.41216  0.19000  1.0000 -0.5129840347
O   O2        1.0  0.23140  0.91216  0.31000  1.0000 -0.5129840347
O   O3        1.0  0.23140  0.58784  0.81000  1.0000 -0.5129840347
O   O4        1.0  0.76860  0.08784  0.69000  1.0000 -0.5129840347
O   O5        1.0  0.04690  0.61032  0.23580  1.0000 -0.5466834056
O   O6        1.0  0.95310  0.11032  0.26420  1.0000 -0.5466834056
O   O7        1.0  0.95310  0.38968  0.76420  1.0000 -0.5466834056
O   O8        1.0  0.04690  0.88968  0.73580  1.0000 -0.5466834056
O   O9        1.0  0.77700  0.58774  0.20960  1.0000 -0.5201433646
O   O10       1.0  0.22300  0.08774  0.29040  1.0000 -0.5201433646
O   O11       1.0  0.22300  0.41226  0.79040  1.0000 -0.5201433646
O   O12       1.0  0.77700  0.91226  0.70960  1.0000 -0.5201433646
O   O13       1.0  0.12120  0.29840  0.69650  1.0000 -0.5201433646
O   O14       1.0  0.87880  0.79840  0.80350  1.0000 -0.5201433646
O   O15       1.0  0.87880  0.70160  0.30350  1.0000 -0.5201433646
O   O16       1.0  0.12120  0.20160  0.19650  1.0000 -0.5201433646
O   O17       1.0  0.04180  0.38921  0.22060  1.0000 -0.5398217785
O   O18       1.0  0.95820  0.88921  0.27940  1.0000 -0.5398217785
O   O19       1.0  0.95820  0.61079  0.77940  1.0000 -0.5398217785
O   O20       1.0  0.04180  0.11079  0.72060  1.0000 -0.5398217785
O   O21       1.0  0.58390  0.37072  0.16260  1.0000 -0.5682757768
O   O22       1.0  0.41610  0.87072  0.33740  1.0000 -0.5682757768
O   O23       1.0  0.41610  0.62928  0.83740  1.0000 -0.5682757768
O   O24       1.0  0.58390  0.12928  0.66260  1.0000 -0.5682757768
O   O25       1.0  0.87370  0.30030  0.28560  1.0000 -0.5201433646
O   O26       1.0  0.12630  0.80030  0.21440  1.0000 -0.5201433646
O   O27       1.0  0.12630  0.69970  0.71440  1.0000 -0.5201433646
O   O28       1.0  0.87370  0.19970  0.78560  1.0000 -0.5201433646
O   O29       1.0  0.59280  0.62993  0.18280  1.0000 -0.5775682825
O   O30       1.0  0.40720  0.12993  0.31720  1.0000 -0.5775682825
O   O31       1.0  0.40720  0.37007  0.81720  1.0000 -0.5775682825
O   O32       1.0  0.59280  0.87007  0.68280  1.0000 -0.5775682825
O   O33       1.0  0.05600  0.13793  0.54740  1.0000 -0.5039454596
O   O34       1.0  0.94400  0.63793  0.95260  1.0000 -0.5039454596
O   O35       1.0  0.94400  0.86207  0.45260  1.0000 -0.5039454596
O   O36       1.0  0.05600  0.36207  0.04740  1.0000 -0.5039454596
O   O37       1.0  0.15730  0.46450  0.05820  1.0000 -0.5299955207
O   O38       1.0  0.84270  0.96450  0.44180  1.0000 -0.5299955207
O   O39       1.0  0.84270  0.53550  0.94180  1.0000 -0.5299955207
O   O40       1.0  0.15730  0.03550  0.55820  1.0000 -0.5299955207
O   O41       1.0  0.93580  0.14102  0.42400  1.0000 -0.5039454596
O   O42       1.0  0.06420  0.64102  0.07600  1.0000 -0.5039454596
O   O43       1.0  0.06420  0.85898  0.57600  1.0000 -0.5039454596
O   O44       1.0  0.93580  0.35898  0.92400  1.0000 -0.5039454596
O   O45       1.0  0.13950  0.68330  0.26070  1.0000 -0.5634733933
O   O46       1.0  0.86050  0.18330  0.23930  1.0000 -0.5634733933
O   O47       1.0  0.86050  0.31670  0.73930  1.0000 -0.5634733933
O   O48       1.0  0.13950  0.81670  0.76070  1.0000 -0.5634733933
O   O49       1.0  0.12880  0.31567  0.23730  1.0000 -0.5682757768
O   O50       1.0  0.87120  0.81567  0.26270  1.0000 -0.5682757768
O   O51       1.0  0.87120  0.68433  0.76270  1.0000 -0.5682757768
O   O52       1.0  0.12880  0.18433  0.73730  1.0000 -0.5682757768
O   O53       1.0  0.16440  0.54390  0.05200  1.0000 -0.5299955207
O   O54       1.0  0.83560  0.04390  0.44800  1.0000 -0.5299955207
O   O55       1.0  0.83560  0.45610  0.94800  1.0000 -0.5299955207
O   O56       1.0  0.16440  0.95610  0.55200  1.0000 -0.5299955207
O   O57       1.0  0.03310  0.36360  0.62870  1.0000 -0.5201433646
O   O58       1.0  0.96690  0.86360  0.87130  1.0000 -0.5201433646
O   O59       1.0  0.96690  0.63640  0.37130  1.0000 -0.5201433646
O   O60       1.0  0.03310  0.13640  0.12870  1.0000 -0.5201433646
O   O61       1.0  0.95110  0.36570  0.35350  1.0000 -0.5129840347
O   O62       1.0  0.04890  0.86570  0.14650  1.0000 -0.5129840347
O   O63       1.0  0.04890  0.63430  0.64650  1.0000 -0.5129840347
O   O64       1.0  0.95110  0.13430  0.85350  1.0000 -0.5129840347
