# DDEC6 charges by PACMAN v1.1 (https://github.com/mtap-research/PACMAN-charge/)
data_2023[Cu][nan]3[ASR]2
_chemical_formula_sum              "Cu6 H312 C372 N24"
_cell_length_a       25.4095
_cell_length_b       25.4095
_cell_length_c       18.2103
_cell_angle_alpha    90
_cell_angle_beta     90
_cell_angle_gamma    120

_symmetry_space_group_name_H-M    "P 1"
_symmetry_Int_Tables_number       1

loop_
  _symmetry_equiv_pos_as_xyz
  'x, y, z'

loop_
  _atom_site_type_symbol
  _atom_site_label
  _atom_site_symmetry_multiplicity
  _atom_site_fract_x
  _atom_site_fract_y
  _atom_site_fract_z
  _atom_site_occupancy
  _atom_site_charge
Cu  Cu1       1.0  0.67108  0.00000  0.00000  1.0000 0.2425496418
Cu  Cu2       1.0  0.00000  0.67108  0.00000  1.0000 0.2425496418
Cu  Cu3       1.0  0.32892  0.32892  0.00000  1.0000 0.2425496418
Cu  Cu4       1.0  0.32892  0.00000  0.00000  1.0000 0.2425496418
Cu  Cu5       1.0  0.00000  0.32892  0.00000  1.0000 0.2425496418
Cu  Cu6       1.0  0.67108  0.67108  0.00000  1.0000 0.2425496418
H   H1        1.0  0.24377  0.39305  0.69452  1.0000 0.1101298609
H   H2        1.0  0.60695  0.85072  0.69452  1.0000 0.1101298609
H   H3        1.0  0.14928  0.75623  0.69452  1.0000 0.1101298609
H   H4        1.0  0.75623  0.60695  0.69452  1.0000 0.1101298609
H   H5        1.0  0.39305  0.14928  0.69452  1.0000 0.1101298609
H   H6        1.0  0.85072  0.24377  0.69452  1.0000 0.1101298609
H   H7        1.0  0.39305  0.24377  0.30548  1.0000 0.1101298609
H   H8        1.0  0.85072  0.60695  0.30548  1.0000 0.1101298609
H   H9        1.0  0.75623  0.14928  0.30548  1.0000 0.1101298609
H   H10       1.0  0.60695  0.75623  0.30548  1.0000 0.1101298609
H   H11       1.0  0.14928  0.39305  0.30548  1.0000 0.1101298609
H   H12       1.0  0.24377  0.85072  0.30548  1.0000 0.1101298609
H   H13       1.0  0.16189  0.36889  0.62734  1.0000 0.0925623941
H   H14       1.0  0.63111  0.79300  0.62734  1.0000 0.0925623941
H   H15       1.0  0.20700  0.83811  0.62734  1.0000 0.0925623941
H   H16       1.0  0.83811  0.63111  0.62734  1.0000 0.0925623941
H   H17       1.0  0.36889  0.20700  0.62734  1.0000 0.0925623941
H   H18       1.0  0.79300  0.16189  0.62734  1.0000 0.0925623941
H   H19       1.0  0.36889  0.16189  0.37266  1.0000 0.0925623941
H   H20       1.0  0.79300  0.63111  0.37266  1.0000 0.0925623941
H   H21       1.0  0.83811  0.20700  0.37266  1.0000 0.0925623941
H   H22       1.0  0.63111  0.83811  0.37266  1.0000 0.0925623941
H   H23       1.0  0.20700  0.36889  0.37266  1.0000 0.0925623941
H   H24       1.0  0.16189  0.79300  0.37266  1.0000 0.0925623941
H   H25       1.0  0.18152  0.31800  0.62885  1.0000 0.0925623941
H   H26       1.0  0.68200  0.86352  0.62885  1.0000 0.0925623941
H   H27       1.0  0.13648  0.81848  0.62885  1.0000 0.0925623941
H   H28       1.0  0.81848  0.68200  0.62885  1.0000 0.0987560395
H   H29       1.0  0.31800  0.13648  0.62885  1.0000 0.0925623941
H   H30       1.0  0.86352  0.18152  0.62885  1.0000 0.0987560395
H   H31       1.0  0.31800  0.18152  0.37115  1.0000 0.0925623941
H   H32       1.0  0.86352  0.68200  0.37115  1.0000 0.0987560395
H   H33       1.0  0.81848  0.13648  0.37115  1.0000 0.0987560395
H   H34       1.0  0.68200  0.81848  0.37115  1.0000 0.0925623941
H   H35       1.0  0.13648  0.31800  0.37115  1.0000 0.0925623941
H   H36       1.0  0.18152  0.86352  0.37115  1.0000 0.0925623941
H   H37       1.0  0.64588  0.64254  0.83953  1.0000 0.0925623941
H   H38       1.0  0.35746  0.00334  0.83953  1.0000 0.0925623941
H   H39       1.0  0.99666  0.35412  0.83953  1.0000 0.0925623941
H   H40       1.0  0.35412  0.35746  0.83953  1.0000 0.0925623941
H   H41       1.0  0.64254  0.99666  0.83953  1.0000 0.0925623941
H   H42       1.0  0.00334  0.64588  0.83953  1.0000 0.0987560395
H   H43       1.0  0.64254  0.64588  0.16047  1.0000 0.0925623941
H   H44       1.0  0.00334  0.35746  0.16047  1.0000 0.0987560395
H   H45       1.0  0.35412  0.99666  0.16047  1.0000 0.0925623941
H   H46       1.0  0.35746  0.35412  0.16047  1.0000 0.0925623941
H   H47       1.0  0.99666  0.64254  0.16047  1.0000 0.0925623941
H   H48       1.0  0.64588  0.00334  0.16047  1.0000 0.0925623941
H   H49       1.0  0.56131  0.59356  0.76220  1.0000 0.1192332221
H   H50       1.0  0.40644  0.96775  0.76220  1.0000 0.1192332221
H   H51       1.0  0.03225  0.43869  0.76220  1.0000 0.1192332221
H   H52       1.0  0.43869  0.40644  0.76220  1.0000 0.1192332221
H   H53       1.0  0.59356  0.03225  0.76220  1.0000 0.1192332221
H   H54       1.0  0.96775  0.56131  0.76220  1.0000 0.1192332221
H   H55       1.0  0.59356  0.56131  0.23780  1.0000 0.1192332221
H   H56       1.0  0.96775  0.40644  0.23780  1.0000 0.1192332221
H   H57       1.0  0.43869  0.03225  0.23780  1.0000 0.1192332221
H   H58       1.0  0.40644  0.43869  0.23780  1.0000 0.1192332221
H   H59       1.0  0.03225  0.59356  0.23780  1.0000 0.1192332221
H   H60       1.0  0.56131  0.96775  0.23780  1.0000 0.1192332221
H   H61       1.0  0.45002  0.56571  0.93525  1.0000 0.1192332221
H   H62       1.0  0.43429  0.88431  0.93525  1.0000 0.1192332221
H   H63       1.0  0.11569  0.54998  0.93525  1.0000 0.1192332221
H   H64       1.0  0.54998  0.43429  0.93525  1.0000 0.1192332221
H   H65       1.0  0.56571  0.11569  0.93525  1.0000 0.1192332221
H   H66       1.0  0.88431  0.45002  0.93525  1.0000 0.1192332221
H   H67       1.0  0.56571  0.45002  0.06475  1.0000 0.1192332221
H   H68       1.0  0.88431  0.43429  0.06475  1.0000 0.1192332221
H   H69       1.0  0.54998  0.11569  0.06475  1.0000 0.1192332221
H   H70       1.0  0.43429  0.54998  0.06475  1.0000 0.1192332221
H   H71       1.0  0.11569  0.56571  0.06475  1.0000 0.1192332221
H   H72       1.0  0.45002  0.88431  0.06475  1.0000 0.1192332221
H   H73       1.0  0.53460  0.61469  0.01258  1.0000 0.0925623941
H   H74       1.0  0.38531  0.91991  0.01258  1.0000 0.0925623941
H   H75       1.0  0.08009  0.46540  0.01258  1.0000 0.0925623941
H   H76       1.0  0.46540  0.38531  0.01258  1.0000 0.0925623941
H   H77       1.0  0.61469  0.08009  0.01258  1.0000 0.0925623941
H   H78       1.0  0.91991  0.53460  0.01258  1.0000 0.0925623941
H   H79       1.0  0.61469  0.53460  0.98742  1.0000 0.0925623941
H   H80       1.0  0.91991  0.38531  0.98742  1.0000 0.0925623941
H   H81       1.0  0.46540  0.08009  0.98742  1.0000 0.0925623941
H   H82       1.0  0.38531  0.46540  0.98742  1.0000 0.0925623941
H   H83       1.0  0.08009  0.61469  0.98742  1.0000 0.0925623941
H   H84       1.0  0.53460  0.91991  0.98742  1.0000 0.0925623941
H   H85       1.0  0.04220  0.17952  0.57005  1.0000 0.1192332221
H   H86       1.0  0.82048  0.86268  0.57005  1.0000 0.1192332221
H   H87       1.0  0.13732  0.95780  0.57005  1.0000 0.1192332221
H   H88       1.0  0.95780  0.82048  0.57005  1.0000 0.1192332221
H   H89       1.0  0.17952  0.13732  0.57005  1.0000 0.1192332221
H   H90       1.0  0.86268  0.04220  0.57005  1.0000 0.1192332221
H   H91       1.0  0.17952  0.04220  0.42995  1.0000 0.1192332221
H   H92       1.0  0.86268  0.82048  0.42995  1.0000 0.1192332221
H   H93       1.0  0.95780  0.13732  0.42995  1.0000 0.1192332221
H   H94       1.0  0.82048  0.95780  0.42995  1.0000 0.1192332221
H   H95       1.0  0.13732  0.17952  0.42995  1.0000 0.1192332221
H   H96       1.0  0.04220  0.86268  0.42995  1.0000 0.1192332221
H   H97       1.0  0.24912  0.31672  0.53321  1.0000 0.1101298609
H   H98       1.0  0.68328  0.93240  0.53321  1.0000 0.1101298609
H   H99       1.0  0.06760  0.75088  0.53321  1.0000 0.1101298609
H   H100      1.0  0.75088  0.68328  0.53321  1.0000 0.1101298609
H   H101      1.0  0.31672  0.06760  0.53321  1.0000 0.1101298609
H   H102      1.0  0.93240  0.24912  0.53321  1.0000 0.1101298609
H   H103      1.0  0.31672  0.24912  0.46679  1.0000 0.1101298609
H   H104      1.0  0.93240  0.68328  0.46679  1.0000 0.1101298609
H   H105      1.0  0.75088  0.06760  0.46679  1.0000 0.1101298609
H   H106      1.0  0.68328  0.75088  0.46679  1.0000 0.1101298609
H   H107      1.0  0.06760  0.31672  0.46679  1.0000 0.1101298609
H   H108      1.0  0.24912  0.93240  0.46679  1.0000 0.1101298609
H   H109      1.0  0.27511  0.36740  0.47017  1.0000 0.0925623941
H   H110      1.0  0.63260  0.90771  0.47017  1.0000 0.0925623941
H   H111      1.0  0.09229  0.72489  0.47017  1.0000 0.0925623941
H   H112      1.0  0.72489  0.63260  0.47017  1.0000 0.0925623941
H   H113      1.0  0.36740  0.09229  0.47017  1.0000 0.0925623941
H   H114      1.0  0.90771  0.27511  0.47017  1.0000 0.0925623941
H   H115      1.0  0.36740  0.27511  0.52983  1.0000 0.0925623941
H   H116      1.0  0.90771  0.63260  0.52983  1.0000 0.0925623941
H   H117      1.0  0.72489  0.09229  0.52983  1.0000 0.0925623941
H   H118      1.0  0.63260  0.72489  0.52983  1.0000 0.0925623941
H   H119      1.0  0.09229  0.36740  0.52983  1.0000 0.0925623941
H   H120      1.0  0.27511  0.90771  0.52983  1.0000 0.0925623941
H   H121      1.0  0.14057  0.23694  0.53123  1.0000 0.0987560395
H   H122      1.0  0.76306  0.90363  0.53123  1.0000 0.0987560395
H   H123      1.0  0.09637  0.85943  0.53123  1.0000 0.0987560395
H   H124      1.0  0.85943  0.76306  0.53123  1.0000 0.0987560395
H   H125      1.0  0.23694  0.09637  0.53123  1.0000 0.0987560395
H   H126      1.0  0.90363  0.14057  0.53123  1.0000 0.0987560395
H   H127      1.0  0.23694  0.14057  0.46877  1.0000 0.0987560395
H   H128      1.0  0.90363  0.76306  0.46877  1.0000 0.0987560395
H   H129      1.0  0.85943  0.09637  0.46877  1.0000 0.0987560395
H   H130      1.0  0.76306  0.85943  0.46877  1.0000 0.0987560395
H   H131      1.0  0.09637  0.23694  0.46877  1.0000 0.0987560395
H   H132      1.0  0.14057  0.90363  0.46877  1.0000 0.0987560395
H   H133      1.0  0.24677  0.44894  0.46886  1.0000 0.0925623941
H   H134      1.0  0.55106  0.79783  0.46886  1.0000 0.0925623941
H   H135      1.0  0.20217  0.75323  0.46886  1.0000 0.0925623941
H   H136      1.0  0.75323  0.55106  0.46886  1.0000 0.0925623941
H   H137      1.0  0.44894  0.20217  0.46886  1.0000 0.0925623941
H   H138      1.0  0.79783  0.24677  0.46886  1.0000 0.0925623941
H   H139      1.0  0.44894  0.24677  0.53114  1.0000 0.0925623941
H   H140      1.0  0.79783  0.55106  0.53114  1.0000 0.0925623941
H   H141      1.0  0.75323  0.20217  0.53114  1.0000 0.0925623941
H   H142      1.0  0.55106  0.75323  0.53114  1.0000 0.0925623941
H   H143      1.0  0.20217  0.44894  0.53114  1.0000 0.0925623941
H   H144      1.0  0.24677  0.79783  0.53114  1.0000 0.0925623941
H   H145      1.0  0.83774  0.01827  0.83734  1.0000 0.1301704566
H   H146      1.0  0.98173  0.81947  0.83734  1.0000 0.1301704566
H   H147      1.0  0.18053  0.16226  0.83734  1.0000 0.1301704566
H   H148      1.0  0.16226  0.98173  0.83734  1.0000 0.1301704566
H   H149      1.0  0.01827  0.18053  0.83734  1.0000 0.1301704566
H   H150      1.0  0.81947  0.83774  0.83734  1.0000 0.1301704566
H   H151      1.0  0.01827  0.83774  0.16266  1.0000 0.1301704566
H   H152      1.0  0.81947  0.98173  0.16266  1.0000 0.1301704566
H   H153      1.0  0.16226  0.18053  0.16266  1.0000 0.1301704566
H   H154      1.0  0.98173  0.16226  0.16266  1.0000 0.1301704566
H   H155      1.0  0.18053  0.01827  0.16266  1.0000 0.1301704566
H   H156      1.0  0.83774  0.81947  0.16266  1.0000 0.1301704566
H   H157      1.0  0.47913  0.55699  0.70038  1.0000 0.1101298609
H   H158      1.0  0.44301  0.92214  0.70038  1.0000 0.1101298609
H   H159      1.0  0.07786  0.52087  0.70038  1.0000 0.1101298609
H   H160      1.0  0.52087  0.44301  0.70038  1.0000 0.1101298609
H   H161      1.0  0.55699  0.07786  0.70038  1.0000 0.1101298609
H   H162      1.0  0.92214  0.47913  0.70038  1.0000 0.1101298609
H   H163      1.0  0.55699  0.47913  0.29962  1.0000 0.1101298609
H   H164      1.0  0.92214  0.44301  0.29962  1.0000 0.1101298609
H   H165      1.0  0.52087  0.07786  0.29962  1.0000 0.1101298609
H   H166      1.0  0.44301  0.52087  0.29962  1.0000 0.1101298609
H   H167      1.0  0.07786  0.55699  0.29962  1.0000 0.1101298609
H   H168      1.0  0.47913  0.92214  0.29962  1.0000 0.1101298609
H   H169      1.0  0.98056  0.28522  0.72309  1.0000 0.1101298609
H   H170      1.0  0.71478  0.69534  0.72309  1.0000 0.1101298609
H   H171      1.0  0.30466  0.01944  0.72309  1.0000 0.1101298609
H   H172      1.0  0.01944  0.71478  0.72309  1.0000 0.1101298609
H   H173      1.0  0.28522  0.30466  0.72309  1.0000 0.1101298609
H   H174      1.0  0.69534  0.98056  0.72309  1.0000 0.1101298609
H   H175      1.0  0.28522  0.98056  0.27691  1.0000 0.1101298609
H   H176      1.0  0.69534  0.71478  0.27691  1.0000 0.1101298609
H   H177      1.0  0.01944  0.30466  0.27691  1.0000 0.1101298609
H   H178      1.0  0.71478  0.01944  0.27691  1.0000 0.1101298609
H   H179      1.0  0.30466  0.28522  0.27691  1.0000 0.1101298609
H   H180      1.0  0.98056  0.69534  0.27691  1.0000 0.1101298609
H   H181      1.0  0.32921  0.44754  0.76646  1.0000 0.1101298609
H   H182      1.0  0.55246  0.88167  0.76646  1.0000 0.1101298609
H   H183      1.0  0.11833  0.67079  0.76646  1.0000 0.1101298609
H   H184      1.0  0.67079  0.55246  0.76646  1.0000 0.1101298609
H   H185      1.0  0.44754  0.11833  0.76646  1.0000 0.1101298609
H   H186      1.0  0.88167  0.32921  0.76646  1.0000 0.1101298609
H   H187      1.0  0.44754  0.32921  0.23354  1.0000 0.1101298609
H   H188      1.0  0.88167  0.55246  0.23354  1.0000 0.1101298609
H   H189      1.0  0.67079  0.11833  0.23354  1.0000 0.1101298609
H   H190      1.0  0.55246  0.67079  0.23354  1.0000 0.1101298609
H   H191      1.0  0.11833  0.44754  0.23354  1.0000 0.1101298609
H   H192      1.0  0.32921  0.88167  0.23354  1.0000 0.1101298609
H   H193      1.0  0.75491  0.96911  0.91680  1.0000 0.0987560395
H   H194      1.0  0.03089  0.78580  0.91680  1.0000 0.0987560395
H   H195      1.0  0.21420  0.24509  0.91680  1.0000 0.0987560395
H   H196      1.0  0.24509  0.03089  0.91680  1.0000 0.0925623941
H   H197      1.0  0.96911  0.21420  0.91680  1.0000 0.0987560395
H   H198      1.0  0.78580  0.75491  0.91680  1.0000 0.0925623941
H   H199      1.0  0.96911  0.75491  0.08320  1.0000 0.0987560395
H   H200      1.0  0.78580  0.03089  0.08320  1.0000 0.0987560395
H   H201      1.0  0.24509  0.21420  0.08320  1.0000 0.0987560395
H   H202      1.0  0.03089  0.24509  0.08320  1.0000 0.0987560395
H   H203      1.0  0.21420  0.96911  0.08320  1.0000 0.0987560395
H   H204      1.0  0.75491  0.78580  0.08320  1.0000 0.0987560395
H   H205      1.0  0.06064  0.33741  0.64440  1.0000 0.1101298609
H   H206      1.0  0.66259  0.72323  0.64440  1.0000 0.1101298609
H   H207      1.0  0.27677  0.93936  0.64440  1.0000 0.1101298609
H   H208      1.0  0.93936  0.66259  0.64440  1.0000 0.1101298609
H   H209      1.0  0.33741  0.27677  0.64440  1.0000 0.1101298609
H   H210      1.0  0.72323  0.06064  0.64440  1.0000 0.1101298609
H   H211      1.0  0.33741  0.06064  0.35560  1.0000 0.1101298609
H   H212      1.0  0.72323  0.66259  0.35560  1.0000 0.1101298609
H   H213      1.0  0.93936  0.27677  0.35560  1.0000 0.1101298609
H   H214      1.0  0.66259  0.93936  0.35560  1.0000 0.1101298609
H   H215      1.0  0.27677  0.33741  0.35560  1.0000 0.1101298609
H   H216      1.0  0.06064  0.72323  0.35560  1.0000 0.1101298609
H   H217      1.0  0.75861  0.12392  0.95046  1.0000 0.0987560395
H   H218      1.0  0.87608  0.63469  0.95046  1.0000 0.0987560395
H   H219      1.0  0.36531  0.24139  0.95046  1.0000 0.0987560395
H   H220      1.0  0.24139  0.87608  0.95046  1.0000 0.0987560395
H   H221      1.0  0.12392  0.36531  0.95046  1.0000 0.0987560395
H   H222      1.0  0.63469  0.75861  0.95046  1.0000 0.0987560395
H   H223      1.0  0.12392  0.75861  0.04954  1.0000 0.0987560395
H   H224      1.0  0.63469  0.87608  0.04954  1.0000 0.0987560395
H   H225      1.0  0.24139  0.36531  0.04954  1.0000 0.0987560395
H   H226      1.0  0.87608  0.24139  0.04954  1.0000 0.0987560395
H   H227      1.0  0.36531  0.12392  0.04954  1.0000 0.0987560395
H   H228      1.0  0.75861  0.63469  0.04954  1.0000 0.0987560395
H   H229      1.0  0.42186  0.53280  0.58326  1.0000 0.1192332221
H   H230      1.0  0.46720  0.88906  0.58326  1.0000 0.1192332221
H   H231      1.0  0.11094  0.57814  0.58326  1.0000 0.1192332221
H   H232      1.0  0.57814  0.46720  0.58326  1.0000 0.1192332221
H   H233      1.0  0.53280  0.11094  0.58326  1.0000 0.1192332221
H   H234      1.0  0.88906  0.42186  0.58326  1.0000 0.1192332221
H   H235      1.0  0.53280  0.42186  0.41674  1.0000 0.1192332221
H   H236      1.0  0.88906  0.46720  0.41674  1.0000 0.1192332221
H   H237      1.0  0.57814  0.11094  0.41674  1.0000 0.1192332221
H   H238      1.0  0.46720  0.57814  0.41674  1.0000 0.1192332221
H   H239      1.0  0.11094  0.53280  0.41674  1.0000 0.1192332221
H   H240      1.0  0.42186  0.88906  0.41674  1.0000 0.1192332221
H   H241      1.0  0.96762  0.12838  0.65706  1.0000 0.1192332221
H   H242      1.0  0.87162  0.83924  0.65706  1.0000 0.1192332221
H   H243      1.0  0.16076  0.03238  0.65706  1.0000 0.1192332221
H   H244      1.0  0.03238  0.87162  0.65706  1.0000 0.1192332221
H   H245      1.0  0.12838  0.16076  0.65706  1.0000 0.1192332221
H   H246      1.0  0.83924  0.96762  0.65706  1.0000 0.1192332221
H   H247      1.0  0.12838  0.96762  0.34294  1.0000 0.1192332221
H   H248      1.0  0.83924  0.87162  0.34294  1.0000 0.1192332221
H   H249      1.0  0.03238  0.16076  0.34294  1.0000 0.1192332221
H   H250      1.0  0.87162  0.03238  0.34294  1.0000 0.1192332221
H   H251      1.0  0.16076  0.12838  0.34294  1.0000 0.1192332221
H   H252      1.0  0.96762  0.83924  0.34294  1.0000 0.1192332221
H   H253      1.0  0.83510  0.17235  0.86815  1.0000 0.1301704566
H   H254      1.0  0.82765  0.66275  0.86815  1.0000 0.1301704566
H   H255      1.0  0.33725  0.16490  0.86815  1.0000 0.1301704566
H   H256      1.0  0.16490  0.82765  0.86815  1.0000 0.1301704566
H   H257      1.0  0.17235  0.33725  0.86815  1.0000 0.1301704566
H   H258      1.0  0.66275  0.83510  0.86815  1.0000 0.1301704566
H   H259      1.0  0.17235  0.83510  0.13185  1.0000 0.1301704566
H   H260      1.0  0.66275  0.82765  0.13185  1.0000 0.1301704566
H   H261      1.0  0.16490  0.33725  0.13185  1.0000 0.1301704566
H   H262      1.0  0.82765  0.16490  0.13185  1.0000 0.1301704566
H   H263      1.0  0.33725  0.17235  0.13185  1.0000 0.1301704566
H   H264      1.0  0.83510  0.66275  0.13185  1.0000 0.1301704566
H   H265      1.0  0.40331  0.52041  0.82077  1.0000 0.1101298609
H   H266      1.0  0.47959  0.88290  0.82077  1.0000 0.1101298609
H   H267      1.0  0.11710  0.59669  0.82077  1.0000 0.1101298609
H   H268      1.0  0.59669  0.47959  0.82077  1.0000 0.1101298609
H   H269      1.0  0.52041  0.11710  0.82077  1.0000 0.1101298609
H   H270      1.0  0.88290  0.40331  0.82077  1.0000 0.1101298609
H   H271      1.0  0.52041  0.40331  0.17923  1.0000 0.1101298609
H   H272      1.0  0.88290  0.47959  0.17923  1.0000 0.1101298609
H   H273      1.0  0.59669  0.11710  0.17923  1.0000 0.1101298609
H   H274      1.0  0.47959  0.59669  0.17923  1.0000 0.1101298609
H   H275      1.0  0.11710  0.52041  0.17923  1.0000 0.1101298609
H   H276      1.0  0.40331  0.88290  0.17923  1.0000 0.1101298609
H   H277      1.0  0.90280  0.09603  0.76223  1.0000 0.1192332221
H   H278      1.0  0.90397  0.80677  0.76223  1.0000 0.1192332221
H   H279      1.0  0.19323  0.09720  0.76223  1.0000 0.1192332221
H   H280      1.0  0.09720  0.90397  0.76223  1.0000 0.1192332221
H   H281      1.0  0.09603  0.19323  0.76223  1.0000 0.1192332221
H   H282      1.0  0.80677  0.90280  0.76223  1.0000 0.1192332221
H   H283      1.0  0.09603  0.90280  0.23777  1.0000 0.1192332221
H   H284      1.0  0.80677  0.90397  0.23777  1.0000 0.1192332221
H   H285      1.0  0.09720  0.19323  0.23777  1.0000 0.1192332221
H   H286      1.0  0.90397  0.09720  0.23777  1.0000 0.1192332221
H   H287      1.0  0.19323  0.09603  0.23777  1.0000 0.1192332221
H   H288      1.0  0.90280  0.80677  0.23777  1.0000 0.1192332221
H   H289      1.0  0.90572  0.20442  0.77684  1.0000 0.1101298609
H   H290      1.0  0.79558  0.70130  0.77684  1.0000 0.1101298609
H   H291      1.0  0.29870  0.09428  0.77684  1.0000 0.1101298609
H   H292      1.0  0.09428  0.79558  0.77684  1.0000 0.1101298609
H   H293      1.0  0.20442  0.29870  0.77684  1.0000 0.1101298609
H   H294      1.0  0.70130  0.90572  0.77684  1.0000 0.1101298609
H   H295      1.0  0.20442  0.90572  0.22316  1.0000 0.1101298609
H   H296      1.0  0.70130  0.79558  0.22316  1.0000 0.1101298609
H   H297      1.0  0.09428  0.29870  0.22316  1.0000 0.1101298609
H   H298      1.0  0.79558  0.09428  0.22316  1.0000 0.1101298609
H   H299      1.0  0.29870  0.20442  0.22316  1.0000 0.1101298609
H   H300      1.0  0.90572  0.70130  0.22316  1.0000 0.1101298609
H   H301      1.0  0.33752  0.47046  0.51461  1.0000 0.1192332221
H   H302      1.0  0.52954  0.86706  0.51461  1.0000 0.1192332221
H   H303      1.0  0.13294  0.66248  0.51461  1.0000 0.1192332221
H   H304      1.0  0.66248  0.52954  0.51461  1.0000 0.1192332221
H   H305      1.0  0.47046  0.13294  0.51461  1.0000 0.1192332221
H   H306      1.0  0.86706  0.33752  0.51461  1.0000 0.1192332221
H   H307      1.0  0.47046  0.33752  0.48539  1.0000 0.1192332221
H   H308      1.0  0.86706  0.52954  0.48539  1.0000 0.1192332221
H   H309      1.0  0.66248  0.13294  0.48539  1.0000 0.1192332221
H   H310      1.0  0.52954  0.66248  0.48539  1.0000 0.1192332221
H   H311      1.0  0.13294  0.47046  0.48539  1.0000 0.1192332221
H   H312      1.0  0.33752  0.86706  0.48539  1.0000 0.1192332221
C   C1        1.0  0.22610  0.38280  0.54840  1.0000 0.1639602621
C   C2        1.0  0.61720  0.84330  0.54840  1.0000 0.1639602621
C   C3        1.0  0.15670  0.77390  0.54840  1.0000 0.1639602621
C   C4        1.0  0.77390  0.61720  0.54840  1.0000 0.1639602621
C   C5        1.0  0.38280  0.15670  0.54840  1.0000 0.1639602621
C   C6        1.0  0.84330  0.22610  0.54840  1.0000 0.1639602621
C   C7        1.0  0.38280  0.22610  0.45160  1.0000 0.1639602621
C   C8        1.0  0.84330  0.61720  0.45160  1.0000 0.1639602621
C   C9        1.0  0.77390  0.15670  0.45160  1.0000 0.1639602621
C   C10       1.0  0.61720  0.77390  0.45160  1.0000 0.1639602621
C   C11       1.0  0.15670  0.38280  0.45160  1.0000 0.1639602621
C   C12       1.0  0.22610  0.84330  0.45160  1.0000 0.1639602621
C   C13       1.0  0.06080  0.26370  0.59990  1.0000 0.0489245707
C   C14       1.0  0.73630  0.79710  0.59990  1.0000 0.0489245707
C   C15       1.0  0.20290  0.93920  0.59990  1.0000 0.0489245707
C   C16       1.0  0.93920  0.73630  0.59990  1.0000 0.0489245707
C   C17       1.0  0.26370  0.20290  0.59990  1.0000 0.0489245707
C   C18       1.0  0.79710  0.06080  0.59990  1.0000 0.0489245707
C   C19       1.0  0.26370  0.06080  0.40010  1.0000 0.0489245707
C   C20       1.0  0.79710  0.73630  0.40010  1.0000 0.0489245707
C   C21       1.0  0.93920  0.20290  0.40010  1.0000 0.0489245707
C   C22       1.0  0.73630  0.93920  0.40010  1.0000 0.0489245707
C   C23       1.0  0.20290  0.26370  0.40010  1.0000 0.0489245707
C   C24       1.0  0.06080  0.79710  0.40010  1.0000 0.0489245707
C   C25       1.0  0.28120  0.41970  0.67100  1.0000 -0.1608634213
C   C26       1.0  0.58030  0.86150  0.67100  1.0000 -0.1608634213
C   C27       1.0  0.13850  0.71880  0.67100  1.0000 -0.1608634213
C   C28       1.0  0.71880  0.58030  0.67100  1.0000 -0.1608634213
C   C29       1.0  0.41970  0.13850  0.67100  1.0000 -0.1608634213
C   C30       1.0  0.86150  0.28120  0.67100  1.0000 -0.1608634213
C   C31       1.0  0.41970  0.28120  0.32900  1.0000 -0.1608634213
C   C32       1.0  0.86150  0.58030  0.32900  1.0000 -0.1608634213
C   C33       1.0  0.71880  0.13850  0.32900  1.0000 -0.1608634213
C   C34       1.0  0.58030  0.71880  0.32900  1.0000 -0.1608634213
C   C35       1.0  0.13850  0.41970  0.32900  1.0000 -0.1608634213
C   C36       1.0  0.28120  0.86150  0.32900  1.0000 -0.1608634213
C   C37       1.0  0.11530  0.30050  0.54820  1.0000 0.171500041
C   C38       1.0  0.69950  0.81480  0.54820  1.0000 0.171500041
C   C39       1.0  0.18520  0.88470  0.54820  1.0000 0.171500041
C   C40       1.0  0.88470  0.69950  0.54820  1.0000 0.171500041
C   C41       1.0  0.30050  0.18520  0.54820  1.0000 0.171500041
C   C42       1.0  0.81480  0.11530  0.54820  1.0000 0.171500041
C   C43       1.0  0.30050  0.11530  0.45180  1.0000 0.171500041
C   C44       1.0  0.81480  0.69950  0.45180  1.0000 0.171500041
C   C45       1.0  0.88470  0.18520  0.45180  1.0000 0.171500041
C   C46       1.0  0.69950  0.88470  0.45180  1.0000 0.171500041
C   C47       1.0  0.18520  0.30050  0.45180  1.0000 0.171500041
C   C48       1.0  0.11530  0.81480  0.45180  1.0000 0.171500041
C   C49       1.0  0.17160  0.34300  0.59620  1.0000 -0.2913920377
C   C50       1.0  0.65700  0.82860  0.59620  1.0000 -0.2913920377
C   C51       1.0  0.17140  0.82840  0.59620  1.0000 -0.2913920377
C   C52       1.0  0.82840  0.65700  0.59620  1.0000 -0.2913920377
C   C53       1.0  0.34300  0.17140  0.59620  1.0000 -0.2913920377
C   C54       1.0  0.82860  0.17160  0.59620  1.0000 -0.2913920377
C   C55       1.0  0.34300  0.17160  0.40380  1.0000 -0.2913920377
C   C56       1.0  0.82860  0.65700  0.40380  1.0000 -0.2913920377
C   C57       1.0  0.82840  0.17140  0.40380  1.0000 -0.2913920377
C   C58       1.0  0.65700  0.82840  0.40380  1.0000 -0.2913920377
C   C59       1.0  0.17140  0.34300  0.40380  1.0000 -0.2913920377
C   C60       1.0  0.17160  0.82860  0.40380  1.0000 -0.2913920377
C   C61       1.0  0.28160  0.42230  0.59660  1.0000 0.0489245707
C   C62       1.0  0.57770  0.85930  0.59660  1.0000 0.0489245707
C   C63       1.0  0.14070  0.71840  0.59660  1.0000 0.0489245707
C   C64       1.0  0.71840  0.57770  0.59660  1.0000 0.0489245707
C   C65       1.0  0.42230  0.14070  0.59660  1.0000 0.0489245707
C   C66       1.0  0.85930  0.28160  0.59660  1.0000 0.0489245707
C   C67       1.0  0.42230  0.28160  0.40340  1.0000 0.0489245707
C   C68       1.0  0.85930  0.57770  0.40340  1.0000 0.0489245707
C   C69       1.0  0.71840  0.14070  0.40340  1.0000 0.0489245707
C   C70       1.0  0.57770  0.71840  0.40340  1.0000 0.0489245707
C   C71       1.0  0.14070  0.42230  0.40340  1.0000 0.0489245707
C   C72       1.0  0.28160  0.85930  0.40340  1.0000 0.0489245707
C   C73       1.0  0.60612  0.62690  0.85900  1.0000 0.0320671919
C   C74       1.0  0.37310  0.97922  0.85900  1.0000 0.0320671919
C   C75       1.0  0.02078  0.39388  0.85900  1.0000 0.0320671919
C   C76       1.0  0.39388  0.37310  0.85900  1.0000 0.0320671919
C   C77       1.0  0.62690  0.02078  0.85900  1.0000 0.0320671919
C   C78       1.0  0.97922  0.60612  0.85900  1.0000 0.0320671919
C   C79       1.0  0.62690  0.60612  0.14100  1.0000 0.0320671919
C   C80       1.0  0.97922  0.37310  0.14100  1.0000 0.0320671919
C   C81       1.0  0.39388  0.02078  0.14100  1.0000 0.0320671919
C   C82       1.0  0.37310  0.39388  0.14100  1.0000 0.0320671919
C   C83       1.0  0.02078  0.62690  0.14100  1.0000 0.0320671919
C   C84       1.0  0.60612  0.97922  0.14100  1.0000 0.0320671919
C   C85       1.0  0.55590  0.59780  0.81303  1.0000 -0.2097811624
C   C86       1.0  0.40220  0.95810  0.81303  1.0000 -0.2097811624
C   C87       1.0  0.04190  0.44410  0.81303  1.0000 -0.2097811624
C   C88       1.0  0.44410  0.40220  0.81303  1.0000 -0.2097811624
C   C89       1.0  0.59780  0.04190  0.81303  1.0000 -0.1969740516
C   C90       1.0  0.95810  0.55590  0.81303  1.0000 -0.2097811624
C   C91       1.0  0.59780  0.55590  0.18697  1.0000 -0.2097811624
C   C92       1.0  0.95810  0.40220  0.18697  1.0000 -0.2097811624
C   C93       1.0  0.44410  0.04190  0.18697  1.0000 -0.2097811624
C   C94       1.0  0.40220  0.44410  0.18697  1.0000 -0.2097811624
C   C95       1.0  0.04190  0.59780  0.18697  1.0000 -0.2097811624
C   C96       1.0  0.55590  0.95810  0.18697  1.0000 -0.2097811624
C   C97       1.0  0.49771  0.57500  0.84150  1.0000 0.1494624138
C   C98       1.0  0.42500  0.92271  0.84150  1.0000 0.1494624138
C   C99       1.0  0.07729  0.50229  0.84150  1.0000 0.1494624138
C   C100      1.0  0.50229  0.42500  0.84150  1.0000 0.1494624138
C   C101      1.0  0.57500  0.07729  0.84150  1.0000 0.1494624138
C   C102      1.0  0.92271  0.49771  0.84150  1.0000 0.1494624138
C   C103      1.0  0.57500  0.49771  0.15850  1.0000 0.1494624138
C   C104      1.0  0.92271  0.42500  0.15850  1.0000 0.1494624138
C   C105      1.0  0.50229  0.07729  0.15850  1.0000 0.1494624138
C   C106      1.0  0.42500  0.50229  0.15850  1.0000 0.1494624138
C   C107      1.0  0.07729  0.57500  0.15850  1.0000 0.1494624138
C   C108      1.0  0.49771  0.92271  0.15850  1.0000 0.1494624138
C   C109      1.0  0.48978  0.58130  0.91580  1.0000 -0.2097811624
C   C110      1.0  0.41870  0.90848  0.91580  1.0000 -0.2097811624
C   C111      1.0  0.09152  0.51022  0.91580  1.0000 -0.2097811624
C   C112      1.0  0.51022  0.41870  0.91580  1.0000 -0.2097811624
C   C113      1.0  0.58130  0.09152  0.91580  1.0000 -0.2097811624
C   C114      1.0  0.90848  0.48978  0.91580  1.0000 -0.2097811624
C   C115      1.0  0.58130  0.48978  0.08420  1.0000 -0.2097811624
C   C116      1.0  0.90848  0.41870  0.08420  1.0000 -0.2097811624
C   C117      1.0  0.51022  0.09152  0.08420  1.0000 -0.2097811624
C   C118      1.0  0.41870  0.51022  0.08420  1.0000 -0.2097811624
C   C119      1.0  0.09152  0.58130  0.08420  1.0000 -0.2097811624
C   C120      1.0  0.48978  0.90848  0.08420  1.0000 -0.2097811624
C   C121      1.0  0.54002  0.61040  0.96176  1.0000 0.0320671919
C   C122      1.0  0.38960  0.92962  0.96176  1.0000 0.0320671919
C   C123      1.0  0.07038  0.45998  0.96176  1.0000 0.0320671919
C   C124      1.0  0.45998  0.38960  0.96176  1.0000 0.0320671919
C   C125      1.0  0.61040  0.07038  0.96176  1.0000 0.0320671919
C   C126      1.0  0.92962  0.54002  0.96176  1.0000 0.0320671919
C   C127      1.0  0.61040  0.54002  0.03824  1.0000 0.0320671919
C   C128      1.0  0.92962  0.38960  0.03824  1.0000 0.0320671919
C   C129      1.0  0.45998  0.07038  0.03824  1.0000 0.0320671919
C   C130      1.0  0.38960  0.45998  0.03824  1.0000 0.0320671919
C   C131      1.0  0.07038  0.61040  0.03824  1.0000 0.0320671919
C   C132      1.0  0.54002  0.92962  0.03824  1.0000 0.0320671919
C   C133      1.0  0.03140  0.20150  0.60310  1.0000 -0.1501952389
C   C134      1.0  0.79850  0.82990  0.60310  1.0000 -0.1501952389
C   C135      1.0  0.17010  0.96860  0.60310  1.0000 -0.1501952389
C   C136      1.0  0.96860  0.79850  0.60310  1.0000 -0.1501952389
C   C137      1.0  0.20150  0.17010  0.60310  1.0000 -0.1501952389
C   C138      1.0  0.82990  0.03140  0.60310  1.0000 -0.1501952389
C   C139      1.0  0.20150  0.03140  0.39690  1.0000 -0.1501952389
C   C140      1.0  0.82990  0.79850  0.39690  1.0000 -0.1501952389
C   C141      1.0  0.96860  0.17010  0.39690  1.0000 -0.1501952389
C   C142      1.0  0.79850  0.96860  0.39690  1.0000 -0.1501952389
C   C143      1.0  0.17010  0.20150  0.39690  1.0000 -0.1501952389
C   C144      1.0  0.03140  0.82990  0.39690  1.0000 -0.1501952389
C   C145      1.0  0.23920  0.34210  0.50120  1.0000 -0.2990208354
C   C146      1.0  0.65790  0.89710  0.50120  1.0000 -0.2990208354
C   C147      1.0  0.10290  0.76080  0.50120  1.0000 -0.2990208354
C   C148      1.0  0.76080  0.65790  0.50120  1.0000 -0.2990208354
C   C149      1.0  0.34210  0.10290  0.50120  1.0000 -0.2990208354
C   C150      1.0  0.89710  0.23920  0.50120  1.0000 -0.2990208354
C   C151      1.0  0.34210  0.23920  0.49880  1.0000 -0.2990208354
C   C152      1.0  0.89710  0.65790  0.49880  1.0000 -0.2990208354
C   C153      1.0  0.76080  0.10290  0.49880  1.0000 -0.2990208354
C   C154      1.0  0.65790  0.76080  0.49880  1.0000 -0.2990208354
C   C155      1.0  0.10290  0.34210  0.49880  1.0000 -0.2990208354
C   C156      1.0  0.23920  0.89710  0.49880  1.0000 -0.2990208354
C   C157      1.0  0.38640  0.49610  0.68130  1.0000 0.0987560395
C   C158      1.0  0.50390  0.89030  0.68130  1.0000 0.0987560395
C   C159      1.0  0.10970  0.61360  0.68130  1.0000 0.0987560395
C   C160      1.0  0.61360  0.50390  0.68130  1.0000 0.0987560395
C   C161      1.0  0.49610  0.10970  0.68130  1.0000 0.0987560395
C   C162      1.0  0.89030  0.38640  0.68130  1.0000 0.0987560395
C   C163      1.0  0.49610  0.38640  0.31870  1.0000 0.0987560395
C   C164      1.0  0.89030  0.50390  0.31870  1.0000 0.0987560395
C   C165      1.0  0.61360  0.10970  0.31870  1.0000 0.1101298609
C   C166      1.0  0.50390  0.61360  0.31870  1.0000 0.0987560395
C   C167      1.0  0.10970  0.49610  0.31870  1.0000 0.1101298609
C   C168      1.0  0.38640  0.89030  0.31870  1.0000 0.0987560395
C   C169      1.0  0.13175  0.26350  0.50000  1.0000 -0.3395012181
C   C170      1.0  0.73650  0.86825  0.50000  1.0000 -0.3395012181
C   C171      1.0  0.13175  0.86825  0.50000  1.0000 -0.3395012181
C   C172      1.0  0.86825  0.73650  0.50000  1.0000 -0.3395012181
C   C173      1.0  0.26350  0.13175  0.50000  1.0000 -0.3395012181
C   C174      1.0  0.86825  0.13175  0.50000  1.0000 -0.3395012181
C   C175      1.0  0.21125  0.42250  0.50000  1.0000 -0.2913920377
C   C176      1.0  0.57750  0.78875  0.50000  1.0000 -0.2913920377
C   C177      1.0  0.21125  0.78875  0.50000  1.0000 -0.2913920377
C   C178      1.0  0.78875  0.57750  0.50000  1.0000 -0.2913920377
C   C179      1.0  0.42250  0.21125  0.50000  1.0000 -0.2913920377
C   C180      1.0  0.78875  0.21125  0.50000  1.0000 -0.2913920377
C   C181      1.0  0.82030  0.04040  0.85800  1.0000 -0.1969740516
C   C182      1.0  0.95960  0.77990  0.85800  1.0000 -0.1969740516
C   C183      1.0  0.22010  0.17970  0.85800  1.0000 -0.1969740516
C   C184      1.0  0.17970  0.95960  0.85800  1.0000 -0.1969740516
C   C185      1.0  0.04040  0.22010  0.85800  1.0000 -0.1969740516
C   C186      1.0  0.77990  0.82030  0.85800  1.0000 -0.1969740516
C   C187      1.0  0.04040  0.82030  0.14200  1.0000 -0.1969740516
C   C188      1.0  0.77990  0.95960  0.14200  1.0000 -0.1969740516
C   C189      1.0  0.17970  0.22010  0.14200  1.0000 -0.1969740516
C   C190      1.0  0.95960  0.17970  0.14200  1.0000 -0.1969740516
C   C191      1.0  0.22010  0.04040  0.14200  1.0000 -0.1969740516
C   C192      1.0  0.82030  0.77990  0.14200  1.0000 -0.1969740516
C   C193      1.0  0.44150  0.53480  0.72550  1.0000 -0.1269568955
C   C194      1.0  0.46520  0.90670  0.72550  1.0000 -0.1269568955
C   C195      1.0  0.09330  0.55850  0.72550  1.0000 -0.1269568955
C   C196      1.0  0.55850  0.46520  0.72550  1.0000 -0.1269568955
C   C197      1.0  0.53480  0.09330  0.72550  1.0000 -0.1269568955
C   C198      1.0  0.90670  0.44150  0.72550  1.0000 -0.1269568955
C   C199      1.0  0.53480  0.44150  0.27450  1.0000 -0.1269568955
C   C200      1.0  0.90670  0.46520  0.27450  1.0000 -0.1269568955
C   C201      1.0  0.55850  0.09330  0.27450  1.0000 -0.1269568955
C   C202      1.0  0.46520  0.55850  0.27450  1.0000 -0.1269568955
C   C203      1.0  0.09330  0.53480  0.27450  1.0000 -0.1269568955
C   C204      1.0  0.44150  0.90670  0.27450  1.0000 -0.1269568955
C   C205      1.0  0.99430  0.26310  0.69470  1.0000 -0.1501952389
C   C206      1.0  0.73690  0.73120  0.69470  1.0000 -0.1501952389
C   C207      1.0  0.26880  0.00570  0.69470  1.0000 -0.1501952389
C   C208      1.0  0.00570  0.73690  0.69470  1.0000 -0.1501952389
C   C209      1.0  0.26310  0.26880  0.69470  1.0000 -0.1501952389
C   C210      1.0  0.73120  0.99430  0.69470  1.0000 -0.1501952389
C   C211      1.0  0.26310  0.99430  0.30530  1.0000 -0.1501952389
C   C212      1.0  0.73120  0.73690  0.30530  1.0000 -0.1501952389
C   C213      1.0  0.00570  0.26880  0.30530  1.0000 -0.1501952389
C   C214      1.0  0.73690  0.00570  0.30530  1.0000 -0.1501952389
C   C215      1.0  0.26880  0.26310  0.30530  1.0000 -0.1501952389
C   C216      1.0  0.99430  0.73120  0.30530  1.0000 -0.1501952389
C   C217      1.0  0.33150  0.45330  0.71480  1.0000 -0.170689641
C   C218      1.0  0.54670  0.87820  0.71480  1.0000 -0.170689641
C   C219      1.0  0.12180  0.66850  0.71480  1.0000 -0.170689641
C   C220      1.0  0.66850  0.54670  0.71480  1.0000 -0.170689641
C   C221      1.0  0.45330  0.12180  0.71480  1.0000 -0.170689641
C   C222      1.0  0.87820  0.33150  0.71480  1.0000 -0.170689641
C   C223      1.0  0.45330  0.33150  0.28520  1.0000 -0.170689641
C   C224      1.0  0.87820  0.54670  0.28520  1.0000 -0.170689641
C   C225      1.0  0.66850  0.12180  0.28520  1.0000 -0.170689641
C   C226      1.0  0.54670  0.66850  0.28520  1.0000 -0.170689641
C   C227      1.0  0.12180  0.45330  0.28520  1.0000 -0.170689641
C   C228      1.0  0.33150  0.87820  0.28520  1.0000 -0.170689641
C   C229      1.0  0.77150  0.01110  0.90660  1.0000 0.0320671919
C   C230      1.0  0.98890  0.76040  0.90660  1.0000 0.0320671919
C   C231      1.0  0.23960  0.22850  0.90660  1.0000 0.0320671919
C   C232      1.0  0.22850  0.98890  0.90660  1.0000 0.0320671919
C   C233      1.0  0.01110  0.23960  0.90660  1.0000 0.0320671919
C   C234      1.0  0.76040  0.77150  0.90660  1.0000 0.0320671919
C   C235      1.0  0.01110  0.77150  0.09340  1.0000 0.0320671919
C   C236      1.0  0.76040  0.98890  0.09340  1.0000 0.0320671919
C   C237      1.0  0.22850  0.23960  0.09340  1.0000 0.0320671919
C   C238      1.0  0.98890  0.22850  0.09340  1.0000 0.0320671919
C   C239      1.0  0.23960  0.01110  0.09340  1.0000 0.0320671919
C   C240      1.0  0.77150  0.76040  0.09340  1.0000 0.0320671919
C   C241      1.0  0.96760  0.20410  0.70350  1.0000 0.0925623941
C   C242      1.0  0.79590  0.76350  0.70350  1.0000 0.0925623941
C   C243      1.0  0.23650  0.03240  0.70350  1.0000 0.0925623941
C   C244      1.0  0.03240  0.79590  0.70350  1.0000 0.0925623941
C   C245      1.0  0.20410  0.23650  0.70350  1.0000 0.0925623941
C   C246      1.0  0.76350  0.96760  0.70350  1.0000 0.0925623941
C   C247      1.0  0.20410  0.96760  0.29650  1.0000 0.0925623941
C   C248      1.0  0.76350  0.79590  0.29650  1.0000 0.0925623941
C   C249      1.0  0.03240  0.23650  0.29650  1.0000 0.0925623941
C   C250      1.0  0.79590  0.03240  0.29650  1.0000 0.0925623941
C   C251      1.0  0.23650  0.20410  0.29650  1.0000 0.0925623941
C   C252      1.0  0.96760  0.76350  0.29650  1.0000 0.0925623941
C   C253      1.0  0.04120  0.29430  0.64640  1.0000 -0.1501952389
C   C254      1.0  0.70570  0.74690  0.64640  1.0000 -0.1501952389
C   C255      1.0  0.25310  0.95880  0.64640  1.0000 -0.1501952389
C   C256      1.0  0.95880  0.70570  0.64640  1.0000 -0.1501952389
C   C257      1.0  0.29430  0.25310  0.64640  1.0000 -0.1501952389
C   C258      1.0  0.74690  0.04120  0.64640  1.0000 -0.1501952389
C   C259      1.0  0.29430  0.04120  0.35360  1.0000 -0.1501952389
C   C260      1.0  0.74690  0.70570  0.35360  1.0000 -0.1501952389
C   C261      1.0  0.95880  0.25310  0.35360  1.0000 -0.1501952389
C   C262      1.0  0.70570  0.95880  0.35360  1.0000 -0.1501952389
C   C263      1.0  0.25310  0.29430  0.35360  1.0000 -0.1501952389
C   C264      1.0  0.04120  0.74690  0.35360  1.0000 -0.1501952389
C   C265      1.0  0.77320  0.10100  0.92530  1.0000 0.0624023814
C   C266      1.0  0.89900  0.67220  0.92530  1.0000 0.0624023814
C   C267      1.0  0.32780  0.22680  0.92530  1.0000 0.0624023814
C   C268      1.0  0.22680  0.89900  0.92530  1.0000 0.0624023814
C   C269      1.0  0.10100  0.32780  0.92530  1.0000 0.0624023814
C   C270      1.0  0.67220  0.77320  0.92530  1.0000 0.0624023814
C   C271      1.0  0.10100  0.77320  0.07470  1.0000 0.0624023814
C   C272      1.0  0.67220  0.89900  0.07470  1.0000 0.0624023814
C   C273      1.0  0.22680  0.32780  0.07470  1.0000 0.0624023814
C   C274      1.0  0.89900  0.22680  0.07470  1.0000 0.0624023814
C   C275      1.0  0.32780  0.10100  0.07470  1.0000 0.0624023814
C   C276      1.0  0.77320  0.67220  0.07470  1.0000 0.0624023814
C   C277      1.0  0.84350  0.09980  0.83940  1.0000 0.1494624138
C   C278      1.0  0.90020  0.74370  0.83940  1.0000 0.1494624138
C   C279      1.0  0.25630  0.15650  0.83940  1.0000 0.1494624138
C   C280      1.0  0.15650  0.90020  0.83940  1.0000 0.1494624138
C   C281      1.0  0.09980  0.25630  0.83940  1.0000 0.1494624138
C   C282      1.0  0.74370  0.84350  0.83940  1.0000 0.1494624138
C   C283      1.0  0.09980  0.84350  0.16060  1.0000 0.1494624138
C   C284      1.0  0.74370  0.90020  0.16060  1.0000 0.1494624138
C   C285      1.0  0.15650  0.25630  0.16060  1.0000 0.1494624138
C   C286      1.0  0.90020  0.15650  0.16060  1.0000 0.1494624138
C   C287      1.0  0.25630  0.09980  0.16060  1.0000 0.1494624138
C   C288      1.0  0.84350  0.74370  0.16060  1.0000 0.1494624138
C   C289      1.0  0.38630  0.50250  0.60720  1.0000 -0.1608634213
C   C290      1.0  0.49750  0.88380  0.60720  1.0000 -0.1608634213
C   C291      1.0  0.11620  0.61370  0.60720  1.0000 -0.1608634213
C   C292      1.0  0.61370  0.49750  0.60720  1.0000 -0.1608634213
C   C293      1.0  0.50250  0.11620  0.60720  1.0000 -0.1608634213
C   C294      1.0  0.88380  0.38630  0.60720  1.0000 -0.1608634213
C   C295      1.0  0.50250  0.38630  0.39280  1.0000 -0.1608634213
C   C296      1.0  0.88380  0.49750  0.39280  1.0000 -0.1608634213
C   C297      1.0  0.61370  0.11620  0.39280  1.0000 -0.1608634213
C   C298      1.0  0.49750  0.61370  0.39280  1.0000 -0.1608634213
C   C299      1.0  0.11620  0.50250  0.39280  1.0000 -0.1608634213
C   C300      1.0  0.38630  0.88380  0.39280  1.0000 -0.1608634213
C   C301      1.0  0.98670  0.17140  0.65380  1.0000 -0.1501952389
C   C302      1.0  0.82860  0.81530  0.65380  1.0000 -0.1501952389
C   C303      1.0  0.18470  0.01330  0.65380  1.0000 -0.1501952389
C   C304      1.0  0.01330  0.82860  0.65380  1.0000 -0.1501952389
C   C305      1.0  0.17140  0.18470  0.65380  1.0000 -0.1501952389
C   C306      1.0  0.81530  0.98670  0.65380  1.0000 -0.1501952389
C   C307      1.0  0.17140  0.98670  0.34620  1.0000 -0.1501952389
C   C308      1.0  0.81530  0.82860  0.34620  1.0000 -0.1501952389
C   C309      1.0  0.01330  0.18470  0.34620  1.0000 -0.1501952389
C   C310      1.0  0.82860  0.01330  0.34620  1.0000 -0.1501952389
C   C311      1.0  0.18470  0.17140  0.34620  1.0000 -0.1501952389
C   C312      1.0  0.98670  0.81530  0.34620  1.0000 -0.1501952389
C   C313      1.0  0.81920  0.13020  0.87680  1.0000 -0.2174120854
C   C314      1.0  0.86980  0.68900  0.87680  1.0000 -0.2174120854
C   C315      1.0  0.31100  0.18080  0.87680  1.0000 -0.2174120854
C   C316      1.0  0.18080  0.86980  0.87680  1.0000 -0.2174120854
C   C317      1.0  0.13020  0.31100  0.87680  1.0000 -0.2174120854
C   C318      1.0  0.68900  0.81920  0.87680  1.0000 -0.2174120854
C   C319      1.0  0.13020  0.81920  0.12320  1.0000 -0.2174120854
C   C320      1.0  0.68900  0.86980  0.12320  1.0000 -0.2174120854
C   C321      1.0  0.18080  0.31100  0.12320  1.0000 -0.2174120854
C   C322      1.0  0.86980  0.18080  0.12320  1.0000 -0.2174120854
C   C323      1.0  0.31100  0.13020  0.12320  1.0000 -0.2174120854
C   C324      1.0  0.81920  0.68900  0.12320  1.0000 -0.2174120854
C   C325      1.0  0.44140  0.54000  0.79610  1.0000 -0.1501952389
C   C326      1.0  0.46000  0.90140  0.79610  1.0000 -0.1501952389
C   C327      1.0  0.09860  0.55860  0.79610  1.0000 -0.1501952389
C   C328      1.0  0.55860  0.46000  0.79610  1.0000 -0.1501952389
C   C329      1.0  0.54000  0.09860  0.79610  1.0000 -0.1501952389
C   C330      1.0  0.90140  0.44140  0.79610  1.0000 -0.1501952389
C   C331      1.0  0.54000  0.44140  0.20390  1.0000 -0.1501952389
C   C332      1.0  0.90140  0.46000  0.20390  1.0000 -0.1501952389
C   C333      1.0  0.55860  0.09860  0.20390  1.0000 -0.1501952389
C   C334      1.0  0.46000  0.55860  0.20390  1.0000 -0.1501952389
C   C335      1.0  0.09860  0.54000  0.20390  1.0000 -0.1501952389
C   C336      1.0  0.44140  0.90140  0.20390  1.0000 -0.1501952389
C   C337      1.0  0.89140  0.12340  0.78220  1.0000 -0.1501952389
C   C338      1.0  0.87660  0.76800  0.78220  1.0000 -0.1501952389
C   C339      1.0  0.23200  0.10860  0.78220  1.0000 -0.1501952389
C   C340      1.0  0.10860  0.87660  0.78220  1.0000 -0.1501952389
C   C341      1.0  0.12340  0.23200  0.78220  1.0000 -0.1501952389
C   C342      1.0  0.76800  0.89140  0.78220  1.0000 -0.1501952389
C   C343      1.0  0.12340  0.89140  0.21780  1.0000 -0.1501952389
C   C344      1.0  0.76800  0.87660  0.21780  1.0000 -0.1501952389
C   C345      1.0  0.10860  0.23200  0.21780  1.0000 -0.1501952389
C   C346      1.0  0.87660  0.10860  0.21780  1.0000 -0.1501952389
C   C347      1.0  0.23200  0.12340  0.21780  1.0000 -0.1501952389
C   C348      1.0  0.89140  0.76800  0.21780  1.0000 -0.1501952389
C   C349      1.0  0.91870  0.17800  0.75770  1.0000 -0.1501952389
C   C350      1.0  0.82200  0.74070  0.75770  1.0000 -0.1501952389
C   C351      1.0  0.25930  0.08130  0.75770  1.0000 -0.1501952389
C   C352      1.0  0.08130  0.82200  0.75770  1.0000 -0.1501952389
C   C353      1.0  0.17800  0.25930  0.75770  1.0000 -0.1501952389
C   C354      1.0  0.74070  0.91870  0.75770  1.0000 -0.1501952389
C   C355      1.0  0.17800  0.91870  0.24230  1.0000 -0.1501952389
C   C356      1.0  0.74070  0.82200  0.24230  1.0000 -0.1501952389
C   C357      1.0  0.08130  0.25930  0.24230  1.0000 -0.1501952389
C   C358      1.0  0.82200  0.08130  0.24230  1.0000 -0.1501952389
C   C359      1.0  0.25930  0.17800  0.24230  1.0000 -0.1501952389
C   C360      1.0  0.91870  0.74070  0.24230  1.0000 -0.1501952389
C   C361      1.0  0.33530  0.46560  0.56640  1.0000 -0.1608634213
C   C362      1.0  0.53440  0.86970  0.56640  1.0000 -0.1608634213
C   C363      1.0  0.13030  0.66470  0.56640  1.0000 -0.1608634213
C   C364      1.0  0.66470  0.53440  0.56640  1.0000 -0.1608634213
C   C365      1.0  0.46560  0.13030  0.56640  1.0000 -0.1608634213
C   C366      1.0  0.86970  0.33530  0.56640  1.0000 -0.1608634213
C   C367      1.0  0.46560  0.33530  0.43360  1.0000 -0.1608634213
C   C368      1.0  0.86970  0.53440  0.43360  1.0000 -0.1608634213
C   C369      1.0  0.66470  0.13030  0.43360  1.0000 -0.1608634213
C   C370      1.0  0.53440  0.66470  0.43360  1.0000 -0.1608634213
C   C371      1.0  0.13030  0.46560  0.43360  1.0000 -0.1608634213
C   C372      1.0  0.33530  0.86970  0.43360  1.0000 -0.1608634213
N   N1        1.0  0.74780  0.04280  0.93950  1.0000 -0.2097811624
N   N2        1.0  0.95720  0.70500  0.93950  1.0000 -0.2097811624
N   N3        1.0  0.29500  0.25220  0.93950  1.0000 -0.2097811624
N   N4        1.0  0.25220  0.95720  0.93950  1.0000 -0.2097811624
N   N5        1.0  0.04280  0.29500  0.93950  1.0000 -0.2097811624
N   N6        1.0  0.70500  0.74780  0.93950  1.0000 -0.2097811624
N   N7        1.0  0.04280  0.74780  0.06050  1.0000 -0.2097811624
N   N8        1.0  0.70500  0.95720  0.06050  1.0000 -0.2097811624
N   N9        1.0  0.25220  0.29500  0.06050  1.0000 -0.2097811624
N   N10       1.0  0.95720  0.25220  0.06050  1.0000 -0.2097811624
N   N11       1.0  0.29500  0.04280  0.06050  1.0000 -0.2097811624
N   N12       1.0  0.74780  0.70500  0.06050  1.0000 -0.2097811624
N   N13       1.0  0.59819  0.63320  0.93330  1.0000 -0.2547412973
N   N14       1.0  0.36680  0.96499  0.93330  1.0000 -0.2547412973
N   N15       1.0  0.03501  0.40181  0.93330  1.0000 -0.2547412973
N   N16       1.0  0.40181  0.36680  0.93330  1.0000 -0.2547412973
N   N17       1.0  0.63320  0.03501  0.93330  1.0000 -0.2547412973
N   N18       1.0  0.96499  0.59819  0.93330  1.0000 -0.2547412973
N   N19       1.0  0.63320  0.59819  0.06670  1.0000 -0.2551010411
N   N20       1.0  0.96499  0.36680  0.06670  1.0000 -0.2551010411
N   N21       1.0  0.40181  0.03501  0.06670  1.0000 -0.2551010411
N   N22       1.0  0.36680  0.40181  0.06670  1.0000 -0.2551010411
N   N23       1.0  0.03501  0.63320  0.06670  1.0000 -0.2551010411
N   N24       1.0  0.59819  0.96499  0.06670  1.0000 -0.2551010411
