# DDEC6 charges by PACMAN v1.1 (https://github.com/mtap-research/PACMAN-charge/)
data_2023[Cu][nan]3[ASR]5
_chemical_formula_sum              "Cu12 H90 C204 N18 O60"
_cell_length_a       23.9221
_cell_length_b       23.9221
_cell_length_c       23.9221
_cell_angle_alpha    103.477
_cell_angle_beta     103.477
_cell_angle_gamma    103.477

_symmetry_space_group_name_H-M    "P 1"
_symmetry_Int_Tables_number       1

loop_
  _symmetry_equiv_pos_as_xyz
  'x, y, z'

loop_
  _atom_site_type_symbol
  _atom_site_label
  _atom_site_symmetry_multiplicity
  _atom_site_fract_x
  _atom_site_fract_y
  _atom_site_fract_z
  _atom_site_occupancy
  _atom_site_charge
Cu  Cu1       1.0  0.37186  0.21075  0.95912  1.0000 0.8544084308
Cu  Cu2       1.0  0.21075  0.95912  0.37186  1.0000 0.8557398264
Cu  Cu3       1.0  0.95912  0.37186  0.21075  1.0000 0.8557398264
Cu  Cu4       1.0  0.62814  0.78925  0.04088  1.0000 0.8557398264
Cu  Cu5       1.0  0.78925  0.04088  0.62814  1.0000 0.8544084308
Cu  Cu6       1.0  0.04088  0.62814  0.78925  1.0000 0.8557398264
Cu  Cu7       1.0  0.26931  0.15218  0.96979  1.0000 0.8557398264
Cu  Cu8       1.0  0.15218  0.96979  0.26931  1.0000 0.8544084308
Cu  Cu9       1.0  0.96979  0.26931  0.15218  1.0000 0.8557398264
Cu  Cu10      1.0  0.73069  0.84782  0.03021  1.0000 0.8557398264
Cu  Cu11      1.0  0.84782  0.03021  0.73069  1.0000 0.8557398264
Cu  Cu12      1.0  0.03021  0.73069  0.84782  1.0000 0.8557398264
H   H1        1.0  0.33684  0.11261  0.13603  1.0000 0.14009483
H   H2        1.0  0.11261  0.13603  0.33684  1.0000 0.14009483
H   H3        1.0  0.13603  0.33684  0.11261  1.0000 0.14009483
H   H4        1.0  0.66316  0.88739  0.86397  1.0000 0.14009483
H   H5        1.0  0.88739  0.86397  0.66316  1.0000 0.14009483
H   H6        1.0  0.86397  0.66316  0.88739  1.0000 0.14009483
H   H7        1.0  0.30392  0.07370  0.22878  1.0000 0.14009483
H   H8        1.0  0.07370  0.22878  0.30392  1.0000 0.14009483
H   H9        1.0  0.22878  0.30392  0.07370  1.0000 0.14009483
H   H10       1.0  0.69608  0.92630  0.77122  1.0000 0.14009483
H   H11       1.0  0.92630  0.77122  0.69608  1.0000 0.14009483
H   H12       1.0  0.77122  0.69608  0.92630  1.0000 0.14009483
H   H13       1.0  0.82507  0.14748  0.18055  1.0000 0.1480834652
H   H14       1.0  0.14748  0.18055  0.82507  1.0000 0.1480834652
H   H15       1.0  0.18055  0.82507  0.14748  1.0000 0.1480834652
H   H16       1.0  0.17493  0.85252  0.81945  1.0000 0.1480834652
H   H17       1.0  0.85252  0.81945  0.17493  1.0000 0.1480834652
H   H18       1.0  0.81945  0.17493  0.85252  1.0000 0.1480834652
H   H19       1.0  0.58119  0.10496  0.23877  1.0000 0.14009483
H   H20       1.0  0.10496  0.23877  0.58119  1.0000 0.14009483
H   H21       1.0  0.23877  0.58119  0.10496  1.0000 0.14009483
H   H22       1.0  0.41881  0.89504  0.76123  1.0000 0.14009483
H   H23       1.0  0.89504  0.76123  0.41881  1.0000 0.14009483
H   H24       1.0  0.76123  0.41881  0.89504  1.0000 0.14009483
H   H25       1.0  0.49525  0.18608  0.10757  1.0000 0.1297109361
H   H26       1.0  0.18608  0.10757  0.49525  1.0000 0.1297109361
H   H27       1.0  0.10757  0.49525  0.18608  1.0000 0.1297109361
H   H28       1.0  0.50475  0.81392  0.89243  1.0000 0.1297109361
H   H29       1.0  0.81392  0.89243  0.50475  1.0000 0.1297109361
H   H30       1.0  0.89243  0.50475  0.81392  1.0000 0.1297109361
H   H31       1.0  0.75124  0.02271  0.14207  1.0000 0.1480834652
H   H32       1.0  0.02271  0.14207  0.75124  1.0000 0.1480834652
H   H33       1.0  0.14207  0.75124  0.02271  1.0000 0.1480834652
H   H34       1.0  0.24876  0.97729  0.85793  1.0000 0.1480834652
H   H35       1.0  0.97729  0.85793  0.24876  1.0000 0.1480834652
H   H36       1.0  0.85793  0.24876  0.97729  1.0000 0.1480834652
H   H37       1.0  0.38920  0.06346  0.39075  1.0000 0.14009483
H   H38       1.0  0.06346  0.39075  0.38920  1.0000 0.14009483
H   H39       1.0  0.39075  0.38920  0.06346  1.0000 0.14009483
H   H40       1.0  0.61080  0.93654  0.60925  1.0000 0.14009483
H   H41       1.0  0.93654  0.60925  0.61080  1.0000 0.14009483
H   H42       1.0  0.60925  0.61080  0.93654  1.0000 0.14009483
H   H43       1.0  0.61493  0.92803  0.18664  1.0000 0.14009483
H   H44       1.0  0.92803  0.18664  0.61493  1.0000 0.14009483
H   H45       1.0  0.18664  0.61493  0.92803  1.0000 0.14009483
H   H46       1.0  0.38507  0.07197  0.81336  1.0000 0.14009483
H   H47       1.0  0.07197  0.81336  0.38507  1.0000 0.14009483
H   H48       1.0  0.81336  0.38507  0.07197  1.0000 0.14009483
H   H49       1.0  0.61685  0.01306  0.25695  1.0000 0.14009483
H   H50       1.0  0.01306  0.25695  0.61685  1.0000 0.14009483
H   H51       1.0  0.25695  0.61685  0.01306  1.0000 0.14009483
H   H52       1.0  0.38315  0.98694  0.74305  1.0000 0.14009483
H   H53       1.0  0.98694  0.74305  0.38315  1.0000 0.14009483
H   H54       1.0  0.74305  0.38315  0.98694  1.0000 0.14009483
H   H55       1.0  0.75171  0.25032  0.32599  1.0000 0.14009483
H   H56       1.0  0.25032  0.32599  0.75171  1.0000 0.14009483
H   H57       1.0  0.32599  0.75171  0.25032  1.0000 0.14009483
H   H58       1.0  0.24829  0.74968  0.67401  1.0000 0.14009483
H   H59       1.0  0.74968  0.67401  0.24829  1.0000 0.14009483
H   H60       1.0  0.67401  0.24829  0.74968  1.0000 0.14009483
H   H61       1.0  0.48255  0.10116  0.37804  1.0000 0.14009483
H   H62       1.0  0.10116  0.37804  0.48255  1.0000 0.14009483
H   H63       1.0  0.37804  0.48255  0.10116  1.0000 0.14009483
H   H64       1.0  0.51745  0.89884  0.62196  1.0000 0.14009483
H   H65       1.0  0.89884  0.62196  0.51745  1.0000 0.14009483
H   H66       1.0  0.62196  0.51745  0.89884  1.0000 0.14009483
H   H67       1.0  0.82730  0.30343  0.29389  1.0000 0.14009483
H   H68       1.0  0.30343  0.29389  0.82730  1.0000 0.14009483
H   H69       1.0  0.29389  0.82730  0.30343  1.0000 0.14009483
H   H70       1.0  0.17270  0.69657  0.70611  1.0000 0.14009483
H   H71       1.0  0.69657  0.70611  0.17270  1.0000 0.14009483
H   H72       1.0  0.70611  0.17270  0.69657  1.0000 0.14009483
H   H73       1.0  0.55046  0.18214  0.20046  1.0000 0.1297109361
H   H74       1.0  0.18214  0.20046  0.55046  1.0000 0.1297109361
H   H75       1.0  0.20046  0.55046  0.18214  1.0000 0.1297109361
H   H76       1.0  0.44954  0.81786  0.79954  1.0000 0.1297109361
H   H77       1.0  0.81786  0.79954  0.44954  1.0000 0.1297109361
H   H78       1.0  0.79954  0.44954  0.81786  1.0000 0.1297109361
H   H79       1.0  0.55419  0.20166  0.38944  1.0000 0.1480834652
H   H80       1.0  0.20166  0.38944  0.55419  1.0000 0.1480834652
H   H81       1.0  0.38944  0.55419  0.20166  1.0000 0.1480834652
H   H82       1.0  0.44581  0.79834  0.61056  1.0000 0.1480834652
H   H83       1.0  0.79834  0.61056  0.44581  1.0000 0.1480834652
H   H84       1.0  0.61056  0.44581  0.79834  1.0000 0.1480834652
H   H85       1.0  0.72216  0.18901  0.39401  1.0000 0.14009483
H   H86       1.0  0.18901  0.39401  0.72216  1.0000 0.14009483
H   H87       1.0  0.39401  0.72216  0.18901  1.0000 0.14009483
H   H88       1.0  0.27784  0.81099  0.60599  1.0000 0.14009483
H   H89       1.0  0.81099  0.60599  0.27784  1.0000 0.14009483
H   H90       1.0  0.60599  0.27784  0.81099  1.0000 0.14009483
C   C1        1.0  0.37510  0.15700  0.05430  1.0000 0.5776712839
C   C2        1.0  0.15700  0.05430  0.37510  1.0000 0.5776712839
C   C3        1.0  0.05430  0.37510  0.15700  1.0000 0.5776712839
C   C4        1.0  0.62490  0.84300  0.94570  1.0000 0.5776712839
C   C5        1.0  0.84300  0.94570  0.62490  1.0000 0.5776712839
C   C6        1.0  0.94570  0.62490  0.84300  1.0000 0.5776712839
C   C7        1.0  0.41220  0.12460  0.20380  1.0000 -0.018955709
C   C8        1.0  0.12460  0.20380  0.41220  1.0000 -0.018955709
C   C9        1.0  0.20380  0.41220  0.12460  1.0000 -0.018955709
C   C10       1.0  0.58780  0.87540  0.79620  1.0000 -0.018955709
C   C11       1.0  0.87540  0.79620  0.58780  1.0000 -0.0122444126
C   C12       1.0  0.79620  0.58780  0.87540  1.0000 -0.0122444126
C   C13       1.0  0.88130  0.26710  0.21440  1.0000 0.5638310589
C   C14       1.0  0.26710  0.21440  0.88130  1.0000 0.5638310589
C   C15       1.0  0.21440  0.88130  0.26710  1.0000 0.5650528548
C   C16       1.0  0.11870  0.73290  0.78560  1.0000 0.5650528548
C   C17       1.0  0.73290  0.78560  0.11870  1.0000 0.5638310589
C   C18       1.0  0.78560  0.11870  0.73290  1.0000 0.5650528548
C   C19       1.0  0.68600  0.07000  0.24350  1.0000 0.14009483
C   C20       1.0  0.07000  0.24350  0.68600  1.0000 0.14009483
C   C21       1.0  0.24350  0.68600  0.07000  1.0000 0.14009483
C   C22       1.0  0.31400  0.93000  0.75650  1.0000 0.14009483
C   C23       1.0  0.93000  0.75650  0.31400  1.0000 0.14009483
C   C24       1.0  0.75650  0.31400  0.93000  1.0000 0.14009483
C   C25       1.0  0.27670  0.03100  0.31530  1.0000 0.5776712839
C   C26       1.0  0.03100  0.31530  0.27670  1.0000 0.5776712839
C   C27       1.0  0.31530  0.27670  0.03100  1.0000 0.5776712839
C   C28       1.0  0.72330  0.96900  0.68470  1.0000 0.5776712839
C   C29       1.0  0.96900  0.68470  0.72330  1.0000 0.5776712839
C   C30       1.0  0.68470  0.72330  0.96900  1.0000 0.5776712839
C   C31       1.0  0.67880  0.91070  0.11090  1.0000 0.5776712839
C   C32       1.0  0.91070  0.11090  0.67880  1.0000 0.5776712839
C   C33       1.0  0.11090  0.67880  0.91070  1.0000 0.5776712839
C   C34       1.0  0.32120  0.08930  0.88910  1.0000 0.5776712839
C   C35       1.0  0.08930  0.88910  0.32120  1.0000 0.5776712839
C   C36       1.0  0.88910  0.32120  0.08930  1.0000 0.5776712839
C   C37       1.0  0.72870  0.07270  0.20890  1.0000 0.0010287547
C   C38       1.0  0.07270  0.20890  0.72870  1.0000 0.0010287547
C   C39       1.0  0.20890  0.72870  0.07270  1.0000 -0.0007687435
C   C40       1.0  0.27130  0.92730  0.79110  1.0000 0.0010287547
C   C41       1.0  0.92730  0.79110  0.27130  1.0000 0.0010287547
C   C42       1.0  0.79110  0.27130  0.92730  1.0000 0.0010287547
C   C43       1.0  0.76380  0.13430  0.22740  1.0000 -0.0122444126
C   C44       1.0  0.13430  0.22740  0.76380  1.0000 -0.0122444126
C   C45       1.0  0.22740  0.76380  0.13430  1.0000 -0.0122444126
C   C46       1.0  0.23620  0.86570  0.77260  1.0000 -0.0122444126
C   C47       1.0  0.86570  0.77260  0.23620  1.0000 -0.0122444126
C   C48       1.0  0.77260  0.23620  0.86570  1.0000 -0.0122444126
C   C49       1.0  0.74420  0.16940  0.27280  1.0000 0.1297109361
C   C50       1.0  0.16940  0.27280  0.74420  1.0000 0.1297109361
C   C51       1.0  0.27280  0.74420  0.16940  1.0000 0.1297109361
C   C52       1.0  0.25580  0.83060  0.72720  1.0000 0.1297109361
C   C53       1.0  0.83060  0.72720  0.25580  1.0000 0.1297109361
C   C54       1.0  0.72720  0.25580  0.83060  1.0000 0.1297109361
C   C55       1.0  0.41180  0.15140  0.11260  1.0000 -0.018955709
C   C56       1.0  0.15140  0.11260  0.41180  1.0000 -0.018955709
C   C57       1.0  0.11260  0.41180  0.15140  1.0000 -0.018955709
C   C58       1.0  0.58820  0.84860  0.88740  1.0000 -0.018955709
C   C59       1.0  0.84860  0.88740  0.58820  1.0000 -0.018955709
C   C60       1.0  0.88740  0.58820  0.84860  1.0000 -0.018955709
C   C61       1.0  0.55790  0.15140  0.31060  1.0000 0.1869913044
C   C62       1.0  0.15140  0.31060  0.55790  1.0000 0.1869913044
C   C63       1.0  0.31060  0.55790  0.15140  1.0000 0.1869913044
C   C64       1.0  0.44210  0.84860  0.68940  1.0000 0.1869913044
C   C65       1.0  0.84860  0.68940  0.44210  1.0000 0.1869913044
C   C66       1.0  0.68940  0.44210  0.84860  1.0000 0.1869913044
C   C67       1.0  0.68340  0.96770  0.15880  1.0000 -0.018955709
C   C68       1.0  0.96770  0.15880  0.68340  1.0000 -0.018955709
C   C69       1.0  0.15880  0.68340  0.96770  1.0000 -0.018955709
C   C70       1.0  0.31660  0.03230  0.84120  1.0000 -0.018955709
C   C71       1.0  0.03230  0.84120  0.31660  1.0000 -0.018955709
C   C72       1.0  0.84120  0.31660  0.03230  1.0000 -0.018955709
C   C73       1.0  0.37970  0.12690  0.14910  1.0000 -0.1290780428
C   C74       1.0  0.12690  0.14910  0.37970  1.0000 -0.1290780428
C   C75       1.0  0.14910  0.37970  0.12690  1.0000 -0.1290780428
C   C76       1.0  0.62030  0.87310  0.85090  1.0000 -0.1290780428
C   C77       1.0  0.87310  0.85090  0.62030  1.0000 -0.1290780428
C   C78       1.0  0.85090  0.62030  0.87310  1.0000 -0.1290780428
C   C79       1.0  0.34040  0.07990  0.25910  1.0000 -0.1371532999
C   C80       1.0  0.07990  0.25910  0.34040  1.0000 -0.1371532999
C   C81       1.0  0.25910  0.34040  0.07990  1.0000 -0.1371532999
C   C82       1.0  0.65960  0.92010  0.74090  1.0000 -0.1371532999
C   C83       1.0  0.92010  0.74090  0.65960  1.0000 -0.1371532999
C   C84       1.0  0.74090  0.65960  0.92010  1.0000 -0.1371532999
C   C85       1.0  0.39460  0.10480  0.25110  1.0000 -0.0122444126
C   C86       1.0  0.10480  0.25110  0.39460  1.0000 -0.0122444126
C   C87       1.0  0.25110  0.39460  0.10480  1.0000 -0.0122444126
C   C88       1.0  0.60540  0.89520  0.74890  1.0000 -0.0122444126
C   C89       1.0  0.89520  0.74890  0.60540  1.0000 -0.0122444126
C   C90       1.0  0.74890  0.60540  0.89520  1.0000 -0.0122444126
C   C91       1.0  0.33780  0.06350  0.31170  1.0000 -0.018955709
C   C92       1.0  0.06350  0.31170  0.33780  1.0000 -0.018955709
C   C93       1.0  0.31170  0.33780  0.06350  1.0000 -0.018955709
C   C94       1.0  0.66220  0.93650  0.68830  1.0000 -0.018955709
C   C95       1.0  0.93650  0.68830  0.66220  1.0000 -0.018955709
C   C96       1.0  0.68830  0.66220  0.93650  1.0000 -0.018955709
C   C97       1.0  0.80970  0.16800  0.20960  1.0000 -0.1371532999
C   C98       1.0  0.16800  0.20960  0.80970  1.0000 -0.1371532999
C   C99       1.0  0.20960  0.80970  0.16800  1.0000 -0.1371532999
C   C100      1.0  0.19030  0.83200  0.79040  1.0000 -0.1371532999
C   C101      1.0  0.83200  0.79040  0.19030  1.0000 -0.1371532999
C   C102      1.0  0.79040  0.19030  0.83200  1.0000 -0.1371532999
C   C103      1.0  0.59610  0.12930  0.27980  1.0000 -0.2849159065
C   C104      1.0  0.12930  0.27980  0.59610  1.0000 -0.2901375922
C   C105      1.0  0.27980  0.59610  0.12930  1.0000 -0.2849159065
C   C106      1.0  0.40390  0.87070  0.72020  1.0000 -0.2901375922
C   C107      1.0  0.87070  0.72020  0.40390  1.0000 -0.2901375922
C   C108      1.0  0.72020  0.40390  0.87070  1.0000 -0.2901375922
C   C109      1.0  0.44700  0.11330  0.29610  1.0000 0.1193997924
C   C110      1.0  0.11330  0.29610  0.44700  1.0000 0.1193997924
C   C111      1.0  0.29610  0.44700  0.11330  1.0000 0.1193997924
C   C112      1.0  0.55300  0.88670  0.70390  1.0000 0.1193997924
C   C113      1.0  0.88670  0.70390  0.55300  1.0000 0.1193997924
C   C114      1.0  0.70390  0.55300  0.88670  1.0000 0.1193997924
C   C115      1.0  0.47420  0.14430  0.22170  1.0000 0.1193997924
C   C116      1.0  0.14430  0.22170  0.47420  1.0000 0.1193997924
C   C117      1.0  0.22170  0.47420  0.14430  1.0000 0.1124651459
C   C118      1.0  0.52580  0.85570  0.77830  1.0000 0.1193997924
C   C119      1.0  0.85570  0.77830  0.52580  1.0000 0.1193997924
C   C120      1.0  0.77830  0.52580  0.85570  1.0000 0.1124651459
C   C121      1.0  0.83300  0.23000  0.23350  1.0000 -0.0122444126
C   C122      1.0  0.23000  0.23350  0.83300  1.0000 -0.0122444126
C   C123      1.0  0.23350  0.83300  0.23000  1.0000 -0.0122444126
C   C124      1.0  0.16700  0.77000  0.76650  1.0000 -0.0122444126
C   C125      1.0  0.77000  0.76650  0.16700  1.0000 -0.0122444126
C   C126      1.0  0.76650  0.16700  0.77000  1.0000 -0.0122444126
C   C127      1.0  0.47430  0.17060  0.13260  1.0000 -0.0800899939
C   C128      1.0  0.17060  0.13260  0.47430  1.0000 -0.0800899939
C   C129      1.0  0.13260  0.47430  0.17060  1.0000 -0.0800899939
C   C130      1.0  0.52570  0.82940  0.86740  1.0000 -0.0800899939
C   C131      1.0  0.82940  0.86740  0.52570  1.0000 -0.0800899939
C   C132      1.0  0.86740  0.52570  0.82940  1.0000 -0.0800899939
C   C133      1.0  0.72500  0.02120  0.16630  1.0000 -0.1290780428
C   C134      1.0  0.02120  0.16630  0.72500  1.0000 -0.1290780428
C   C135      1.0  0.16630  0.72500  0.02120  1.0000 -0.1290780428
C   C136      1.0  0.27500  0.97880  0.83370  1.0000 -0.1290780428
C   C137      1.0  0.97880  0.83370  0.27500  1.0000 -0.1290780428
C   C138      1.0  0.83370  0.27500  0.97880  1.0000 -0.1290780428
C   C139      1.0  0.39080  0.07330  0.35480  1.0000 -0.0800899939
C   C140      1.0  0.07330  0.35480  0.39080  1.0000 -0.0800899939
C   C141      1.0  0.35480  0.39080  0.07330  1.0000 -0.0800899939
C   C142      1.0  0.60920  0.92670  0.64520  1.0000 -0.0800899939
C   C143      1.0  0.92670  0.64520  0.60920  1.0000 -0.0800899939
C   C144      1.0  0.64520  0.60920  0.92670  1.0000 -0.0800899939
C   C145      1.0  0.64360  0.96550  0.19270  1.0000 -0.0870549865
C   C146      1.0  0.96550  0.19270  0.64360  1.0000 -0.0870549865
C   C147      1.0  0.19270  0.64360  0.96550  1.0000 -0.0870549865
C   C148      1.0  0.35640  0.03450  0.80730  1.0000 -0.0870549865
C   C149      1.0  0.03450  0.80730  0.35640  1.0000 -0.0870549865
C   C150      1.0  0.80730  0.35640  0.03450  1.0000 -0.0870549865
C   C151      1.0  0.65730  0.14570  0.31380  1.0000 0.2077427459
C   C152      1.0  0.14570  0.31380  0.65730  1.0000 0.2077427459
C   C153      1.0  0.31380  0.65730  0.14570  1.0000 0.2077427459
C   C154      1.0  0.34270  0.85430  0.68620  1.0000 0.2077427459
C   C155      1.0  0.85430  0.68620  0.34270  1.0000 0.2077427459
C   C156      1.0  0.68620  0.34270  0.85430  1.0000 0.2077427459
C   C157      1.0  0.64460  0.01560  0.23430  1.0000 -0.1900229924
C   C158      1.0  0.01560  0.23430  0.64460  1.0000 -0.1900229924
C   C159      1.0  0.23430  0.64460  0.01560  1.0000 -0.1900229924
C   C160      1.0  0.35540  0.98440  0.76570  1.0000 -0.1900229924
C   C161      1.0  0.98440  0.76570  0.35540  1.0000 -0.1900229924
C   C162      1.0  0.76570  0.35540  0.98440  1.0000 -0.1900229924
C   C163      1.0  0.76640  0.22940  0.29650  1.0000 -0.1818237483
C   C164      1.0  0.22940  0.29650  0.76640  1.0000 -0.1818237483
C   C165      1.0  0.29650  0.76640  0.22940  1.0000 -0.1818237483
C   C166      1.0  0.23360  0.77060  0.70350  1.0000 -0.1818237483
C   C167      1.0  0.77060  0.70350  0.23360  1.0000 -0.1818237483
C   C168      1.0  0.70350  0.23360  0.77060  1.0000 -0.1818237483
C   C169      1.0  0.44620  0.09660  0.34840  1.0000 -0.1900229924
C   C170      1.0  0.09660  0.34840  0.44620  1.0000 -0.1900229924
C   C171      1.0  0.34840  0.44620  0.09660  1.0000 -0.1900229924
C   C172      1.0  0.55380  0.90340  0.65160  1.0000 -0.1900229924
C   C173      1.0  0.90340  0.65160  0.55380  1.0000 -0.1900229924
C   C174      1.0  0.65160  0.55380  0.90340  1.0000 -0.1900229924
C   C175      1.0  0.81120  0.26080  0.27730  1.0000 -0.0800899939
C   C176      1.0  0.26080  0.27730  0.81120  1.0000 -0.0800899939
C   C177      1.0  0.27730  0.81120  0.26080  1.0000 -0.0870549865
C   C178      1.0  0.18880  0.73920  0.72270  1.0000 -0.0870549865
C   C179      1.0  0.73920  0.72270  0.18880  1.0000 -0.0870549865
C   C180      1.0  0.72270  0.18880  0.73920  1.0000 -0.0800899939
C   C181      1.0  0.50750  0.16830  0.18720  1.0000 -0.203921062
C   C182      1.0  0.16830  0.18720  0.50750  1.0000 -0.2054737839
C   C183      1.0  0.18720  0.50750  0.16830  1.0000 -0.2054737839
C   C184      1.0  0.49250  0.83170  0.81280  1.0000 -0.2054737839
C   C185      1.0  0.83170  0.81280  0.49250  1.0000 -0.2054737839
C   C186      1.0  0.81280  0.49250  0.83170  1.0000 -0.2054737839
C   C187      1.0  0.57970  0.18610  0.36930  1.0000 -0.2448490086
C   C188      1.0  0.18610  0.36930  0.57970  1.0000 -0.2448490086
C   C189      1.0  0.36930  0.57970  0.18610  1.0000 -0.2460703078
C   C190      1.0  0.42030  0.81390  0.63070  1.0000 -0.2448490086
C   C191      1.0  0.81390  0.63070  0.42030  1.0000 -0.2448490086
C   C192      1.0  0.63070  0.42030  0.81390  1.0000 -0.2448490086
C   C193      1.0  0.63670  0.19750  0.39720  1.0000 0.077325918
C   C194      1.0  0.19750  0.39720  0.63670  1.0000 0.0857844976
C   C195      1.0  0.39720  0.63670  0.19750  1.0000 0.077325918
C   C196      1.0  0.36330  0.80250  0.60280  1.0000 0.077325918
C   C197      1.0  0.80250  0.60280  0.36330  1.0000 0.0857844976
C   C198      1.0  0.60280  0.36330  0.80250  1.0000 0.0857844976
C   C199      1.0  0.68080  0.17880  0.37180  1.0000 -0.2901375922
C   C200      1.0  0.17880  0.37180  0.68080  1.0000 -0.2901375922
C   C201      1.0  0.37180  0.68080  0.17880  1.0000 -0.2901375922
C   C202      1.0  0.31920  0.82120  0.62820  1.0000 -0.2901375922
C   C203      1.0  0.82120  0.62820  0.31920  1.0000 -0.2901375922
C   C204      1.0  0.62820  0.31920  0.82120  1.0000 -0.2901375922
N   N1        1.0  0.69780  0.12690  0.28280  1.0000 -0.0870549865
N   N2        1.0  0.12690  0.28280  0.69780  1.0000 -0.0870549865
N   N3        1.0  0.28280  0.69780  0.12690  1.0000 -0.0870549865
N   N4        1.0  0.30220  0.87310  0.71720  1.0000 -0.0800899939
N   N5        1.0  0.87310  0.71720  0.30220  1.0000 -0.0870549865
N   N6        1.0  0.71720  0.30220  0.87310  1.0000 -0.0870549865
N   N7        1.0  0.49641  0.13820  0.27849  1.0000 -0.0710518048
N   N8        1.0  0.13820  0.27849  0.49641  1.0000 -0.0710518048
N   N9        1.0  0.27849  0.49641  0.13820  1.0000 -0.0710518048
N   N10       1.0  0.50359  0.86180  0.72151  1.0000 -0.0710518048
N   N11       1.0  0.86180  0.72151  0.50359  1.0000 -0.0710518048
N   N12       1.0  0.72151  0.50359  0.86180  1.0000 -0.0710518048
N   N13       1.0  0.65520  0.22790  0.44580  1.0000 0.2911014981
N   N14       1.0  0.22790  0.44580  0.65520  1.0000 0.2911014981
N   N15       1.0  0.44580  0.65520  0.22790  1.0000 0.2911014981
N   N16       1.0  0.34480  0.77210  0.55420  1.0000 0.2911014981
N   N17       1.0  0.77210  0.55420  0.34480  1.0000 0.2911014981
N   N18       1.0  0.55420  0.34480  0.77210  1.0000 0.2911014981
O   O1        1.0  0.31897  0.13989  0.04024  1.0000 -0.5147164824
O   O2        1.0  0.13989  0.04024  0.31897  1.0000 -0.5147164824
O   O3        1.0  0.04024  0.31897  0.13989  1.0000 -0.5213479777
O   O4        1.0  0.68103  0.86011  0.95976  1.0000 -0.5147164824
O   O5        1.0  0.86011  0.95976  0.68103  1.0000 -0.5147164824
O   O6        1.0  0.95976  0.68103  0.86011  1.0000 -0.5147164824
O   O7        1.0  0.23141  0.01890  0.27279  1.0000 -0.4902585122
O   O8        1.0  0.01890  0.27279  0.23141  1.0000 -0.4902585122
O   O9        1.0  0.27279  0.23141  0.01890  1.0000 -0.4902585122
O   O10       1.0  0.76859  0.98110  0.72721  1.0000 -0.4902585122
O   O11       1.0  0.98110  0.72721  0.76859  1.0000 -0.4902585122
O   O12       1.0  0.72721  0.76859  0.98110  1.0000 -0.4902585122
O   O13       1.0  0.27984  0.01926  0.36524  1.0000 -0.5342452767
O   O14       1.0  0.01926  0.36524  0.27984  1.0000 -0.5396477532
O   O15       1.0  0.36524  0.27984  0.01926  1.0000 -0.5342452767
O   O16       1.0  0.72016  0.98074  0.63476  1.0000 -0.5342452767
O   O17       1.0  0.98074  0.63476  0.72016  1.0000 -0.5342452767
O   O18       1.0  0.63476  0.72016  0.98074  1.0000 -0.5342452767
O   O19       1.0  0.89645  0.32086  0.23366  1.0000 -0.4566579583
O   O20       1.0  0.32086  0.23366  0.89645  1.0000 -0.4566579583
O   O21       1.0  0.23366  0.89645  0.32086  1.0000 -0.4566579583
O   O22       1.0  0.10355  0.67914  0.76634  1.0000 -0.4566579583
O   O23       1.0  0.67914  0.76634  0.10355  1.0000 -0.4566579583
O   O24       1.0  0.76634  0.10355  0.67914  1.0000 -0.4566579583
O   O25       1.0  0.63712  0.86330  0.10071  1.0000 -0.5213479777
O   O26       1.0  0.86330  0.10071  0.63712  1.0000 -0.5213479777
O   O27       1.0  0.10071  0.63712  0.86330  1.0000 -0.5213479777
O   O28       1.0  0.36288  0.13670  0.89929  1.0000 -0.5213479777
O   O29       1.0  0.13670  0.89929  0.36288  1.0000 -0.5213479777
O   O30       1.0  0.89929  0.36288  0.13670  1.0000 -0.5213479777
O   O31       1.0  0.40824  0.18253  0.02560  1.0000 -0.5526149792
O   O32       1.0  0.18253  0.02560  0.40824  1.0000 -0.5526149792
O   O33       1.0  0.02560  0.40824  0.18253  1.0000 -0.5526149792
O   O34       1.0  0.59176  0.81747  0.97440  1.0000 -0.5526149792
O   O35       1.0  0.81747  0.97440  0.59176  1.0000 -0.5526149792
O   O36       1.0  0.97440  0.59176  0.81747  1.0000 -0.5526149792
O   O37       1.0  0.71982  0.91739  0.08443  1.0000 -0.5396477532
O   O38       1.0  0.91739  0.08443  0.71982  1.0000 -0.5396477532
O   O39       1.0  0.08443  0.71982  0.91739  1.0000 -0.5396477532
O   O40       1.0  0.28018  0.08261  0.91557  1.0000 -0.5396477532
O   O41       1.0  0.08261  0.91557  0.28018  1.0000 -0.5396477532
O   O42       1.0  0.91557  0.28018  0.08261  1.0000 -0.5396477532
O   O43       1.0  0.89831  0.23255  0.17413  1.0000 -0.5526149792
O   O44       1.0  0.23255  0.17413  0.89831  1.0000 -0.5526149792
O   O45       1.0  0.17413  0.89831  0.23255  1.0000 -0.5526149792
O   O46       1.0  0.10169  0.76745  0.82587  1.0000 -0.5526149792
O   O47       1.0  0.76745  0.82587  0.10169  1.0000 -0.5526149792
O   O48       1.0  0.82587  0.10169  0.76745  1.0000 -0.5526149792
O   O49       1.0  0.70060  0.24960  0.48130  1.0000 -0.1900229924
O   O50       1.0  0.24960  0.48130  0.70060  1.0000 -0.1818237483
O   O51       1.0  0.48130  0.70060  0.24960  1.0000 -0.1900229924
O   O52       1.0  0.29940  0.75040  0.51870  1.0000 -0.1900229924
O   O53       1.0  0.75040  0.51870  0.29940  1.0000 -0.1738359156
O   O54       1.0  0.51870  0.29940  0.75040  1.0000 -0.1818237483
O   O55       1.0  0.62530  0.25690  0.48930  1.0000 -0.3199681662
O   O56       1.0  0.25690  0.48930  0.62530  1.0000 -0.3259954872
O   O57       1.0  0.48930  0.62530  0.25690  1.0000 -0.3092362705
O   O58       1.0  0.37470  0.74310  0.51070  1.0000 -0.3199681662
O   O59       1.0  0.74310  0.51070  0.37470  1.0000 -0.3092362705
O   O60       1.0  0.51070  0.37470  0.74310  1.0000 -0.3199681662
