# DDEC6 charges by PACMAN v1.1 (https://github.com/mtap-research/PACMAN-charge/)
data_2023[Eu][lvt]3[ASR]1
_chemical_formula_sum              "Eu16 H80 C240 N32 O144"
_cell_length_a       10.9237
_cell_length_b       16.9081
_cell_length_c       67.617
_cell_angle_alpha    90
_cell_angle_beta     90
_cell_angle_gamma    90

_symmetry_space_group_name_H-M    "P 1"
_symmetry_Int_Tables_number       1

loop_
  _symmetry_equiv_pos_as_xyz
  'x, y, z'

loop_
  _atom_site_type_symbol
  _atom_site_label
  _atom_site_symmetry_multiplicity
  _atom_site_fract_x
  _atom_site_fract_y
  _atom_site_fract_z
  _atom_site_occupancy
  _atom_site_charge
Eu  Eu1       1.0  0.39869  0.60920  0.72633  1.0000 2.031693494
Eu  Eu2       1.0  0.10131  0.89080  0.22633  1.0000 2.031693494
Eu  Eu3       1.0  0.60131  0.60920  0.77367  1.0000 2.031693494
Eu  Eu4       1.0  0.89869  0.89080  0.27367  1.0000 2.031693494
Eu  Eu5       1.0  0.60131  0.39080  0.27367  1.0000 2.031693494
Eu  Eu6       1.0  0.89869  0.10920  0.77367  1.0000 2.031693494
Eu  Eu7       1.0  0.39869  0.39080  0.22633  1.0000 2.031693494
Eu  Eu8       1.0  0.10131  0.10920  0.72633  1.0000 2.031693494
Eu  Eu9       1.0  0.40577  0.49010  0.52584  1.0000 2.0684893585
Eu  Eu10      1.0  0.09423  0.00990  0.02584  1.0000 2.0639896449
Eu  Eu11      1.0  0.59423  0.49010  0.97416  1.0000 2.0684893585
Eu  Eu12      1.0  0.90577  0.00990  0.47416  1.0000 2.0684893585
Eu  Eu13      1.0  0.59423  0.50990  0.47416  1.0000 2.0684893585
Eu  Eu14      1.0  0.90577  0.99010  0.97416  1.0000 2.0684893585
Eu  Eu15      1.0  0.40577  0.50990  0.02584  1.0000 2.0684893585
Eu  Eu16      1.0  0.09423  0.99010  0.52584  1.0000 2.0639896449
H   H1        1.0  0.76763  0.25710  0.49714  1.0000 0.1315057172
H   H2        1.0  0.73237  0.24290  0.99714  1.0000 0.1315057172
H   H3        1.0  0.23237  0.25710  0.00286  1.0000 0.1315057172
H   H4        1.0  0.26763  0.24290  0.50286  1.0000 0.1315057172
H   H5        1.0  0.23237  0.74290  0.50286  1.0000 0.1315057172
H   H6        1.0  0.26763  0.75710  0.00286  1.0000 0.1315057172
H   H7        1.0  0.76763  0.74290  0.99714  1.0000 0.1315057172
H   H8        1.0  0.73237  0.75710  0.49714  1.0000 0.1315057172
H   H9        1.0  0.86579  0.17871  0.55074  1.0000 0.1315057172
H   H10       1.0  0.63421  0.32129  0.05074  1.0000 0.1315057172
H   H11       1.0  0.13421  0.17871  0.94926  1.0000 0.1315057172
H   H12       1.0  0.36579  0.32129  0.44926  1.0000 0.1315057172
H   H13       1.0  0.13421  0.82129  0.44926  1.0000 0.1315057172
H   H14       1.0  0.36579  0.67871  0.94926  1.0000 0.1315057172
H   H15       1.0  0.86579  0.82129  0.05074  1.0000 0.1315057172
H   H16       1.0  0.63421  0.67871  0.55074  1.0000 0.1315057172
H   H17       1.0  0.67534  0.38092  0.54577  1.0000 0.1410257799
H   H18       1.0  0.82466  0.11908  0.04577  1.0000 0.1410257799
H   H19       1.0  0.32466  0.38092  0.95423  1.0000 0.1410257799
H   H20       1.0  0.17534  0.11908  0.45423  1.0000 0.1410257799
H   H21       1.0  0.32466  0.61908  0.45423  1.0000 0.1410257799
H   H22       1.0  0.17534  0.88092  0.95423  1.0000 0.1410257799
H   H23       1.0  0.67534  0.61908  0.04577  1.0000 0.1410257799
H   H24       1.0  0.82466  0.88092  0.54577  1.0000 0.1410257799
H   H25       1.0  0.55769  0.17075  0.61018  1.0000 0.1315057172
H   H26       1.0  0.94231  0.32925  0.11018  1.0000 0.1315057172
H   H27       1.0  0.44231  0.17075  0.88982  1.0000 0.1315057172
H   H28       1.0  0.05769  0.32925  0.38982  1.0000 0.1315057172
H   H29       1.0  0.44231  0.82925  0.38982  1.0000 0.1315057172
H   H30       1.0  0.05769  0.67075  0.88982  1.0000 0.1315057172
H   H31       1.0  0.55769  0.82925  0.11018  1.0000 0.1315057172
H   H32       1.0  0.94231  0.67075  0.61018  1.0000 0.1315057172
H   H33       1.0  0.99094  0.43920  0.63924  1.0000 0.1315057172
H   H34       1.0  0.50906  0.06080  0.13924  1.0000 0.1315057172
H   H35       1.0  0.00906  0.43920  0.86076  1.0000 0.1315057172
H   H36       1.0  0.49094  0.06080  0.36076  1.0000 0.1315057172
H   H37       1.0  0.00906  0.56080  0.36076  1.0000 0.1315057172
H   H38       1.0  0.49094  0.93920  0.86076  1.0000 0.1315057172
H   H39       1.0  0.99094  0.56080  0.13924  1.0000 0.1315057172
H   H40       1.0  0.50906  0.93920  0.63924  1.0000 0.1315057172
H   H41       1.0  0.55858  0.18352  0.64471  1.0000 0.1315057172
H   H42       1.0  0.94142  0.31648  0.14471  1.0000 0.1315057172
H   H43       1.0  0.44142  0.18352  0.85529  1.0000 0.1315057172
H   H44       1.0  0.05858  0.31648  0.35529  1.0000 0.1315057172
H   H45       1.0  0.44142  0.81648  0.35529  1.0000 0.1315057172
H   H46       1.0  0.05858  0.68352  0.85529  1.0000 0.1315057172
H   H47       1.0  0.55858  0.81648  0.14471  1.0000 0.1315057172
H   H48       1.0  0.94142  0.68352  0.64471  1.0000 0.1315057172
H   H49       1.0  0.85463  0.23688  0.70519  1.0000 0.1410257799
H   H50       1.0  0.64537  0.26312  0.20519  1.0000 0.1410257799
H   H51       1.0  0.14537  0.23688  0.79481  1.0000 0.1410257799
H   H52       1.0  0.35463  0.26312  0.29481  1.0000 0.1410257799
H   H53       1.0  0.14537  0.76312  0.29481  1.0000 0.1410257799
H   H54       1.0  0.35463  0.73688  0.79481  1.0000 0.1410257799
H   H55       1.0  0.85463  0.76312  0.20519  1.0000 0.1410257799
H   H56       1.0  0.64537  0.73688  0.70519  1.0000 0.1410257799
H   H57       1.0  0.75091  0.36688  0.75186  1.0000 0.1315057172
H   H58       1.0  0.74909  0.13312  0.25186  1.0000 0.1315057172
H   H59       1.0  0.24909  0.36688  0.74814  1.0000 0.1315057172
H   H60       1.0  0.25091  0.13312  0.24814  1.0000 0.1315057172
H   H61       1.0  0.24909  0.63312  0.24814  1.0000 0.1315057172
H   H62       1.0  0.25091  0.86688  0.74814  1.0000 0.1315057172
H   H63       1.0  0.75091  0.63312  0.25186  1.0000 0.1315057172
H   H64       1.0  0.74909  0.86688  0.75186  1.0000 0.1315057172
H   H65       1.0  0.66271  0.43589  0.69698  1.0000 0.1410257799
H   H66       1.0  0.83729  0.06411  0.19698  1.0000 0.1410257799
H   H67       1.0  0.33729  0.43589  0.80302  1.0000 0.1410257799
H   H68       1.0  0.16271  0.06411  0.30302  1.0000 0.1410257799
H   H69       1.0  0.33729  0.56411  0.30302  1.0000 0.1410257799
H   H70       1.0  0.16271  0.93589  0.80302  1.0000 0.1410257799
H   H71       1.0  0.66271  0.56411  0.19698  1.0000 0.1410257799
H   H72       1.0  0.83729  0.93589  0.69698  1.0000 0.1410257799
H   H73       1.0  0.99576  0.42285  0.60464  1.0000 0.1315057172
H   H74       1.0  0.50424  0.07715  0.10464  1.0000 0.1315057172
H   H75       1.0  0.00424  0.42285  0.89536  1.0000 0.1315057172
H   H76       1.0  0.49576  0.07715  0.39536  1.0000 0.1315057172
H   H77       1.0  0.00424  0.57715  0.39536  1.0000 0.1315057172
H   H78       1.0  0.49576  0.92285  0.89536  1.0000 0.1315057172
H   H79       1.0  0.99576  0.57715  0.10464  1.0000 0.1315057172
H   H80       1.0  0.50424  0.92285  0.60464  1.0000 0.1315057172
C   C1        1.0  0.87980  0.13310  0.51370  1.0000 0.6561433332
C   C2        1.0  0.62020  0.36690  0.01370  1.0000 0.6561433332
C   C3        1.0  0.12020  0.13310  0.98630  1.0000 0.6561433332
C   C4        1.0  0.37980  0.36690  0.48630  1.0000 0.6561433332
C   C5        1.0  0.12020  0.86690  0.48630  1.0000 0.6561433332
C   C6        1.0  0.37980  0.63310  0.98630  1.0000 0.6561433332
C   C7        1.0  0.87980  0.86690  0.01370  1.0000 0.6561433332
C   C8        1.0  0.62020  0.63310  0.51370  1.0000 0.6561433332
C   C9        1.0  0.82000  0.20520  0.52269  1.0000 -0.0045100599
C   C10       1.0  0.68000  0.29480  0.02269  1.0000 -0.0045100599
C   C11       1.0  0.18000  0.20520  0.97731  1.0000 -0.0045100599
C   C12       1.0  0.32000  0.29480  0.47731  1.0000 -0.0045100599
C   C13       1.0  0.18000  0.79480  0.47731  1.0000 -0.0045100599
C   C14       1.0  0.32000  0.70520  0.97731  1.0000 -0.0045100599
C   C15       1.0  0.82000  0.79480  0.02269  1.0000 -0.0045100599
C   C16       1.0  0.68000  0.70520  0.52269  1.0000 -0.0045100599
C   C17       1.0  0.76780  0.26310  0.51081  1.0000 -0.1098169265
C   C18       1.0  0.73220  0.23690  0.01081  1.0000 -0.1098169265
C   C19       1.0  0.23220  0.26310  0.98919  1.0000 -0.1098169265
C   C20       1.0  0.26780  0.23690  0.48919  1.0000 -0.1098169265
C   C21       1.0  0.23220  0.73690  0.48919  1.0000 -0.1098169265
C   C22       1.0  0.26780  0.76310  0.98919  1.0000 -0.1098169265
C   C23       1.0  0.76780  0.73690  0.01081  1.0000 -0.1098169265
C   C24       1.0  0.73220  0.76310  0.51081  1.0000 -0.1098169265
C   C25       1.0  0.71550  0.33010  0.51933  1.0000 -0.0045100599
C   C26       1.0  0.78450  0.16990  0.01933  1.0000 -0.0056790527
C   C27       1.0  0.28450  0.33010  0.98067  1.0000 -0.0045100599
C   C28       1.0  0.21550  0.16990  0.48067  1.0000 -0.0056790527
C   C29       1.0  0.28450  0.66990  0.48067  1.0000 -0.0056790527
C   C30       1.0  0.21550  0.83010  0.98067  1.0000 -0.0045100599
C   C31       1.0  0.71550  0.66990  0.01933  1.0000 -0.0045100599
C   C32       1.0  0.78450  0.83010  0.51933  1.0000 -0.0045100599
C   C33       1.0  0.66870  0.39520  0.50629  1.0000 0.6394715068
C   C34       1.0  0.83130  0.10480  0.00629  1.0000 0.6394715068
C   C35       1.0  0.33130  0.39520  0.99371  1.0000 0.6394715068
C   C36       1.0  0.16870  0.10480  0.49371  1.0000 0.6394715068
C   C37       1.0  0.33130  0.60480  0.49371  1.0000 0.6394715068
C   C38       1.0  0.16870  0.89520  0.99371  1.0000 0.6394715068
C   C39       1.0  0.66870  0.60480  0.00629  1.0000 0.6394715068
C   C40       1.0  0.83130  0.89520  0.50629  1.0000 0.6394715068
C   C41       1.0  0.82510  0.21540  0.54287  1.0000 -0.138663711
C   C42       1.0  0.67490  0.28460  0.04287  1.0000 -0.138663711
C   C43       1.0  0.17490  0.21540  0.95713  1.0000 -0.138663711
C   C44       1.0  0.32510  0.28460  0.45713  1.0000 -0.138663711
C   C45       1.0  0.17490  0.78460  0.45713  1.0000 -0.138663711
C   C46       1.0  0.32510  0.71540  0.95713  1.0000 -0.138663711
C   C47       1.0  0.82510  0.78460  0.04287  1.0000 -0.138663711
C   C48       1.0  0.67490  0.71540  0.54287  1.0000 -0.138663711
C   C49       1.0  0.76930  0.28030  0.55137  1.0000 0.1725125593
C   C50       1.0  0.73070  0.21970  0.05137  1.0000 0.1725125593
C   C51       1.0  0.23070  0.28030  0.94863  1.0000 0.1725125593
C   C52       1.0  0.26930  0.21970  0.44863  1.0000 0.1725125593
C   C53       1.0  0.23070  0.71970  0.44863  1.0000 0.1725125593
C   C54       1.0  0.26930  0.78030  0.94863  1.0000 0.1725125593
C   C55       1.0  0.76930  0.71970  0.05137  1.0000 0.1725125593
C   C56       1.0  0.73070  0.78030  0.55137  1.0000 0.1725125593
C   C57       1.0  0.71360  0.33780  0.53987  1.0000 -0.1595757175
C   C58       1.0  0.78640  0.16220  0.03987  1.0000 -0.1595757175
C   C59       1.0  0.28640  0.33780  0.96013  1.0000 -0.1595757175
C   C60       1.0  0.21360  0.16220  0.46013  1.0000 -0.1595757175
C   C61       1.0  0.28640  0.66220  0.46013  1.0000 -0.1595757175
C   C62       1.0  0.21360  0.83780  0.96013  1.0000 -0.1595757175
C   C63       1.0  0.71360  0.66220  0.03987  1.0000 -0.1595757175
C   C64       1.0  0.78640  0.83780  0.53987  1.0000 -0.1595757175
C   C65       1.0  0.86040  0.33580  0.58114  1.0000 0.4314549759
C   C66       1.0  0.63960  0.16420  0.08114  1.0000 0.4314549759
C   C67       1.0  0.13960  0.33580  0.91886  1.0000 0.4314549759
C   C68       1.0  0.36040  0.16420  0.41886  1.0000 0.4314549759
C   C69       1.0  0.13960  0.66420  0.41886  1.0000 0.4314549759
C   C70       1.0  0.36040  0.83580  0.91886  1.0000 0.4314549759
C   C71       1.0  0.86040  0.66420  0.08114  1.0000 0.4314549759
C   C72       1.0  0.63960  0.83580  0.58114  1.0000 0.4314549759
C   C73       1.0  0.68940  0.24040  0.58342  1.0000 0.4314549759
C   C74       1.0  0.81060  0.25960  0.08342  1.0000 0.4314549759
C   C75       1.0  0.31060  0.24040  0.91658  1.0000 0.4314549759
C   C76       1.0  0.18940  0.25960  0.41658  1.0000 0.4314549759
C   C77       1.0  0.31060  0.75960  0.41658  1.0000 0.4314549759
C   C78       1.0  0.18940  0.74040  0.91658  1.0000 0.4314549759
C   C79       1.0  0.68940  0.75960  0.08342  1.0000 0.4314549759
C   C80       1.0  0.81060  0.74040  0.58342  1.0000 0.4314549759
C   C81       1.0  0.86270  0.34190  0.60320  1.0000 -0.0489589543
C   C82       1.0  0.63730  0.15810  0.10320  1.0000 -0.0489589543
C   C83       1.0  0.13730  0.34190  0.89680  1.0000 -0.0489589543
C   C84       1.0  0.36270  0.15810  0.39680  1.0000 -0.0489589543
C   C85       1.0  0.13730  0.65810  0.39680  1.0000 -0.0489589543
C   C86       1.0  0.36270  0.84190  0.89680  1.0000 -0.0489589543
C   C87       1.0  0.86270  0.65810  0.10320  1.0000 -0.0489589543
C   C88       1.0  0.63730  0.84190  0.60320  1.0000 -0.0489589543
C   C89       1.0  0.77990  0.29800  0.61421  1.0000 0.0340240776
C   C90       1.0  0.72010  0.20200  0.11421  1.0000 0.0340240776
C   C91       1.0  0.22010  0.29800  0.88579  1.0000 0.0340240776
C   C92       1.0  0.27990  0.20200  0.38579  1.0000 0.0340240776
C   C93       1.0  0.22010  0.70200  0.38579  1.0000 0.0340240776
C   C94       1.0  0.27990  0.79800  0.88579  1.0000 0.0340240776
C   C95       1.0  0.77990  0.70200  0.11421  1.0000 0.0340240776
C   C96       1.0  0.72010  0.79800  0.61421  1.0000 0.0340240776
C   C97       1.0  0.69490  0.24740  0.60527  1.0000 -0.0595507607
C   C98       1.0  0.80510  0.25260  0.10527  1.0000 -0.0595507607
C   C99       1.0  0.30510  0.24740  0.89473  1.0000 -0.0595507607
C   C100      1.0  0.19490  0.25260  0.39473  1.0000 -0.0595507607
C   C101      1.0  0.30510  0.75260  0.39473  1.0000 -0.0595507607
C   C102      1.0  0.19490  0.74740  0.89473  1.0000 -0.0595507607
C   C103      1.0  0.69490  0.75260  0.10527  1.0000 -0.0595507607
C   C104      1.0  0.80510  0.74740  0.60527  1.0000 -0.0595507607
C   C105      1.0  0.61300  0.20460  0.61631  1.0000 -0.0774722005
C   C106      1.0  0.88700  0.29540  0.11631  1.0000 -0.0774722005
C   C107      1.0  0.38700  0.20460  0.88369  1.0000 -0.0774722005
C   C108      1.0  0.11300  0.29540  0.38369  1.0000 -0.0774722005
C   C109      1.0  0.38700  0.79540  0.38369  1.0000 -0.0774722005
C   C110      1.0  0.11300  0.70460  0.88369  1.0000 -0.0774722005
C   C111      1.0  0.61300  0.79540  0.11631  1.0000 -0.0774722005
C   C112      1.0  0.88700  0.70460  0.61631  1.0000 -0.0774722005
C   C113      1.0  0.93850  0.40340  0.63314  1.0000 -0.0774722005
C   C114      1.0  0.56150  0.09660  0.13314  1.0000 -0.0774722005
C   C115      1.0  0.06150  0.40340  0.86686  1.0000 -0.0774722005
C   C116      1.0  0.43850  0.09660  0.36686  1.0000 -0.0774722005
C   C117      1.0  0.06150  0.59660  0.36686  1.0000 -0.0774722005
C   C118      1.0  0.43850  0.90340  0.86686  1.0000 -0.0774722005
C   C119      1.0  0.93850  0.59660  0.13314  1.0000 -0.0774722005
C   C120      1.0  0.56150  0.90340  0.63314  1.0000 -0.0774722005
C   C121      1.0  0.85790  0.35920  0.64426  1.0000 -0.0489589543
C   C122      1.0  0.64210  0.14080  0.14426  1.0000 -0.0489589543
C   C123      1.0  0.14210  0.35920  0.85574  1.0000 -0.0489589543
C   C124      1.0  0.35790  0.14080  0.35574  1.0000 -0.0489589543
C   C125      1.0  0.14210  0.64080  0.35574  1.0000 -0.0489589543
C   C126      1.0  0.35790  0.85920  0.85574  1.0000 -0.0489589543
C   C127      1.0  0.85790  0.64080  0.14426  1.0000 -0.0489589543
C   C128      1.0  0.64210  0.85920  0.64426  1.0000 -0.0489589543
C   C129      1.0  0.77800  0.30600  0.63522  1.0000 0.0380205163
C   C130      1.0  0.72200  0.19400  0.13522  1.0000 0.0380205163
C   C131      1.0  0.22200  0.30600  0.86478  1.0000 0.0380205163
C   C132      1.0  0.27800  0.19400  0.36478  1.0000 0.0380205163
C   C133      1.0  0.22200  0.69400  0.36478  1.0000 0.0380205163
C   C134      1.0  0.27800  0.80600  0.86478  1.0000 0.0380205163
C   C135      1.0  0.77800  0.69400  0.13522  1.0000 0.0380205163
C   C136      1.0  0.72200  0.80600  0.63522  1.0000 0.0380205163
C   C137      1.0  0.69350  0.26240  0.64654  1.0000 -0.0595507607
C   C138      1.0  0.80650  0.23760  0.14654  1.0000 -0.0595507607
C   C139      1.0  0.30650  0.26240  0.85346  1.0000 -0.0595507607
C   C140      1.0  0.19350  0.23760  0.35346  1.0000 -0.0595507607
C   C141      1.0  0.30650  0.73760  0.35346  1.0000 -0.0595507607
C   C142      1.0  0.19350  0.76240  0.85346  1.0000 -0.0595507607
C   C143      1.0  0.69350  0.73760  0.14654  1.0000 -0.0595507607
C   C144      1.0  0.80650  0.76240  0.64654  1.0000 -0.0595507607
C   C145      1.0  0.61370  0.21270  0.63720  1.0000 -0.0713003668
C   C146      1.0  0.88630  0.28730  0.13720  1.0000 -0.0713003668
C   C147      1.0  0.38630  0.21270  0.86280  1.0000 -0.0713003668
C   C148      1.0  0.11370  0.28730  0.36280  1.0000 -0.0713003668
C   C149      1.0  0.38630  0.78730  0.36280  1.0000 -0.0713003668
C   C150      1.0  0.11370  0.71270  0.86280  1.0000 -0.0713003668
C   C151      1.0  0.61370  0.78730  0.13720  1.0000 -0.0713003668
C   C152      1.0  0.88630  0.71270  0.63720  1.0000 -0.0713003668
C   C153      1.0  0.85350  0.37060  0.66607  1.0000 0.4362386671
C   C154      1.0  0.64650  0.12940  0.16607  1.0000 0.4362386671
C   C155      1.0  0.14650  0.37060  0.83393  1.0000 0.4362386671
C   C156      1.0  0.35350  0.12940  0.33393  1.0000 0.4362386671
C   C157      1.0  0.14650  0.62940  0.33393  1.0000 0.4362386671
C   C158      1.0  0.35350  0.87060  0.83393  1.0000 0.4362386671
C   C159      1.0  0.85350  0.62940  0.16607  1.0000 0.4362386671
C   C160      1.0  0.64650  0.87060  0.66607  1.0000 0.4362386671
C   C161      1.0  0.68770  0.27220  0.66833  1.0000 0.4314549759
C   C162      1.0  0.81230  0.22780  0.16833  1.0000 0.4314549759
C   C163      1.0  0.31230  0.27220  0.83167  1.0000 0.4314549759
C   C164      1.0  0.18770  0.22780  0.33167  1.0000 0.4314549759
C   C165      1.0  0.31230  0.72780  0.33167  1.0000 0.4314549759
C   C166      1.0  0.18770  0.77220  0.83167  1.0000 0.4314549759
C   C167      1.0  0.68770  0.72780  0.16833  1.0000 0.4314549759
C   C168      1.0  0.81230  0.77220  0.66833  1.0000 0.4314549759
C   C169      1.0  0.76290  0.33600  0.69791  1.0000 0.1639702489
C   C170      1.0  0.73710  0.16400  0.19791  1.0000 0.1639702489
C   C171      1.0  0.23710  0.33600  0.80209  1.0000 0.1639702489
C   C172      1.0  0.26290  0.16400  0.30209  1.0000 0.1639702489
C   C173      1.0  0.23710  0.66400  0.30209  1.0000 0.1639702489
C   C174      1.0  0.26290  0.83600  0.80209  1.0000 0.1639702489
C   C175      1.0  0.76290  0.66400  0.19791  1.0000 0.1639702489
C   C176      1.0  0.73710  0.83600  0.69791  1.0000 0.1639702489
C   C177      1.0  0.81560  0.28120  0.71036  1.0000 -0.127188648
C   C178      1.0  0.68440  0.21880  0.21036  1.0000 -0.127188648
C   C179      1.0  0.18440  0.28120  0.78964  1.0000 -0.127188648
C   C180      1.0  0.31560  0.21880  0.28964  1.0000 -0.127188648
C   C181      1.0  0.18440  0.71880  0.28964  1.0000 -0.127188648
C   C182      1.0  0.31560  0.78120  0.78964  1.0000 -0.127188648
C   C183      1.0  0.81560  0.71880  0.21036  1.0000 -0.127188648
C   C184      1.0  0.68440  0.78120  0.71036  1.0000 -0.127188648
C   C185      1.0  0.81010  0.29260  0.73066  1.0000 0.0047080955
C   C186      1.0  0.68990  0.20740  0.23066  1.0000 0.0047080955
C   C187      1.0  0.18990  0.29260  0.76934  1.0000 0.0047080955
C   C188      1.0  0.31010  0.20740  0.26934  1.0000 0.0047080955
C   C189      1.0  0.18990  0.70740  0.26934  1.0000 0.0047080955
C   C190      1.0  0.31010  0.79260  0.76934  1.0000 0.0047080955
C   C191      1.0  0.81010  0.70740  0.23066  1.0000 0.0047080955
C   C192      1.0  0.68990  0.79260  0.73066  1.0000 0.0047080955
C   C193      1.0  0.75170  0.35850  0.73827  1.0000 -0.1002041259
C   C194      1.0  0.74830  0.14150  0.23827  1.0000 -0.1002041259
C   C195      1.0  0.24830  0.35850  0.76173  1.0000 -0.1002041259
C   C196      1.0  0.25170  0.14150  0.26173  1.0000 -0.1002041259
C   C197      1.0  0.24830  0.64150  0.26173  1.0000 -0.1002041259
C   C198      1.0  0.25170  0.85850  0.76173  1.0000 -0.1002041259
C   C199      1.0  0.75170  0.64150  0.23827  1.0000 -0.1002041259
C   C200      1.0  0.74830  0.85850  0.73827  1.0000 -0.1002041259
C   C201      1.0  0.69440  0.41210  0.72584  1.0000 -0.0170027382
C   C202      1.0  0.80560  0.08790  0.22584  1.0000 -0.0170027382
C   C203      1.0  0.30560  0.41210  0.77416  1.0000 -0.0170027382
C   C204      1.0  0.19440  0.08790  0.27416  1.0000 -0.0170027382
C   C205      1.0  0.30560  0.58790  0.27416  1.0000 -0.0170027382
C   C206      1.0  0.19440  0.91210  0.77416  1.0000 -0.0170027382
C   C207      1.0  0.69440  0.58790  0.22584  1.0000 -0.0170027382
C   C208      1.0  0.80560  0.91210  0.72584  1.0000 -0.0170027382
C   C209      1.0  0.70060  0.40030  0.70550  1.0000 -0.15093006
C   C210      1.0  0.79940  0.09970  0.20550  1.0000 -0.15093006
C   C211      1.0  0.29940  0.40030  0.79450  1.0000 -0.15093006
C   C212      1.0  0.20060  0.09970  0.29450  1.0000 -0.15093006
C   C213      1.0  0.29940  0.59970  0.29450  1.0000 -0.15093006
C   C214      1.0  0.20060  0.90030  0.79450  1.0000 -0.15093006
C   C215      1.0  0.70060  0.59970  0.20550  1.0000 -0.15093006
C   C216      1.0  0.79940  0.90030  0.70550  1.0000 -0.15093006
C   C217      1.0  0.62530  0.48220  0.73384  1.0000 0.6561433332
C   C218      1.0  0.87470  0.01780  0.23384  1.0000 0.6561433332
C   C219      1.0  0.37470  0.48220  0.76616  1.0000 0.6561433332
C   C220      1.0  0.12530  0.01780  0.26616  1.0000 0.6561433332
C   C221      1.0  0.37470  0.51780  0.26616  1.0000 0.6561433332
C   C222      1.0  0.12530  0.98220  0.76616  1.0000 0.6561433332
C   C223      1.0  0.62530  0.51780  0.23384  1.0000 0.65437085
C   C224      1.0  0.87470  0.98220  0.73384  1.0000 0.6561433332
C   C225      1.0  0.86180  0.23200  0.74470  1.0000 0.6103949752
C   C226      1.0  0.63820  0.26800  0.24470  1.0000 0.6103949752
C   C227      1.0  0.13820  0.23200  0.75530  1.0000 0.6103949752
C   C228      1.0  0.36180  0.26800  0.25530  1.0000 0.6103949752
C   C229      1.0  0.13820  0.76800  0.25530  1.0000 0.6103949752
C   C230      1.0  0.36180  0.73200  0.75530  1.0000 0.6103949752
C   C231      1.0  0.86180  0.76800  0.24470  1.0000 0.6103949752
C   C232      1.0  0.63820  0.73200  0.74470  1.0000 0.6103949752
C   C233      1.0  0.94080  0.39370  0.61221  1.0000 -0.0774722005
C   C234      1.0  0.55920  0.10630  0.11221  1.0000 -0.0774722005
C   C235      1.0  0.05920  0.39370  0.88779  1.0000 -0.0774722005
C   C236      1.0  0.44080  0.10630  0.38779  1.0000 -0.0774722005
C   C237      1.0  0.05920  0.60630  0.38779  1.0000 -0.0774722005
C   C238      1.0  0.44080  0.89370  0.88779  1.0000 -0.0774722005
C   C239      1.0  0.94080  0.60630  0.11221  1.0000 -0.0774722005
C   C240      1.0  0.55920  0.89370  0.61221  1.0000 -0.0774722005
N   N1        1.0  0.77280  0.28860  0.57292  1.0000 -0.2199851693
N   N2        1.0  0.72720  0.21140  0.07292  1.0000 -0.2199851693
N   N3        1.0  0.22720  0.28860  0.92708  1.0000 -0.2199851693
N   N4        1.0  0.27280  0.21140  0.42708  1.0000 -0.2199851693
N   N5        1.0  0.22720  0.71140  0.42708  1.0000 -0.2199851693
N   N6        1.0  0.27280  0.78860  0.92708  1.0000 -0.2199851693
N   N7        1.0  0.77280  0.71140  0.07292  1.0000 -0.2199851693
N   N8        1.0  0.72720  0.78860  0.57292  1.0000 -0.2199851693
N   N9        1.0  0.77000  0.32480  0.67661  1.0000 -0.2199851693
N   N10       1.0  0.73000  0.17520  0.17661  1.0000 -0.2199851693
N   N11       1.0  0.23000  0.32480  0.82339  1.0000 -0.2199851693
N   N12       1.0  0.27000  0.17520  0.32339  1.0000 -0.2199851693
N   N13       1.0  0.23000  0.67520  0.32339  1.0000 -0.2199851693
N   N14       1.0  0.27000  0.82480  0.82339  1.0000 -0.2199851693
N   N15       1.0  0.77000  0.67520  0.17661  1.0000 -0.2199851693
N   N16       1.0  0.73000  0.82480  0.67661  1.0000 -0.2199851693
N   N17       1.0  0.49530  0.55620  0.56449  1.0000 0.7194057097
N   N18       1.0  0.00470  0.94380  0.06449  1.0000 0.7194057097
N   N19       1.0  0.50470  0.55620  0.93551  1.0000 0.7194057097
N   N20       1.0  0.99530  0.94380  0.43551  1.0000 0.7194057097
N   N21       1.0  0.50470  0.44380  0.43551  1.0000 0.7149680314
N   N22       1.0  0.99530  0.05620  0.93551  1.0000 0.7149680314
N   N23       1.0  0.49530  0.44380  0.06449  1.0000 0.7194057097
N   N24       1.0  0.00470  0.05620  0.56449  1.0000 0.7194057097
N   N25       1.0  0.42380  0.68620  0.68676  1.0000 0.7194057097
N   N26       1.0  0.07620  0.81380  0.18676  1.0000 0.7194057097
N   N27       1.0  0.57620  0.68620  0.81324  1.0000 0.7286366877
N   N28       1.0  0.92380  0.81380  0.31324  1.0000 0.7286366877
N   N29       1.0  0.57620  0.31380  0.31324  1.0000 0.7286366877
N   N30       1.0  0.92380  0.18620  0.81324  1.0000 0.7286366877
N   N31       1.0  0.42380  0.31380  0.18676  1.0000 0.7194057097
N   N32       1.0  0.07620  0.18620  0.68676  1.0000 0.7286366877
O   O1        1.0  0.96440  0.10210  0.52350  1.0000 -0.6473695835
O   O2        1.0  0.53560  0.39790  0.02350  1.0000 -0.6473695835
O   O3        1.0  0.03560  0.10210  0.97650  1.0000 -0.6473695835
O   O4        1.0  0.46440  0.39790  0.47650  1.0000 -0.6473695835
O   O5        1.0  0.03560  0.89790  0.47650  1.0000 -0.6473695835
O   O6        1.0  0.46440  0.60210  0.97650  1.0000 -0.6473695835
O   O7        1.0  0.96440  0.89790  0.02350  1.0000 -0.6381889393
O   O8        1.0  0.53560  0.60210  0.52350  1.0000 -0.6473695835
O   O9        1.0  0.84010  0.10810  0.49731  1.0000 -0.6889023873
O   O10       1.0  0.65990  0.39190  0.99731  1.0000 -0.6889023873
O   O11       1.0  0.15990  0.10810  0.00269  1.0000 -0.6889023873
O   O12       1.0  0.34010  0.39190  0.50269  1.0000 -0.6889023873
O   O13       1.0  0.15990  0.89190  0.50269  1.0000 -0.6889023873
O   O14       1.0  0.34010  0.60810  0.00269  1.0000 -0.6889023873
O   O15       1.0  0.84010  0.89190  0.99731  1.0000 -0.6889023873
O   O16       1.0  0.65990  0.60810  0.49731  1.0000 -0.6889023873
O   O17       1.0  0.71270  0.40200  0.48917  1.0000 -0.6194685194
O   O18       1.0  0.78730  0.09800  0.98917  1.0000 -0.6194685194
O   O19       1.0  0.28730  0.40200  0.01083  1.0000 -0.6194685194
O   O20       1.0  0.21270  0.09800  0.51083  1.0000 -0.6194685194
O   O21       1.0  0.28730  0.59800  0.51083  1.0000 -0.6194685194
O   O22       1.0  0.21270  0.90200  0.01083  1.0000 -0.6194685194
O   O23       1.0  0.71270  0.59800  0.98917  1.0000 -0.6194685194
O   O24       1.0  0.78730  0.90200  0.48917  1.0000 -0.6194685194
O   O25       1.0  0.59060  0.44410  0.51262  1.0000 -0.7384080383
O   O26       1.0  0.90940  0.05590  0.01262  1.0000 -0.7384080383
O   O27       1.0  0.40940  0.44410  0.98738  1.0000 -0.7384080383
O   O28       1.0  0.09060  0.05590  0.48738  1.0000 -0.7384080383
O   O29       1.0  0.40940  0.55590  0.48738  1.0000 -0.7384080383
O   O30       1.0  0.09060  0.94410  0.98738  1.0000 -0.7384080383
O   O31       1.0  0.59060  0.55590  0.01262  1.0000 -0.7384080383
O   O32       1.0  0.90940  0.94410  0.51262  1.0000 -0.7384080383
O   O33       1.0  0.56480  0.50810  0.55595  1.0000 -0.5314787437
O   O34       1.0  0.93520  0.99190  0.05595  1.0000 -0.5314787437
O   O35       1.0  0.43520  0.50810  0.94405  1.0000 -0.5314787437
O   O36       1.0  0.06480  0.99190  0.44405  1.0000 -0.5314787437
O   O37       1.0  0.43520  0.49190  0.44405  1.0000 -0.5314787437
O   O38       1.0  0.06480  0.00810  0.94405  1.0000 -0.5314787437
O   O39       1.0  0.56480  0.49190  0.05595  1.0000 -0.5314787437
O   O40       1.0  0.93520  0.00810  0.55595  1.0000 -0.5314787437
O   O41       1.0  0.52840  0.59870  0.57820  1.0000 -0.3699264874
O   O42       1.0  0.97160  0.90130  0.07820  1.0000 -0.3699264874
O   O43       1.0  0.47160  0.59870  0.92180  1.0000 -0.3699264874
O   O44       1.0  0.02840  0.90130  0.42180  1.0000 -0.3699264874
O   O45       1.0  0.47160  0.40130  0.42180  1.0000 -0.3699264874
O   O46       1.0  0.02840  0.09870  0.92180  1.0000 -0.3699264874
O   O47       1.0  0.52840  0.40130  0.07820  1.0000 -0.3699264874
O   O48       1.0  0.97160  0.09870  0.57820  1.0000 -0.3699264874
O   O49       1.0  0.38710  0.56050  0.55808  1.0000 -0.5680677946
O   O50       1.0  0.11290  0.93950  0.05808  1.0000 -0.5680677946
O   O51       1.0  0.61290  0.56050  0.94192  1.0000 -0.5680677946
O   O52       1.0  0.88710  0.93950  0.44192  1.0000 -0.5680677946
O   O53       1.0  0.61290  0.43950  0.44192  1.0000 -0.5680677946
O   O54       1.0  0.88710  0.06050  0.94192  1.0000 -0.5680677946
O   O55       1.0  0.38710  0.43950  0.05808  1.0000 -0.5680677946
O   O56       1.0  0.11290  0.06050  0.55808  1.0000 -0.5680677946
O   O57       1.0  0.93390  0.36980  0.57073  1.0000 -0.3769876826
O   O58       1.0  0.56610  0.13020  0.07073  1.0000 -0.3769876826
O   O59       1.0  0.06610  0.36980  0.92927  1.0000 -0.3769876826
O   O60       1.0  0.43390  0.13020  0.42927  1.0000 -0.3769876826
O   O61       1.0  0.06610  0.63020  0.42927  1.0000 -0.3769876826
O   O62       1.0  0.43390  0.86980  0.92927  1.0000 -0.3769876826
O   O63       1.0  0.93390  0.63020  0.07073  1.0000 -0.3699264874
O   O64       1.0  0.56610  0.86980  0.57073  1.0000 -0.3769876826
O   O65       1.0  0.61800  0.19840  0.57483  1.0000 -0.3769876826
O   O66       1.0  0.88200  0.30160  0.07483  1.0000 -0.3769876826
O   O67       1.0  0.38200  0.19840  0.92517  1.0000 -0.3769876826
O   O68       1.0  0.11800  0.30160  0.42517  1.0000 -0.3769876826
O   O69       1.0  0.38200  0.80160  0.42517  1.0000 -0.3769876826
O   O70       1.0  0.11800  0.69840  0.92517  1.0000 -0.3769876826
O   O71       1.0  0.61800  0.80160  0.07483  1.0000 -0.3769876826
O   O72       1.0  0.88200  0.69840  0.57483  1.0000 -0.3699264874
O   O73       1.0  0.91850  0.41750  0.67461  1.0000 -0.3958948198
O   O74       1.0  0.58150  0.08250  0.17461  1.0000 -0.3902043575
O   O75       1.0  0.08150  0.41750  0.82539  1.0000 -0.3902043575
O   O76       1.0  0.41850  0.08250  0.32539  1.0000 -0.3902043575
O   O77       1.0  0.08150  0.58250  0.32539  1.0000 -0.3902043575
O   O78       1.0  0.41850  0.91750  0.82539  1.0000 -0.3902043575
O   O79       1.0  0.91850  0.58250  0.17461  1.0000 -0.3902043575
O   O80       1.0  0.58150  0.91750  0.67461  1.0000 -0.3902043575
O   O81       1.0  0.61480  0.23660  0.67833  1.0000 -0.3902043575
O   O82       1.0  0.88520  0.26340  0.17833  1.0000 -0.3902043575
O   O83       1.0  0.38520  0.23660  0.82167  1.0000 -0.3902043575
O   O84       1.0  0.11480  0.26340  0.32167  1.0000 -0.3902043575
O   O85       1.0  0.38520  0.76340  0.32167  1.0000 -0.3902043575
O   O86       1.0  0.11480  0.73660  0.82167  1.0000 -0.3902043575
O   O87       1.0  0.61480  0.76340  0.17833  1.0000 -0.3769876826
O   O88       1.0  0.88520  0.73660  0.67833  1.0000 -0.3769876826
O   O89       1.0  0.89950  0.16540  0.73778  1.0000 -0.7384080383
O   O90       1.0  0.60050  0.33460  0.23778  1.0000 -0.7384080383
O   O91       1.0  0.10050  0.16540  0.76222  1.0000 -0.7384080383
O   O92       1.0  0.39950  0.33460  0.26222  1.0000 -0.7384080383
O   O93       1.0  0.10050  0.83460  0.26222  1.0000 -0.7384080383
O   O94       1.0  0.39950  0.66540  0.76222  1.0000 -0.7384080383
O   O95       1.0  0.89950  0.83460  0.23778  1.0000 -0.7384080383
O   O96       1.0  0.60050  0.66540  0.73778  1.0000 -0.7384080383
O   O97       1.0  0.86310  0.24620  0.76274  1.0000 -0.5905978176
O   O98       1.0  0.63690  0.25380  0.26274  1.0000 -0.5905978176
O   O99       1.0  0.13690  0.24620  0.73726  1.0000 -0.5905978176
O   O100      1.0  0.36310  0.25380  0.23726  1.0000 -0.5905978176
O   O101      1.0  0.13690  0.75380  0.23726  1.0000 -0.5905978176
O   O102      1.0  0.36310  0.74620  0.73726  1.0000 -0.5905978176
O   O103      1.0  0.86310  0.75380  0.26274  1.0000 -0.5905978176
O   O104      1.0  0.63690  0.74620  0.76274  1.0000 -0.5905978176
O   O105      1.0  0.64110  0.50090  0.75157  1.0000 -0.6781061533
O   O106      1.0  0.85890  0.99910  0.25157  1.0000 -0.6781061533
O   O107      1.0  0.35890  0.50090  0.74843  1.0000 -0.6781061533
O   O108      1.0  0.14110  0.99910  0.24843  1.0000 -0.6781061533
O   O109      1.0  0.35890  0.49910  0.24843  1.0000 -0.6781061533
O   O110      1.0  0.14110  0.00090  0.74843  1.0000 -0.6781061533
O   O111      1.0  0.64110  0.49910  0.25157  1.0000 -0.6781061533
O   O112      1.0  0.85890  0.00090  0.75157  1.0000 -0.6781061533
O   O113      1.0  0.55710  0.51720  0.72164  1.0000 -0.6381889393
O   O114      1.0  0.94290  0.98280  0.22164  1.0000 -0.6381889393
O   O115      1.0  0.44290  0.51720  0.77836  1.0000 -0.6381889393
O   O116      1.0  0.05710  0.98280  0.27836  1.0000 -0.6381889393
O   O117      1.0  0.44290  0.48280  0.27836  1.0000 -0.6381889393
O   O118      1.0  0.05710  0.01720  0.77836  1.0000 -0.6381889393
O   O119      1.0  0.55710  0.48280  0.22164  1.0000 -0.6381889393
O   O120      1.0  0.94290  0.01720  0.72164  1.0000 -0.6381889393
O   O121      1.0  0.50600  0.64310  0.69474  1.0000 -0.5680677946
O   O122      1.0  0.99400  0.85690  0.19474  1.0000 -0.5680677946
O   O123      1.0  0.49400  0.64310  0.80526  1.0000 -0.5680677946
O   O124      1.0  0.00600  0.85690  0.30526  1.0000 -0.5680677946
O   O125      1.0  0.49400  0.35690  0.30526  1.0000 -0.5680677946
O   O126      1.0  0.00600  0.14310  0.80526  1.0000 -0.5680677946
O   O127      1.0  0.50600  0.35690  0.19474  1.0000 -0.5680677946
O   O128      1.0  0.99400  0.14310  0.69474  1.0000 -0.5680677946
O   O129      1.0  0.32900  0.69800  0.69659  1.0000 -0.5401252622
O   O130      1.0  0.17100  0.80200  0.19659  1.0000 -0.5314787437
O   O131      1.0  0.67100  0.69800  0.80341  1.0000 -0.5401252622
O   O132      1.0  0.82900  0.80200  0.30341  1.0000 -0.5401252622
O   O133      1.0  0.67100  0.30200  0.30341  1.0000 -0.5401252622
O   O134      1.0  0.82900  0.19800  0.80341  1.0000 -0.5401252622
O   O135      1.0  0.32900  0.30200  0.19659  1.0000 -0.5401252622
O   O136      1.0  0.17100  0.19800  0.69659  1.0000 -0.5401252622
O   O137      1.0  0.44250  0.71530  0.67031  1.0000 -0.3699264874
O   O138      1.0  0.05750  0.78470  0.17031  1.0000 -0.3699264874
O   O139      1.0  0.55750  0.71530  0.82969  1.0000 -0.3769876826
O   O140      1.0  0.94250  0.78470  0.32969  1.0000 -0.3769876826
O   O141      1.0  0.55750  0.28470  0.32969  1.0000 -0.3769876826
O   O142      1.0  0.94250  0.21530  0.82969  1.0000 -0.3769876826
O   O143      1.0  0.44250  0.28470  0.17031  1.0000 -0.3699264874
O   O144      1.0  0.05750  0.21530  0.67031  1.0000 -0.3699264874
