# DDEC6 charges by PACMAN v1.1 (https://github.com/mtap-research/PACMAN-charge/)
data_2023[Zr][reo]3[ASR]1
_chemical_formula_sum              "Zr36 H48 C144 S24 O144"
_cell_length_a       27.3789
_cell_length_b       27.3789
_cell_length_c       27.3789
_cell_angle_alpha    60
_cell_angle_beta     60
_cell_angle_gamma    60

_symmetry_space_group_name_H-M    "P 1"
_symmetry_Int_Tables_number       1

loop_
  _symmetry_equiv_pos_as_xyz
  'x, y, z'

loop_
  _atom_site_type_symbol
  _atom_site_label
  _atom_site_symmetry_multiplicity
  _atom_site_fract_x
  _atom_site_fract_y
  _atom_site_fract_z
  _atom_site_occupancy
  _atom_site_charge
Zr  Zr1       1.0  0.00000  0.00000  0.41034  1.0000 2.2796888911
Zr  Zr2       1.0  0.00000  0.00000  0.58966  1.0000 2.2796888911
Zr  Zr3       1.0  0.41034  0.58966  0.00000  1.0000 2.287648853
Zr  Zr4       1.0  0.58966  0.41034  0.00000  1.0000 2.287648853
Zr  Zr5       1.0  0.41034  0.00000  0.00000  1.0000 2.287648853
Zr  Zr6       1.0  0.58966  0.00000  0.00000  1.0000 2.287648853
Zr  Zr7       1.0  0.00000  0.41034  0.58966  1.0000 2.2796888911
Zr  Zr8       1.0  0.00000  0.58966  0.41034  1.0000 2.2796888911
Zr  Zr9       1.0  0.00000  0.41034  0.00000  1.0000 2.287648853
Zr  Zr10      1.0  0.00000  0.58966  0.00000  1.0000 2.287648853
Zr  Zr11      1.0  0.58966  0.00000  0.41034  1.0000 2.2796888911
Zr  Zr12      1.0  0.41034  0.00000  0.58966  1.0000 2.2796888911
Zr  Zr13      1.0  0.10982  0.98094  0.45462  1.0000 2.4192973849
Zr  Zr14      1.0  0.98094  0.10982  0.45462  1.0000 2.4192973849
Zr  Zr15      1.0  0.45462  0.45462  0.10982  1.0000 2.4192973849
Zr  Zr16      1.0  0.45462  0.45462  0.98094  1.0000 2.4192973849
Zr  Zr17      1.0  0.45462  0.10982  0.98094  1.0000 2.4192973849
Zr  Zr18      1.0  0.45462  0.98094  0.10982  1.0000 2.4192973849
Zr  Zr19      1.0  0.10982  0.45462  0.45462  1.0000 2.4192973849
Zr  Zr20      1.0  0.98094  0.45462  0.45462  1.0000 2.4192973849
Zr  Zr21      1.0  0.98094  0.45462  0.10982  1.0000 2.4192973849
Zr  Zr22      1.0  0.10982  0.45462  0.98094  1.0000 2.4192973849
Zr  Zr23      1.0  0.45462  0.10982  0.45462  1.0000 2.4192973849
Zr  Zr24      1.0  0.45462  0.98094  0.45462  1.0000 2.4192973849
Zr  Zr25      1.0  0.89018  0.01906  0.54538  1.0000 2.4192973849
Zr  Zr26      1.0  0.01906  0.89018  0.54538  1.0000 2.4192973849
Zr  Zr27      1.0  0.54538  0.54538  0.01906  1.0000 2.4192973849
Zr  Zr28      1.0  0.54538  0.54538  0.89018  1.0000 2.4192973849
Zr  Zr29      1.0  0.54538  0.89018  0.54538  1.0000 2.4192973849
Zr  Zr30      1.0  0.54538  0.01906  0.54538  1.0000 2.4131242199
Zr  Zr31      1.0  0.89018  0.54538  0.01906  1.0000 2.4192973849
Zr  Zr32      1.0  0.01906  0.54538  0.89018  1.0000 2.4192973849
Zr  Zr33      1.0  0.01906  0.54538  0.54538  1.0000 2.4192973849
Zr  Zr34      1.0  0.89018  0.54538  0.54538  1.0000 2.4192973849
Zr  Zr35      1.0  0.54538  0.89018  0.01906  1.0000 2.4192973849
Zr  Zr36      1.0  0.54538  0.01906  0.89018  1.0000 2.4192973849
H   H1        1.0  0.01380  0.86640  0.34080  1.0000 0.1235469245
H   H2        1.0  0.86640  0.01380  0.77900  1.0000 0.1235469245
H   H3        1.0  0.34080  0.77900  0.01380  1.0000 0.1235469245
H   H4        1.0  0.77900  0.34080  0.86640  1.0000 0.1235469245
H   H5        1.0  0.34080  0.01380  0.86640  1.0000 0.1235469245
H   H6        1.0  0.77900  0.86640  0.01380  1.0000 0.1235469245
H   H7        1.0  0.01380  0.34080  0.77900  1.0000 0.1235469245
H   H8        1.0  0.86640  0.77900  0.34080  1.0000 0.1235469245
H   H9        1.0  0.86640  0.34080  0.01380  1.0000 0.1235469245
H   H10       1.0  0.01380  0.77900  0.86640  1.0000 0.1235469245
H   H11       1.0  0.77900  0.01380  0.34080  1.0000 0.1235469245
H   H12       1.0  0.34080  0.86640  0.77900  1.0000 0.1235469245
H   H13       1.0  0.98620  0.13360  0.22100  1.0000 0.1235469245
H   H14       1.0  0.13360  0.98620  0.65920  1.0000 0.1235469245
H   H15       1.0  0.65920  0.22100  0.13360  1.0000 0.1235469245
H   H16       1.0  0.22100  0.65920  0.98620  1.0000 0.1235469245
H   H17       1.0  0.65920  0.98620  0.22100  1.0000 0.1235469245
H   H18       1.0  0.22100  0.13360  0.65920  1.0000 0.1235469245
H   H19       1.0  0.98620  0.65920  0.13360  1.0000 0.1235469245
H   H20       1.0  0.13360  0.22100  0.98620  1.0000 0.1235469245
H   H21       1.0  0.13360  0.65920  0.22100  1.0000 0.1235469245
H   H22       1.0  0.98620  0.22100  0.65920  1.0000 0.1235469245
H   H23       1.0  0.22100  0.98620  0.13360  1.0000 0.1235469245
H   H24       1.0  0.65920  0.13360  0.98620  1.0000 0.1235469245
H   H25       1.0  0.98620  0.13360  0.65920  1.0000 0.1235469245
H   H26       1.0  0.13360  0.98620  0.22100  1.0000 0.1235469245
H   H27       1.0  0.65920  0.22100  0.98620  1.0000 0.1235469245
H   H28       1.0  0.22100  0.65920  0.13360  1.0000 0.1235469245
H   H29       1.0  0.65920  0.98620  0.13360  1.0000 0.1235469245
H   H30       1.0  0.22100  0.13360  0.98620  1.0000 0.1235469245
H   H31       1.0  0.98620  0.65920  0.22100  1.0000 0.1235469245
H   H32       1.0  0.13360  0.22100  0.65920  1.0000 0.1235469245
H   H33       1.0  0.13360  0.65920  0.98620  1.0000 0.1235469245
H   H34       1.0  0.98620  0.22100  0.13360  1.0000 0.1235469245
H   H35       1.0  0.22100  0.98620  0.65920  1.0000 0.1235469245
H   H36       1.0  0.65920  0.13360  0.22100  1.0000 0.1235469245
H   H37       1.0  0.01380  0.86640  0.77900  1.0000 0.1235469245
H   H38       1.0  0.86640  0.01380  0.34080  1.0000 0.1235469245
H   H39       1.0  0.34080  0.77900  0.86640  1.0000 0.1235469245
H   H40       1.0  0.77900  0.34080  0.01380  1.0000 0.1235469245
H   H41       1.0  0.34080  0.01380  0.77900  1.0000 0.1235469245
H   H42       1.0  0.77900  0.86640  0.34080  1.0000 0.1235469245
H   H43       1.0  0.01380  0.34080  0.86640  1.0000 0.1235469245
H   H44       1.0  0.86640  0.77900  0.01380  1.0000 0.1235469245
H   H45       1.0  0.86640  0.34080  0.77900  1.0000 0.1235469245
H   H46       1.0  0.01380  0.77900  0.34080  1.0000 0.1235469245
H   H47       1.0  0.77900  0.01380  0.86640  1.0000 0.1235469245
H   H48       1.0  0.34080  0.86640  0.01380  1.0000 0.1235469245
C   C1        1.0  0.02200  0.86560  0.43940  1.0000 0.6369947481
C   C2        1.0  0.86560  0.02200  0.67300  1.0000 0.6369947481
C   C3        1.0  0.43940  0.67300  0.02200  1.0000 0.6369947481
C   C4        1.0  0.67300  0.43940  0.86560  1.0000 0.6369947481
C   C5        1.0  0.43940  0.02200  0.86560  1.0000 0.6369947481
C   C6        1.0  0.67300  0.86560  0.02200  1.0000 0.6369947481
C   C7        1.0  0.02200  0.43940  0.67300  1.0000 0.6369947481
C   C8        1.0  0.86560  0.67300  0.43940  1.0000 0.6369947481
C   C9        1.0  0.86560  0.43940  0.02200  1.0000 0.6369947481
C   C10       1.0  0.02200  0.67300  0.86560  1.0000 0.6369947481
C   C11       1.0  0.67300  0.02200  0.43940  1.0000 0.6369947481
C   C12       1.0  0.43940  0.86560  0.67300  1.0000 0.6369947481
C   C13       1.0  0.97800  0.13440  0.32700  1.0000 0.6369947481
C   C14       1.0  0.13440  0.97800  0.56060  1.0000 0.6369947481
C   C15       1.0  0.56060  0.32700  0.13440  1.0000 0.6369947481
C   C16       1.0  0.32700  0.56060  0.97800  1.0000 0.6369947481
C   C17       1.0  0.56060  0.97800  0.32700  1.0000 0.6369947481
C   C18       1.0  0.32700  0.13440  0.56060  1.0000 0.6369947481
C   C19       1.0  0.97800  0.56060  0.13440  1.0000 0.6369947481
C   C20       1.0  0.13440  0.32700  0.97800  1.0000 0.6369947481
C   C21       1.0  0.13440  0.56060  0.32700  1.0000 0.6369947481
C   C22       1.0  0.97800  0.32700  0.56060  1.0000 0.6369947481
C   C23       1.0  0.32700  0.97800  0.13440  1.0000 0.6369947481
C   C24       1.0  0.56060  0.13440  0.97800  1.0000 0.6369947481
C   C25       1.0  0.97800  0.13440  0.56060  1.0000 0.6369947481
C   C26       1.0  0.13440  0.97800  0.32700  1.0000 0.6369947481
C   C27       1.0  0.56060  0.32700  0.97800  1.0000 0.6369947481
C   C28       1.0  0.32700  0.56060  0.13440  1.0000 0.6369947481
C   C29       1.0  0.56060  0.97800  0.13440  1.0000 0.6369947481
C   C30       1.0  0.32700  0.13440  0.97800  1.0000 0.6369947481
C   C31       1.0  0.97800  0.56060  0.32700  1.0000 0.6369947481
C   C32       1.0  0.13440  0.32700  0.56060  1.0000 0.6369947481
C   C33       1.0  0.13440  0.56060  0.97800  1.0000 0.6369947481
C   C34       1.0  0.97800  0.32700  0.13440  1.0000 0.6369947481
C   C35       1.0  0.32700  0.97800  0.56060  1.0000 0.6369947481
C   C36       1.0  0.56060  0.13440  0.32700  1.0000 0.6369947481
C   C37       1.0  0.02200  0.86560  0.67300  1.0000 0.6369947481
C   C38       1.0  0.86560  0.02200  0.43940  1.0000 0.6369947481
C   C39       1.0  0.43940  0.67300  0.86560  1.0000 0.6369947481
C   C40       1.0  0.67300  0.43940  0.02200  1.0000 0.6369947481
C   C41       1.0  0.43940  0.02200  0.67300  1.0000 0.6369947481
C   C42       1.0  0.67300  0.86560  0.43940  1.0000 0.6369947481
C   C43       1.0  0.02200  0.43940  0.86560  1.0000 0.6369947481
C   C44       1.0  0.86560  0.67300  0.02200  1.0000 0.6369947481
C   C45       1.0  0.86560  0.43940  0.67300  1.0000 0.6369947481
C   C46       1.0  0.02200  0.67300  0.43940  1.0000 0.6369947481
C   C47       1.0  0.67300  0.02200  0.86560  1.0000 0.6369947481
C   C48       1.0  0.43940  0.86560  0.02200  1.0000 0.6369947481
C   C49       1.0  0.02070  0.82230  0.42350  1.0000 -0.1684200195
C   C50       1.0  0.82230  0.02070  0.73350  1.0000 -0.1684200195
C   C51       1.0  0.42350  0.73350  0.02070  1.0000 -0.1684200195
C   C52       1.0  0.73350  0.42350  0.82230  1.0000 -0.1684200195
C   C53       1.0  0.42350  0.02070  0.82230  1.0000 -0.1684200195
C   C54       1.0  0.73350  0.82230  0.02070  1.0000 -0.1684200195
C   C55       1.0  0.02070  0.42350  0.73350  1.0000 -0.1684200195
C   C56       1.0  0.82230  0.73350  0.42350  1.0000 -0.1684200195
C   C57       1.0  0.82230  0.42350  0.02070  1.0000 -0.1684200195
C   C58       1.0  0.02070  0.73350  0.82230  1.0000 -0.1684200195
C   C59       1.0  0.73350  0.02070  0.42350  1.0000 -0.1684200195
C   C60       1.0  0.42350  0.82230  0.73350  1.0000 -0.1684200195
C   C61       1.0  0.97930  0.17770  0.26650  1.0000 -0.1684200195
C   C62       1.0  0.17770  0.97930  0.57650  1.0000 -0.1684200195
C   C63       1.0  0.57650  0.26650  0.17770  1.0000 -0.1684200195
C   C64       1.0  0.26650  0.57650  0.97930  1.0000 -0.1684200195
C   C65       1.0  0.57650  0.97930  0.26650  1.0000 -0.1684200195
C   C66       1.0  0.26650  0.17770  0.57650  1.0000 -0.1684200195
C   C67       1.0  0.97930  0.57650  0.17770  1.0000 -0.1684200195
C   C68       1.0  0.17770  0.26650  0.97930  1.0000 -0.1684200195
C   C69       1.0  0.17770  0.57650  0.26650  1.0000 -0.1684200195
C   C70       1.0  0.97930  0.26650  0.57650  1.0000 -0.1684200195
C   C71       1.0  0.26650  0.97930  0.17770  1.0000 -0.1684200195
C   C72       1.0  0.57650  0.17770  0.97930  1.0000 -0.1684200195
C   C73       1.0  0.97930  0.17770  0.57650  1.0000 -0.1684200195
C   C74       1.0  0.17770  0.97930  0.26650  1.0000 -0.1684200195
C   C75       1.0  0.57650  0.26650  0.97930  1.0000 -0.1684200195
C   C76       1.0  0.26650  0.57650  0.17770  1.0000 -0.1684200195
C   C77       1.0  0.57650  0.97930  0.17770  1.0000 -0.1684200195
C   C78       1.0  0.26650  0.17770  0.97930  1.0000 -0.1684200195
C   C79       1.0  0.97930  0.57650  0.26650  1.0000 -0.1684200195
C   C80       1.0  0.17770  0.26650  0.57650  1.0000 -0.1684200195
C   C81       1.0  0.17770  0.57650  0.97930  1.0000 -0.1684200195
C   C82       1.0  0.97930  0.26650  0.17770  1.0000 -0.1684200195
C   C83       1.0  0.26650  0.97930  0.57650  1.0000 -0.1684200195
C   C84       1.0  0.57650  0.17770  0.26650  1.0000 -0.1684200195
C   C85       1.0  0.02070  0.82230  0.73350  1.0000 -0.1684200195
C   C86       1.0  0.82230  0.02070  0.42350  1.0000 -0.1684200195
C   C87       1.0  0.42350  0.73350  0.82230  1.0000 -0.1684200195
C   C88       1.0  0.73350  0.42350  0.02070  1.0000 -0.1684200195
C   C89       1.0  0.42350  0.02070  0.73350  1.0000 -0.1684200195
C   C90       1.0  0.73350  0.82230  0.42350  1.0000 -0.1684200195
C   C91       1.0  0.02070  0.42350  0.82230  1.0000 -0.1684200195
C   C92       1.0  0.82230  0.73350  0.02070  1.0000 -0.1684200195
C   C93       1.0  0.82230  0.42350  0.73350  1.0000 -0.1684200195
C   C94       1.0  0.02070  0.73350  0.42350  1.0000 -0.1684200195
C   C95       1.0  0.73350  0.02070  0.82230  1.0000 -0.1684200195
C   C96       1.0  0.42350  0.82230  0.02070  1.0000 -0.1684200195
C   C97       1.0  0.01650  0.83050  0.37250  1.0000 -0.1189277811
C   C98       1.0  0.83050  0.01650  0.78050  1.0000 -0.1189277811
C   C99       1.0  0.37250  0.78050  0.01650  1.0000 -0.1189277811
C   C100      1.0  0.78050  0.37250  0.83050  1.0000 -0.1189277811
C   C101      1.0  0.37250  0.01650  0.83050  1.0000 -0.1189277811
C   C102      1.0  0.78050  0.83050  0.01650  1.0000 -0.1189277811
C   C103      1.0  0.01650  0.37250  0.78050  1.0000 -0.1189277811
C   C104      1.0  0.83050  0.78050  0.37250  1.0000 -0.1189277811
C   C105      1.0  0.83050  0.37250  0.01650  1.0000 -0.1189277811
C   C106      1.0  0.01650  0.78050  0.83050  1.0000 -0.1189277811
C   C107      1.0  0.78050  0.01650  0.37250  1.0000 -0.1189277811
C   C108      1.0  0.37250  0.83050  0.78050  1.0000 -0.1189277811
C   C109      1.0  0.98350  0.16950  0.21950  1.0000 -0.1189277811
C   C110      1.0  0.16950  0.98350  0.62750  1.0000 -0.1189277811
C   C111      1.0  0.62750  0.21950  0.16950  1.0000 -0.1189277811
C   C112      1.0  0.21950  0.62750  0.98350  1.0000 -0.1189277811
C   C113      1.0  0.62750  0.98350  0.21950  1.0000 -0.1189277811
C   C114      1.0  0.21950  0.16950  0.62750  1.0000 -0.1189277811
C   C115      1.0  0.98350  0.62750  0.16950  1.0000 -0.1189277811
C   C116      1.0  0.16950  0.21950  0.98350  1.0000 -0.1189277811
C   C117      1.0  0.16950  0.62750  0.21950  1.0000 -0.1189277811
C   C118      1.0  0.98350  0.21950  0.62750  1.0000 -0.1189277811
C   C119      1.0  0.21950  0.98350  0.16950  1.0000 -0.1189277811
C   C120      1.0  0.62750  0.16950  0.98350  1.0000 -0.1189277811
C   C121      1.0  0.98350  0.16950  0.62750  1.0000 -0.1189277811
C   C122      1.0  0.16950  0.98350  0.21950  1.0000 -0.1189277811
C   C123      1.0  0.62750  0.21950  0.98350  1.0000 -0.1189277811
C   C124      1.0  0.21950  0.62750  0.16950  1.0000 -0.1189277811
C   C125      1.0  0.62750  0.98350  0.16950  1.0000 -0.1189277811
C   C126      1.0  0.21950  0.16950  0.98350  1.0000 -0.1189277811
C   C127      1.0  0.98350  0.62750  0.21950  1.0000 -0.1189277811
C   C128      1.0  0.16950  0.21950  0.62750  1.0000 -0.1189277811
C   C129      1.0  0.16950  0.62750  0.98350  1.0000 -0.1189277811
C   C130      1.0  0.98350  0.21950  0.16950  1.0000 -0.1189277811
C   C131      1.0  0.21950  0.98350  0.62750  1.0000 -0.1189277811
C   C132      1.0  0.62750  0.16950  0.21950  1.0000 -0.1189277811
C   C133      1.0  0.01650  0.83050  0.78050  1.0000 -0.1189277811
C   C134      1.0  0.83050  0.01650  0.37250  1.0000 -0.1189277811
C   C135      1.0  0.37250  0.78050  0.83050  1.0000 -0.1189277811
C   C136      1.0  0.78050  0.37250  0.01650  1.0000 -0.1189277811
C   C137      1.0  0.37250  0.01650  0.78050  1.0000 -0.1189277811
C   C138      1.0  0.78050  0.83050  0.37250  1.0000 -0.1189277811
C   C139      1.0  0.01650  0.37250  0.83050  1.0000 -0.1189277811
C   C140      1.0  0.83050  0.78050  0.01650  1.0000 -0.1189277811
C   C141      1.0  0.83050  0.37250  0.78050  1.0000 -0.1189277811
C   C142      1.0  0.01650  0.78050  0.37250  1.0000 -0.1189277811
C   C143      1.0  0.78050  0.01650  0.83050  1.0000 -0.1189277811
C   C144      1.0  0.37250  0.83050  0.01650  1.0000 -0.1189277811
S   S1        1.0  0.02627  0.75071  0.47231  1.0000 0.2219212366
S   S2        1.0  0.75071  0.02627  0.75071  1.0000 0.2090887142
S   S3        1.0  0.47231  0.75071  0.02627  1.0000 0.2090887142
S   S4        1.0  0.75071  0.47231  0.75071  1.0000 0.2090887142
S   S5        1.0  0.47231  0.02627  0.75071  1.0000 0.2090887142
S   S6        1.0  0.75071  0.75071  0.02627  1.0000 0.2090887142
S   S7        1.0  0.02627  0.47231  0.75071  1.0000 0.2219212366
S   S8        1.0  0.75071  0.75071  0.47231  1.0000 0.2219212366
S   S9        1.0  0.75071  0.47231  0.02627  1.0000 0.2090887142
S   S10       1.0  0.02627  0.75071  0.75071  1.0000 0.2090887142
S   S11       1.0  0.75071  0.02627  0.47231  1.0000 0.2219212366
S   S12       1.0  0.47231  0.75071  0.75071  1.0000 0.2090887142
S   S13       1.0  0.97373  0.24929  0.24929  1.0000 0.2090887142
S   S14       1.0  0.24929  0.97373  0.52769  1.0000 0.2090887142
S   S15       1.0  0.52769  0.24929  0.24929  1.0000 0.2090887142
S   S16       1.0  0.24929  0.52769  0.97373  1.0000 0.2219212366
S   S17       1.0  0.52769  0.97373  0.24929  1.0000 0.2090887142
S   S18       1.0  0.24929  0.24929  0.52769  1.0000 0.2219212366
S   S19       1.0  0.97373  0.52769  0.24929  1.0000 0.2090887142
S   S20       1.0  0.24929  0.24929  0.97373  1.0000 0.2090887142
S   S21       1.0  0.24929  0.52769  0.24929  1.0000 0.2090887142
S   S22       1.0  0.97373  0.24929  0.52769  1.0000 0.2219212366
S   S23       1.0  0.24929  0.97373  0.24929  1.0000 0.2090887142
S   S24       1.0  0.52769  0.24929  0.97373  1.0000 0.2090887142
O   O1        1.0  0.01396  0.91790  0.40394  1.0000 -0.5681162513
O   O2        1.0  0.91790  0.01396  0.66420  1.0000 -0.5681162513
O   O3        1.0  0.40394  0.66420  0.01396  1.0000 -0.5681162513
O   O4        1.0  0.66420  0.40394  0.91790  1.0000 -0.5681162513
O   O5        1.0  0.40394  0.01396  0.91790  1.0000 -0.5681162513
O   O6        1.0  0.66420  0.91790  0.01396  1.0000 -0.5681162513
O   O7        1.0  0.01396  0.40394  0.66420  1.0000 -0.5681162513
O   O8        1.0  0.91790  0.66420  0.40394  1.0000 -0.5681162513
O   O9        1.0  0.91790  0.40394  0.01396  1.0000 -0.5681162513
O   O10       1.0  0.01396  0.66420  0.91790  1.0000 -0.5681162513
O   O11       1.0  0.66420  0.01396  0.40394  1.0000 -0.5681162513
O   O12       1.0  0.40394  0.91790  0.66420  1.0000 -0.5681162513
O   O13       1.0  0.98604  0.08210  0.33580  1.0000 -0.5681162513
O   O14       1.0  0.08210  0.98604  0.59606  1.0000 -0.5681162513
O   O15       1.0  0.59606  0.33580  0.08210  1.0000 -0.5681162513
O   O16       1.0  0.33580  0.59606  0.98604  1.0000 -0.5681162513
O   O17       1.0  0.59606  0.98604  0.33580  1.0000 -0.5644398567
O   O18       1.0  0.33580  0.08210  0.59606  1.0000 -0.5681162513
O   O19       1.0  0.98604  0.59606  0.08210  1.0000 -0.5681162513
O   O20       1.0  0.08210  0.33580  0.98604  1.0000 -0.5681162513
O   O21       1.0  0.08210  0.59606  0.33580  1.0000 -0.5681162513
O   O22       1.0  0.98604  0.33580  0.59606  1.0000 -0.5681162513
O   O23       1.0  0.33580  0.98604  0.08210  1.0000 -0.5681162513
O   O24       1.0  0.59606  0.08210  0.98604  1.0000 -0.5681162513
O   O25       1.0  0.98604  0.08210  0.59606  1.0000 -0.5681162513
O   O26       1.0  0.08210  0.98604  0.33580  1.0000 -0.5681162513
O   O27       1.0  0.59606  0.33580  0.98604  1.0000 -0.5681162513
O   O28       1.0  0.33580  0.59606  0.08210  1.0000 -0.5681162513
O   O29       1.0  0.59606  0.98604  0.08210  1.0000 -0.5681162513
O   O30       1.0  0.33580  0.08210  0.98604  1.0000 -0.5681162513
O   O31       1.0  0.98604  0.59606  0.33580  1.0000 -0.5644398567
O   O32       1.0  0.08210  0.33580  0.59606  1.0000 -0.5681162513
O   O33       1.0  0.08210  0.59606  0.98604  1.0000 -0.5681162513
O   O34       1.0  0.98604  0.33580  0.08210  1.0000 -0.5681162513
O   O35       1.0  0.33580  0.98604  0.59606  1.0000 -0.5681162513
O   O36       1.0  0.59606  0.08210  0.33580  1.0000 -0.5644398567
O   O37       1.0  0.01396  0.91790  0.66420  1.0000 -0.5681162513
O   O38       1.0  0.91790  0.01396  0.40394  1.0000 -0.5681162513
O   O39       1.0  0.40394  0.66420  0.91790  1.0000 -0.5681162513
O   O40       1.0  0.66420  0.40394  0.01396  1.0000 -0.5681162513
O   O41       1.0  0.40394  0.01396  0.66420  1.0000 -0.5681162513
O   O42       1.0  0.66420  0.91790  0.40394  1.0000 -0.5681162513
O   O43       1.0  0.01396  0.40394  0.91790  1.0000 -0.5681162513
O   O44       1.0  0.91790  0.66420  0.01396  1.0000 -0.5681162513
O   O45       1.0  0.91790  0.40394  0.66420  1.0000 -0.5681162513
O   O46       1.0  0.01396  0.66420  0.40394  1.0000 -0.5681162513
O   O47       1.0  0.66420  0.01396  0.91790  1.0000 -0.5681162513
O   O48       1.0  0.40394  0.91790  0.01396  1.0000 -0.5681162513
O   O49       1.0  0.06395  0.93605  0.45675  1.0000 -1.1682629688
O   O50       1.0  0.93605  0.06395  0.54325  1.0000 -1.1682629688
O   O51       1.0  0.45675  0.54325  0.06395  1.0000 -1.1618161895
O   O52       1.0  0.54325  0.45675  0.93605  1.0000 -1.1618161895
O   O53       1.0  0.45675  0.06395  0.93605  1.0000 -1.1618161895
O   O54       1.0  0.54325  0.93605  0.06395  1.0000 -1.1618161895
O   O55       1.0  0.06395  0.45675  0.54325  1.0000 -1.1618161895
O   O56       1.0  0.93605  0.54325  0.45675  1.0000 -1.1682629688
O   O57       1.0  0.93605  0.45675  0.06395  1.0000 -1.1618161895
O   O58       1.0  0.06395  0.54325  0.93605  1.0000 -1.1618161895
O   O59       1.0  0.54325  0.06395  0.45675  1.0000 -1.1618161895
O   O60       1.0  0.45675  0.93605  0.54325  1.0000 -1.1682629688
O   O61       1.0  0.93605  0.06395  0.45675  1.0000 -1.1682629688
O   O62       1.0  0.06395  0.93605  0.54325  1.0000 -1.1618161895
O   O63       1.0  0.54325  0.45675  0.06395  1.0000 -1.1618161895
O   O64       1.0  0.45675  0.54325  0.93605  1.0000 -1.1618161895
O   O65       1.0  0.54325  0.93605  0.45675  1.0000 -1.1618161895
O   O66       1.0  0.45675  0.06395  0.54325  1.0000 -1.1682629688
O   O67       1.0  0.93605  0.54325  0.06395  1.0000 -1.1618161895
O   O68       1.0  0.06395  0.45675  0.93605  1.0000 -1.1618161895
O   O69       1.0  0.06395  0.54325  0.45675  1.0000 -1.1618161895
O   O70       1.0  0.93605  0.45675  0.54325  1.0000 -1.1618161895
O   O71       1.0  0.45675  0.93605  0.06395  1.0000 -1.1618161895
O   O72       1.0  0.54325  0.06395  0.93605  1.0000 -1.1618161895
O   O73       1.0  0.04540  0.04540  0.41078  1.0000 -1.1618161895
O   O74       1.0  0.04540  0.04540  0.49842  1.0000 -1.1618161895
O   O75       1.0  0.41078  0.49842  0.04540  1.0000 -1.1618161895
O   O76       1.0  0.49842  0.41078  0.04540  1.0000 -1.1618161895
O   O77       1.0  0.41078  0.04540  0.04540  1.0000 -1.1618161895
O   O78       1.0  0.49842  0.04540  0.04540  1.0000 -1.1618161895
O   O79       1.0  0.04540  0.41078  0.49842  1.0000 -1.1618161895
O   O80       1.0  0.04540  0.49842  0.41078  1.0000 -1.1682629688
O   O81       1.0  0.04540  0.41078  0.04540  1.0000 -1.1618161895
O   O82       1.0  0.04540  0.49842  0.04540  1.0000 -1.1618161895
O   O83       1.0  0.49842  0.04540  0.41078  1.0000 -1.1682629688
O   O84       1.0  0.41078  0.04540  0.49842  1.0000 -1.1618161895
O   O85       1.0  0.95460  0.95460  0.50158  1.0000 -1.1618161895
O   O86       1.0  0.95460  0.95460  0.58922  1.0000 -1.1618161895
O   O87       1.0  0.58922  0.50158  0.95460  1.0000 -1.1618161895
O   O88       1.0  0.50158  0.58922  0.95460  1.0000 -1.1618161895
O   O89       1.0  0.58922  0.95460  0.50158  1.0000 -1.1618161895
O   O90       1.0  0.50158  0.95460  0.58922  1.0000 -1.1618161895
O   O91       1.0  0.95460  0.58922  0.95460  1.0000 -1.1618161895
O   O92       1.0  0.95460  0.50158  0.95460  1.0000 -1.1618161895
O   O93       1.0  0.95460  0.58922  0.50158  1.0000 -1.1618161895
O   O94       1.0  0.95460  0.50158  0.58922  1.0000 -1.1682629688
O   O95       1.0  0.50158  0.95460  0.95460  1.0000 -1.1618161895
O   O96       1.0  0.58922  0.95460  0.95460  1.0000 -1.1618161895
O   O97       1.0  0.02694  0.84634  0.49042  1.0000 -0.6293566596
O   O98       1.0  0.84634  0.02694  0.63630  1.0000 -0.6293566596
O   O99       1.0  0.49042  0.63630  0.02694  1.0000 -0.6293566596
O   O100      1.0  0.63630  0.49042  0.84634  1.0000 -0.6293566596
O   O101      1.0  0.49042  0.02694  0.84634  1.0000 -0.6293566596
O   O102      1.0  0.63630  0.84634  0.02694  1.0000 -0.6293566596
O   O103      1.0  0.02694  0.49042  0.63630  1.0000 -0.6293566596
O   O104      1.0  0.84634  0.63630  0.49042  1.0000 -0.6293566596
O   O105      1.0  0.84634  0.49042  0.02694  1.0000 -0.6293566596
O   O106      1.0  0.02694  0.63630  0.84634  1.0000 -0.6293566596
O   O107      1.0  0.63630  0.02694  0.49042  1.0000 -0.6293566596
O   O108      1.0  0.49042  0.84634  0.63630  1.0000 -0.6293566596
O   O109      1.0  0.97306  0.15366  0.36370  1.0000 -0.6293566596
O   O110      1.0  0.15366  0.97306  0.50958  1.0000 -0.6293566596
O   O111      1.0  0.50958  0.36370  0.15366  1.0000 -0.6293566596
O   O112      1.0  0.36370  0.50958  0.97306  1.0000 -0.6293566596
O   O113      1.0  0.50958  0.97306  0.36370  1.0000 -0.6293566596
O   O114      1.0  0.36370  0.15366  0.50958  1.0000 -0.6293566596
O   O115      1.0  0.97306  0.50958  0.15366  1.0000 -0.6293566596
O   O116      1.0  0.15366  0.36370  0.97306  1.0000 -0.6293566596
O   O117      1.0  0.15366  0.50958  0.36370  1.0000 -0.6293566596
O   O118      1.0  0.97306  0.36370  0.50958  1.0000 -0.6293566596
O   O119      1.0  0.36370  0.97306  0.15366  1.0000 -0.6293566596
O   O120      1.0  0.50958  0.15366  0.97306  1.0000 -0.6293566596
O   O121      1.0  0.97306  0.15366  0.50958  1.0000 -0.6293566596
O   O122      1.0  0.15366  0.97306  0.36370  1.0000 -0.6293566596
O   O123      1.0  0.50958  0.36370  0.97306  1.0000 -0.6293566596
O   O124      1.0  0.36370  0.50958  0.15366  1.0000 -0.6293566596
O   O125      1.0  0.50958  0.97306  0.15366  1.0000 -0.6293566596
O   O126      1.0  0.36370  0.15366  0.97306  1.0000 -0.6293566596
O   O127      1.0  0.97306  0.50958  0.36370  1.0000 -0.6240489321
O   O128      1.0  0.15366  0.36370  0.50958  1.0000 -0.6293566596
O   O129      1.0  0.15366  0.50958  0.97306  1.0000 -0.6293566596
O   O130      1.0  0.97306  0.36370  0.15366  1.0000 -0.6293566596
O   O131      1.0  0.36370  0.97306  0.50958  1.0000 -0.6293566596
O   O132      1.0  0.50958  0.15366  0.36370  1.0000 -0.6240489321
O   O133      1.0  0.02694  0.84634  0.63630  1.0000 -0.6293566596
O   O134      1.0  0.84634  0.02694  0.49042  1.0000 -0.6293566596
O   O135      1.0  0.49042  0.63630  0.84634  1.0000 -0.6293566596
O   O136      1.0  0.63630  0.49042  0.02694  1.0000 -0.6293566596
O   O137      1.0  0.49042  0.02694  0.63630  1.0000 -0.6293566596
O   O138      1.0  0.63630  0.84634  0.49042  1.0000 -0.6293566596
O   O139      1.0  0.02694  0.49042  0.84634  1.0000 -0.6293566596
O   O140      1.0  0.84634  0.63630  0.02694  1.0000 -0.6293566596
O   O141      1.0  0.84634  0.49042  0.63630  1.0000 -0.6293566596
O   O142      1.0  0.02694  0.63630  0.49042  1.0000 -0.6293566596
O   O143      1.0  0.63630  0.02694  0.84634  1.0000 -0.6293566596
O   O144      1.0  0.49042  0.84634  0.02694  1.0000 -0.6293566596
