# DDEC6 charges by PACMAN v1.1 (https://github.com/mtap-research/PACMAN-charge/)
data_2023[ZnTi][nan]3[ASR]7
_chemical_formula_sum              "Ti8 Zn6 H246 C384 N30 O72"
_cell_length_a       20.7678
_cell_length_b       20.7678
_cell_length_c       30.7487
_cell_angle_alpha    90
_cell_angle_beta     90
_cell_angle_gamma    120

_symmetry_space_group_name_H-M    "P 1"
_symmetry_Int_Tables_number       1

loop_
  _symmetry_equiv_pos_as_xyz
  'x, y, z'

loop_
  _atom_site_type_symbol
  _atom_site_label
  _atom_site_symmetry_multiplicity
  _atom_site_fract_x
  _atom_site_fract_y
  _atom_site_fract_z
  _atom_site_occupancy
  _atom_site_charge
Ti  Ti1       1.0  0.56747  0.51376  0.44425  1.0000 1.9004090135
Ti  Ti2       1.0  0.48624  0.05371  0.44425  1.0000 1.9004090135
Ti  Ti3       1.0  0.94629  0.43253  0.44425  1.0000 1.9004090135
Ti  Ti4       1.0  0.43253  0.48624  0.94425  1.0000 1.9004090135
Ti  Ti5       1.0  0.51376  0.94629  0.94425  1.0000 1.9004090135
Ti  Ti6       1.0  0.05371  0.56747  0.94425  1.0000 1.9004090135
Ti  Ti7       1.0  0.66667  0.33333  0.20325  1.0000 1.8928499326
Ti  Ti8       1.0  0.33333  0.66667  0.70325  1.0000 1.8928499326
Zn  Zn1       1.0  0.26678  0.84034  0.45381  1.0000 0.7330572113
Zn  Zn2       1.0  0.15966  0.42644  0.45381  1.0000 0.7330572113
Zn  Zn3       1.0  0.57356  0.73322  0.45381  1.0000 0.7330572113
Zn  Zn4       1.0  0.73322  0.15966  0.95381  1.0000 0.7330572113
Zn  Zn5       1.0  0.84034  0.57356  0.95381  1.0000 0.7330572113
Zn  Zn6       1.0  0.42644  0.26678  0.95381  1.0000 0.7330572113
H   H1        1.0  0.34282  0.81062  0.50025  1.0000 0.3079561695
H   H2        1.0  0.18938  0.53220  0.50025  1.0000 0.3079561695
H   H3        1.0  0.46780  0.65718  0.50025  1.0000 0.3079561695
H   H4        1.0  0.65718  0.18938  0.00025  1.0000 0.3079561695
H   H5        1.0  0.81062  0.46780  0.00025  1.0000 0.3079561695
H   H6        1.0  0.53220  0.34282  0.00025  1.0000 0.3079561695
H   H7        1.0  0.38717  0.88873  0.48876  1.0000 0.3167736635
H   H8        1.0  0.11127  0.49844  0.48876  1.0000 0.3167736635
H   H9        1.0  0.50156  0.61283  0.48876  1.0000 0.3167736635
H   H10       1.0  0.61283  0.11127  0.98876  1.0000 0.3167736635
H   H11       1.0  0.88873  0.50156  0.98876  1.0000 0.3167736635
H   H12       1.0  0.49844  0.38717  0.98876  1.0000 0.3167736635
H   H13       1.0  0.37907  0.83193  0.45806  1.0000 0.3048907374
H   H14       1.0  0.16807  0.54714  0.45806  1.0000 0.3048907374
H   H15       1.0  0.45286  0.62093  0.45806  1.0000 0.3048907374
H   H16       1.0  0.62093  0.16807  0.95806  1.0000 0.3048907374
H   H17       1.0  0.83193  0.45286  0.95806  1.0000 0.3048907374
H   H18       1.0  0.54714  0.37907  0.95806  1.0000 0.3048907374
H   H19       1.0  0.48560  0.29895  0.44302  1.0000 0.1307869366
H   H20       1.0  0.70105  0.18665  0.44302  1.0000 0.1307869366
H   H21       1.0  0.81335  0.51440  0.44302  1.0000 0.1307869366
H   H22       1.0  0.51440  0.70105  0.94302  1.0000 0.1307869366
H   H23       1.0  0.29895  0.81335  0.94302  1.0000 0.1307869366
H   H24       1.0  0.18665  0.48560  0.94302  1.0000 0.1307869366
H   H25       1.0  0.51544  0.25169  0.46572  1.0000 0.1307869366
H   H26       1.0  0.74831  0.26375  0.46572  1.0000 0.1307869366
H   H27       1.0  0.73625  0.48456  0.46572  1.0000 0.1307869366
H   H28       1.0  0.48456  0.74831  0.96572  1.0000 0.1307869366
H   H29       1.0  0.25169  0.73625  0.96572  1.0000 0.1307869366
H   H30       1.0  0.26375  0.51544  0.96572  1.0000 0.1307869366
H   H31       1.0  0.52539  0.42855  0.60852  1.0000 0.1199402516
H   H32       1.0  0.57145  0.09684  0.60852  1.0000 0.1199402516
H   H33       1.0  0.90316  0.47461  0.60852  1.0000 0.1199402516
H   H34       1.0  0.47461  0.57145  0.10852  1.0000 0.1199402516
H   H35       1.0  0.42855  0.90316  0.10852  1.0000 0.1199402516
H   H36       1.0  0.09684  0.52539  0.10852  1.0000 0.1199402516
H   H37       1.0  0.59581  0.40391  0.29845  1.0000 0.1383109807
H   H38       1.0  0.59609  0.19190  0.29845  1.0000 0.1383109807
H   H39       1.0  0.80810  0.40419  0.29845  1.0000 0.1383109807
H   H40       1.0  0.40419  0.59609  0.79845  1.0000 0.1383109807
H   H41       1.0  0.40391  0.80810  0.79845  1.0000 0.1383109807
H   H42       1.0  0.19190  0.59581  0.79845  1.0000 0.1383109807
H   H43       1.0  0.63516  0.46086  0.33629  1.0000 0.1307869366
H   H44       1.0  0.53914  0.17430  0.33629  1.0000 0.1307869366
H   H45       1.0  0.82570  0.36484  0.33629  1.0000 0.1307869366
H   H46       1.0  0.36484  0.53914  0.83629  1.0000 0.1307869366
H   H47       1.0  0.46086  0.82570  0.83629  1.0000 0.1307869366
H   H48       1.0  0.17430  0.63516  0.83629  1.0000 0.1307869366
H   H49       1.0  0.06517  0.59807  0.51405  1.0000 0.1472939923
H   H50       1.0  0.40193  0.46710  0.51405  1.0000 0.1472939923
H   H51       1.0  0.53290  0.93483  0.51405  1.0000 0.1472939923
H   H52       1.0  0.93483  0.40193  0.01405  1.0000 0.1472939923
H   H53       1.0  0.59807  0.53290  0.01405  1.0000 0.1472939923
H   H54       1.0  0.46710  0.06517  0.01405  1.0000 0.1472939923
H   H55       1.0  0.80700  0.62961  0.19039  1.0000 0.1199402516
H   H56       1.0  0.37039  0.17739  0.19039  1.0000 0.1199402516
H   H57       1.0  0.82261  0.19300  0.19039  1.0000 0.1199402516
H   H58       1.0  0.19300  0.37039  0.69039  1.0000 0.1199402516
H   H59       1.0  0.62961  0.82261  0.69039  1.0000 0.1199402516
H   H60       1.0  0.17739  0.80700  0.69039  1.0000 0.1199402516
H   H61       1.0  0.74128  0.71546  0.35062  1.0000 0.1127031843
H   H62       1.0  0.28454  0.02582  0.35062  1.0000 0.1127031843
H   H63       1.0  0.97418  0.25872  0.35062  1.0000 0.1127031843
H   H64       1.0  0.25872  0.28454  0.85062  1.0000 0.1127031843
H   H65       1.0  0.71546  0.97418  0.85062  1.0000 0.1127031843
H   H66       1.0  0.02582  0.74128  0.85062  1.0000 0.1127031843
H   H67       1.0  0.54836  0.41530  0.23000  1.0000 0.1307869366
H   H68       1.0  0.58470  0.13306  0.23000  1.0000 0.1307869366
H   H69       1.0  0.86694  0.45164  0.23000  1.0000 0.1307869366
H   H70       1.0  0.45164  0.58470  0.73000  1.0000 0.1307869366
H   H71       1.0  0.41530  0.86694  0.73000  1.0000 0.1307869366
H   H72       1.0  0.13306  0.54836  0.73000  1.0000 0.1307869366
H   H73       1.0  0.17001  0.81361  0.53881  1.0000 0.1307869366
H   H74       1.0  0.18639  0.35640  0.53881  1.0000 0.1307869366
H   H75       1.0  0.64360  0.82999  0.53881  1.0000 0.1307869366
H   H76       1.0  0.82999  0.18639  0.03881  1.0000 0.1307869366
H   H77       1.0  0.81361  0.64360  0.03881  1.0000 0.1307869366
H   H78       1.0  0.35640  0.17001  0.03881  1.0000 0.1307869366
H   H79       1.0  0.15626  0.66387  0.45599  1.0000 0.1307869366
H   H80       1.0  0.33613  0.49239  0.45599  1.0000 0.1307869366
H   H81       1.0  0.50761  0.84374  0.45599  1.0000 0.1307869366
H   H82       1.0  0.84374  0.33613  0.95599  1.0000 0.1307869366
H   H83       1.0  0.66387  0.50761  0.95599  1.0000 0.1307869366
H   H84       1.0  0.49239  0.15626  0.95599  1.0000 0.1383109807
H   H85       1.0  0.90946  0.59499  0.86187  1.0000 0.1307869366
H   H86       1.0  0.40501  0.31447  0.86187  1.0000 0.1307869366
H   H87       1.0  0.68553  0.09054  0.86187  1.0000 0.1307869366
H   H88       1.0  0.09054  0.40501  0.36187  1.0000 0.1307869366
H   H89       1.0  0.59499  0.68553  0.36187  1.0000 0.1307869366
H   H90       1.0  0.31447  0.90946  0.36187  1.0000 0.1307869366
H   H91       1.0  0.39603  0.51462  0.31613  1.0000 0.1127031843
H   H92       1.0  0.48538  0.88141  0.31613  1.0000 0.1127031843
H   H93       1.0  0.11859  0.60397  0.31613  1.0000 0.1127031843
H   H94       1.0  0.60397  0.48538  0.81613  1.0000 0.1127031843
H   H95       1.0  0.51462  0.11859  0.81613  1.0000 0.1127031843
H   H96       1.0  0.88141  0.39603  0.81613  1.0000 0.1127031843
H   H97       1.0  0.08043  0.60511  0.59945  1.0000 0.1472939923
H   H98       1.0  0.39489  0.47532  0.59945  1.0000 0.1472939923
H   H99       1.0  0.52468  0.91957  0.59945  1.0000 0.1472939923
H   H100      1.0  0.91957  0.39489  0.09945  1.0000 0.1383109807
H   H101      1.0  0.60511  0.52468  0.09945  1.0000 0.1383109807
H   H102      1.0  0.47532  0.08043  0.09945  1.0000 0.1383109807
H   H103      1.0  0.47663  0.40504  0.17108  1.0000 0.1307869366
H   H104      1.0  0.59496  0.07159  0.17108  1.0000 0.1307869366
H   H105      1.0  0.92841  0.52337  0.17108  1.0000 0.1307869366
H   H106      1.0  0.52337  0.59496  0.67108  1.0000 0.1307869366
H   H107      1.0  0.40504  0.92841  0.67108  1.0000 0.1307869366
H   H108      1.0  0.07159  0.47663  0.67108  1.0000 0.1307869366
H   H109      1.0  0.46459  0.17650  0.53337  1.0000 0.1199402516
H   H110      1.0  0.82350  0.28809  0.53337  1.0000 0.1199402516
H   H111      1.0  0.71191  0.53541  0.53337  1.0000 0.1199402516
H   H112      1.0  0.53541  0.82350  0.03337  1.0000 0.1199402516
H   H113      1.0  0.17650  0.71191  0.03337  1.0000 0.1199402516
H   H114      1.0  0.28809  0.46459  0.03337  1.0000 0.1199402516
H   H115      1.0  0.67851  0.59063  0.34376  1.0000 0.1199402516
H   H116      1.0  0.40937  0.08788  0.34376  1.0000 0.1199402516
H   H117      1.0  0.91212  0.32149  0.34376  1.0000 0.1199402516
H   H118      1.0  0.32149  0.40937  0.84376  1.0000 0.1199402516
H   H119      1.0  0.59063  0.91212  0.84376  1.0000 0.1199402516
H   H120      1.0  0.08788  0.67851  0.84376  1.0000 0.1199402516
H   H121      1.0  0.49710  0.32095  0.65514  1.0000 0.1199402516
H   H122      1.0  0.67905  0.17615  0.65514  1.0000 0.1199402516
H   H123      1.0  0.82385  0.50290  0.65514  1.0000 0.1199402516
H   H124      1.0  0.50290  0.67905  0.15514  1.0000 0.1199402516
H   H125      1.0  0.32095  0.82385  0.15514  1.0000 0.1199402516
H   H126      1.0  0.17615  0.49710  0.15514  1.0000 0.1199402516
H   H127      1.0  0.45399  0.12929  0.60222  1.0000 0.1199402516
H   H128      1.0  0.87071  0.32470  0.60222  1.0000 0.1199402516
H   H129      1.0  0.67530  0.54601  0.60222  1.0000 0.1199402516
H   H130      1.0  0.54601  0.87071  0.10222  1.0000 0.1199402516
H   H131      1.0  0.12929  0.67530  0.10222  1.0000 0.1199402516
H   H132      1.0  0.32470  0.45399  0.10222  1.0000 0.1199402516
H   H133      1.0  0.47145  0.20204  0.66288  1.0000 0.1127031843
H   H134      1.0  0.79796  0.26941  0.66288  1.0000 0.1127031843
H   H135      1.0  0.73059  0.52855  0.66288  1.0000 0.1127031843
H   H136      1.0  0.52855  0.79796  0.16288  1.0000 0.1127031843
H   H137      1.0  0.20204  0.73059  0.16288  1.0000 0.1127031843
H   H138      1.0  0.26941  0.47145  0.16288  1.0000 0.1127031843
H   H139      1.0  0.82834  0.67203  0.75477  1.0000 0.1307869366
H   H140      1.0  0.32797  0.15631  0.75477  1.0000 0.1307869366
H   H141      1.0  0.84369  0.17166  0.75477  1.0000 0.1307869366
H   H142      1.0  0.17166  0.32797  0.25477  1.0000 0.1307869366
H   H143      1.0  0.67203  0.84369  0.25477  1.0000 0.1307869366
H   H144      1.0  0.15631  0.82834  0.25477  1.0000 0.1307869366
H   H145      1.0  0.36815  0.48494  0.23822  1.0000 0.1127031843
H   H146      1.0  0.51506  0.88321  0.23822  1.0000 0.1127031843
H   H147      1.0  0.11679  0.63185  0.23822  1.0000 0.1127031843
H   H148      1.0  0.63185  0.51506  0.73822  1.0000 0.1127031843
H   H149      1.0  0.48494  0.11679  0.73822  1.0000 0.1127031843
H   H150      1.0  0.88321  0.36815  0.73822  1.0000 0.1127031843
H   H151      1.0  0.39192  0.44729  0.17411  1.0000 0.1199402516
H   H152      1.0  0.55271  0.94463  0.17411  1.0000 0.1199402516
H   H153      1.0  0.05537  0.60808  0.17411  1.0000 0.1199402516
H   H154      1.0  0.60808  0.55271  0.67411  1.0000 0.1199402516
H   H155      1.0  0.44729  0.05537  0.67411  1.0000 0.1199402516
H   H156      1.0  0.94463  0.39192  0.67411  1.0000 0.1199402516
H   H157      1.0  0.93292  0.56375  0.79371  1.0000 0.1199402516
H   H158      1.0  0.43625  0.36917  0.79371  1.0000 0.1199402516
H   H159      1.0  0.63083  0.06708  0.79371  1.0000 0.1199402516
H   H160      1.0  0.06708  0.43625  0.29371  1.0000 0.1199402516
H   H161      1.0  0.56375  0.63083  0.29371  1.0000 0.1199402516
H   H162      1.0  0.36917  0.93292  0.29371  1.0000 0.1199402516
H   H163      1.0  0.01920  0.58471  0.66547  1.0000 0.1199402516
H   H164      1.0  0.41529  0.43449  0.66547  1.0000 0.1199402516
H   H165      1.0  0.56551  0.98080  0.66547  1.0000 0.1199402516
H   H166      1.0  0.98080  0.41529  0.16547  1.0000 0.1199402516
H   H167      1.0  0.58471  0.56551  0.16547  1.0000 0.1199402516
H   H168      1.0  0.43449  0.01920  0.16547  1.0000 0.1199402516
H   H169      1.0  0.27520  0.32015  0.46356  1.0000 0.1011603466
H   H170      1.0  0.67985  0.95505  0.46356  1.0000 0.1011603466
H   H171      1.0  0.04495  0.72480  0.46356  1.0000 0.1011603466
H   H172      1.0  0.72480  0.67985  0.96356  1.0000 0.1011603466
H   H173      1.0  0.32015  0.04495  0.96356  1.0000 0.1011603466
H   H174      1.0  0.95505  0.27520  0.96356  1.0000 0.1011603466
H   H175      1.0  0.38266  0.31728  0.46363  1.0000 0.1199402516
H   H176      1.0  0.68272  0.06538  0.46363  1.0000 0.1199402516
H   H177      1.0  0.93462  0.61734  0.46363  1.0000 0.1199402516
H   H178      1.0  0.61734  0.68272  0.96363  1.0000 0.1199402516
H   H179      1.0  0.31728  0.93462  0.96363  1.0000 0.1199402516
H   H180      1.0  0.06538  0.38266  0.96363  1.0000 0.1199402516
H   H181      1.0  0.81735  0.79315  0.29373  1.0000 0.1127031843
H   H182      1.0  0.20685  0.02420  0.29373  1.0000 0.1127031843
H   H183      1.0  0.97580  0.18265  0.29373  1.0000 0.1127031843
H   H184      1.0  0.18265  0.20685  0.79373  1.0000 0.1127031843
H   H185      1.0  0.79315  0.97580  0.79373  1.0000 0.1127031843
H   H186      1.0  0.02420  0.81735  0.79373  1.0000 0.1127031843
H   H187      1.0  0.21712  0.02331  0.46193  1.0000 0.1199402516
H   H188      1.0  0.97669  0.19381  0.46193  1.0000 0.1199402516
H   H189      1.0  0.80619  0.78288  0.46193  1.0000 0.1199402516
H   H190      1.0  0.78288  0.97669  0.96193  1.0000 0.1199402516
H   H191      1.0  0.02331  0.80619  0.96193  1.0000 0.1199402516
H   H192      1.0  0.19381  0.21712  0.96193  1.0000 0.1199402516
H   H193      1.0  0.88467  0.69037  0.68765  1.0000 0.1199402516
H   H194      1.0  0.30963  0.19430  0.68765  1.0000 0.1199402516
H   H195      1.0  0.80570  0.11533  0.68765  1.0000 0.1199402516
H   H196      1.0  0.11533  0.30963  0.18765  1.0000 0.1199402516
H   H197      1.0  0.69037  0.80570  0.18765  1.0000 0.1199402516
H   H198      1.0  0.19430  0.88467  0.18765  1.0000 0.1199402516
H   H199      1.0  0.82986  0.73987  0.23098  1.0000 0.1199402516
H   H200      1.0  0.26013  0.08999  0.23098  1.0000 0.1199402516
H   H201      1.0  0.91001  0.17014  0.23098  1.0000 0.1199402516
H   H202      1.0  0.17014  0.26013  0.73098  1.0000 0.1199402516
H   H203      1.0  0.73987  0.91001  0.73098  1.0000 0.1199402516
H   H204      1.0  0.08999  0.82986  0.73098  1.0000 0.1199402516
H   H205      1.0  0.15162  0.09735  0.46434  1.0000 0.1199402516
H   H206      1.0  0.90265  0.05427  0.46434  1.0000 0.1199402516
H   H207      1.0  0.94573  0.84838  0.46434  1.0000 0.1199402516
H   H208      1.0  0.84838  0.90265  0.96434  1.0000 0.1199402516
H   H209      1.0  0.09735  0.94573  0.96434  1.0000 0.1199402516
H   H210      1.0  0.05427  0.15162  0.96434  1.0000 0.1199402516
H   H211      1.0  0.98233  0.75049  0.64242  1.0000 0.1199402516
H   H212      1.0  0.24951  0.23184  0.64242  1.0000 0.1199402516
H   H213      1.0  0.76816  0.01767  0.64242  1.0000 0.1199402516
H   H214      1.0  0.01767  0.24951  0.14242  1.0000 0.1199402516
H   H215      1.0  0.75049  0.76816  0.14242  1.0000 0.1199402516
H   H216      1.0  0.23184  0.98233  0.14242  1.0000 0.1199402516
H   H217      1.0  0.73840  0.60305  0.81154  1.0000 0.1307869366
H   H218      1.0  0.39695  0.13535  0.81154  1.0000 0.1307869366
H   H219      1.0  0.86465  0.26160  0.81154  1.0000 0.1307869366
H   H220      1.0  0.26160  0.39695  0.31154  1.0000 0.1307869366
H   H221      1.0  0.60305  0.86465  0.31154  1.0000 0.1307869366
H   H222      1.0  0.13535  0.73840  0.31154  1.0000 0.1307869366
H   H223      1.0  0.71684  0.57361  0.88934  1.0000 0.1307869366
H   H224      1.0  0.42639  0.14323  0.88934  1.0000 0.1307869366
H   H225      1.0  0.85677  0.28316  0.88934  1.0000 0.1307869366
H   H226      1.0  0.28316  0.42639  0.38934  1.0000 0.1307869366
H   H227      1.0  0.57361  0.85677  0.38934  1.0000 0.1307869366
H   H228      1.0  0.14323  0.71684  0.38934  1.0000 0.1307869366
H   H229      1.0  0.02715  0.75856  0.57105  1.0000 0.1307869366
H   H230      1.0  0.24144  0.26859  0.57105  1.0000 0.1307869366
H   H231      1.0  0.73141  0.97285  0.57105  1.0000 0.1307869366
H   H232      1.0  0.97285  0.24144  0.07105  1.0000 0.1307869366
H   H233      1.0  0.75856  0.73141  0.07105  1.0000 0.1307869366
H   H234      1.0  0.26859  0.02715  0.07105  1.0000 0.1307869366
H   H235      1.0  0.99175  0.58714  0.72740  1.0000 0.1127031843
H   H236      1.0  0.41286  0.40461  0.72740  1.0000 0.1127031843
H   H237      1.0  0.59539  0.00825  0.72740  1.0000 0.1127031843
H   H238      1.0  0.00825  0.41286  0.22740  1.0000 0.1127031843
H   H239      1.0  0.58714  0.59539  0.22740  1.0000 0.1127031843
H   H240      1.0  0.40461  0.99175  0.22740  1.0000 0.1127031843
H   H241      1.0  0.15917  0.21078  0.46575  1.0000 0.1199402516
H   H242      1.0  0.78922  0.94839  0.46575  1.0000 0.1199402516
H   H243      1.0  0.05161  0.84083  0.46575  1.0000 0.1199402516
H   H244      1.0  0.84083  0.78922  0.96575  1.0000 0.1199402516
H   H245      1.0  0.21078  0.05161  0.96575  1.0000 0.1199402516
H   H246      1.0  0.94839  0.15917  0.96575  1.0000 0.1199402516
C   C1        1.0  0.45160  0.52790  0.39340  1.0000 0.5847612326
C   C2        1.0  0.47210  0.92370  0.39340  1.0000 0.5847612326
C   C3        1.0  0.07630  0.54840  0.39340  1.0000 0.5847612326
C   C4        1.0  0.54840  0.47210  0.89340  1.0000 0.5847612326
C   C5        1.0  0.52790  0.07630  0.89340  1.0000 0.5847612326
C   C6        1.0  0.92370  0.45160  0.89340  1.0000 0.5847612326
C   C7        1.0  0.49310  0.31260  0.50900  1.0000 -0.020921458
C   C8        1.0  0.68740  0.18050  0.50900  1.0000 -0.020921458
C   C9        1.0  0.81950  0.50690  0.50900  1.0000 -0.020921458
C   C10       1.0  0.50690  0.68740  0.00900  1.0000 -0.020921458
C   C11       1.0  0.31260  0.81950  0.00900  1.0000 -0.020921458
C   C12       1.0  0.18050  0.49310  0.00900  1.0000 -0.020921458
C   C13       1.0  0.69020  0.47640  0.24000  1.0000 0.2398665577
C   C14       1.0  0.52360  0.21380  0.24000  1.0000 0.2398665577
C   C15       1.0  0.78620  0.30980  0.24000  1.0000 0.2398665577
C   C16       1.0  0.30980  0.52360  0.74000  1.0000 0.2398665577
C   C17       1.0  0.47640  0.78620  0.74000  1.0000 0.2398665577
C   C18       1.0  0.21380  0.69020  0.74000  1.0000 0.2398665577
C   C19       1.0  0.49860  0.32470  0.58860  1.0000 0.0596005513
C   C20       1.0  0.67530  0.17390  0.58860  1.0000 0.0596005513
C   C21       1.0  0.82610  0.50140  0.58860  1.0000 0.0596005513
C   C22       1.0  0.50140  0.67530  0.08860  1.0000 0.0596005513
C   C23       1.0  0.32470  0.82610  0.08860  1.0000 0.0596005513
C   C24       1.0  0.17390  0.49860  0.08860  1.0000 0.0596005513
C   C25       1.0  0.67460  0.50690  0.27610  1.0000 -0.0327847234
C   C26       1.0  0.49310  0.16770  0.27610  1.0000 -0.0327847234
C   C27       1.0  0.83230  0.32540  0.27610  1.0000 -0.0327847234
C   C28       1.0  0.32540  0.49310  0.77610  1.0000 -0.0327847234
C   C29       1.0  0.50690  0.83230  0.77610  1.0000 -0.0327847234
C   C30       1.0  0.16770  0.67460  0.77610  1.0000 -0.0327847234
C   C31       1.0  0.54620  0.51140  0.54210  1.0000 0.5942753657
C   C32       1.0  0.48860  0.03480  0.54210  1.0000 0.5942753657
C   C33       1.0  0.96520  0.45380  0.54210  1.0000 0.5942753657
C   C34       1.0  0.45380  0.48860  0.04210  1.0000 0.5942753657
C   C35       1.0  0.51140  0.96520  0.04210  1.0000 0.5942753657
C   C36       1.0  0.03480  0.54620  0.04210  1.0000 0.5942753657
C   C37       1.0  0.31990  0.98950  0.45090  1.0000 0.608509392
C   C38       1.0  0.01050  0.33040  0.45090  1.0000 0.608509392
C   C39       1.0  0.66960  0.68010  0.45090  1.0000 0.608509392
C   C40       1.0  0.68010  0.01050  0.95090  1.0000 0.608509392
C   C41       1.0  0.98950  0.66960  0.95090  1.0000 0.608509392
C   C42       1.0  0.33040  0.31990  0.95090  1.0000 0.608509392
C   C43       1.0  0.48780  0.28070  0.55060  1.0000 0.0474445135
C   C44       1.0  0.71930  0.20710  0.55060  1.0000 0.0474445135
C   C45       1.0  0.79290  0.51220  0.55060  1.0000 0.0474445135
C   C46       1.0  0.51220  0.71930  0.05060  1.0000 0.0474445135
C   C47       1.0  0.28070  0.79290  0.05060  1.0000 0.0474445135
C   C48       1.0  0.20710  0.48780  0.05060  1.0000 0.0474445135
C   C49       1.0  0.47840  0.26690  0.46770  1.0000 -0.2455372856
C   C50       1.0  0.73310  0.21150  0.46770  1.0000 -0.2455372856
C   C51       1.0  0.78850  0.52160  0.46770  1.0000 -0.2455372856
C   C52       1.0  0.52160  0.73310  0.96770  1.0000 -0.2455372856
C   C53       1.0  0.26690  0.78850  0.96770  1.0000 -0.2455372856
C   C54       1.0  0.21150  0.47840  0.96770  1.0000 -0.2455372856
C   C55       1.0  0.51840  0.39990  0.58380  1.0000 -0.1495389397
C   C56       1.0  0.60010  0.11850  0.58380  1.0000 -0.1495389397
C   C57       1.0  0.88150  0.48160  0.58380  1.0000 -0.1495389397
C   C58       1.0  0.48160  0.60010  0.08380  1.0000 -0.1495389397
C   C59       1.0  0.39990  0.88150  0.08380  1.0000 -0.1495389397
C   C60       1.0  0.11850  0.51840  0.08380  1.0000 -0.1495389397
C   C61       1.0  0.39660  0.12970  0.45800  1.0000 0.2581674262
C   C62       1.0  0.87030  0.26690  0.45800  1.0000 0.2581674262
C   C63       1.0  0.73310  0.60340  0.45800  1.0000 0.2581674262
C   C64       1.0  0.60340  0.87030  0.95800  1.0000 0.2581674262
C   C65       1.0  0.12970  0.73310  0.95800  1.0000 0.2581674262
C   C66       1.0  0.26690  0.39660  0.95800  1.0000 0.2581674262
C   C67       1.0  0.52750  0.43180  0.54380  1.0000 -0.1495389397
C   C68       1.0  0.56820  0.09570  0.54380  1.0000 -0.1495389397
C   C69       1.0  0.90430  0.47250  0.54380  1.0000 -0.1495389397
C   C70       1.0  0.47250  0.56820  0.04380  1.0000 -0.1495389397
C   C71       1.0  0.43180  0.90430  0.04380  1.0000 -0.1495389397
C   C72       1.0  0.09570  0.52750  0.04380  1.0000 -0.1495389397
C   C73       1.0  0.61380  0.45490  0.30750  1.0000 -0.2406195348
C   C74       1.0  0.54510  0.15890  0.30750  1.0000 -0.2406195348
C   C75       1.0  0.84110  0.38620  0.30750  1.0000 -0.2406195348
C   C76       1.0  0.38620  0.54510  0.80750  1.0000 -0.2406195348
C   C77       1.0  0.45490  0.84110  0.80750  1.0000 -0.2406195348
C   C78       1.0  0.15890  0.61380  0.80750  1.0000 -0.2406195348
C   C79       1.0  0.40260  0.19850  0.46360  1.0000 -0.0327847234
C   C80       1.0  0.80150  0.20410  0.46360  1.0000 -0.0327847234
C   C81       1.0  0.79590  0.59740  0.46360  1.0000 -0.0327847234
C   C82       1.0  0.59740  0.80150  0.96360  1.0000 -0.0327847234
C   C83       1.0  0.19850  0.79590  0.96360  1.0000 -0.0327847234
C   C84       1.0  0.20410  0.40260  0.96360  1.0000 -0.0327847234
C   C85       1.0  0.47190  0.50520  0.35180  1.0000 -0.1606767744
C   C86       1.0  0.49480  0.96670  0.35180  1.0000 -0.1606767744
C   C87       1.0  0.03330  0.52810  0.35180  1.0000 -0.1606767744
C   C88       1.0  0.52810  0.49480  0.85180  1.0000 -0.1606767744
C   C89       1.0  0.50520  0.03330  0.85180  1.0000 -0.1606767744
C   C90       1.0  0.96670  0.47190  0.85180  1.0000 -0.1606767744
C   C91       1.0  0.71430  0.58450  0.28270  1.0000 0.0431555614
C   C92       1.0  0.41550  0.12980  0.28270  1.0000 0.0431555614
C   C93       1.0  0.87020  0.28570  0.28270  1.0000 0.0431555614
C   C94       1.0  0.28570  0.41550  0.78270  1.0000 0.0431555614
C   C95       1.0  0.58450  0.87020  0.78270  1.0000 0.0431555614
C   C96       1.0  0.12980  0.71430  0.78270  1.0000 0.0431555614
C   C97       1.0  0.09710  0.64910  0.51200  1.0000 -0.0756670133
C   C98       1.0  0.35090  0.44800  0.51200  1.0000 -0.0756670133
C   C99       1.0  0.55200  0.90290  0.51200  1.0000 -0.0756670133
C   C100      1.0  0.90290  0.35090  0.01200  1.0000 -0.0756670133
C   C101      1.0  0.64910  0.55200  0.01200  1.0000 -0.0756670133
C   C102      1.0  0.44800  0.09710  0.01200  1.0000 -0.0756670133
C   C103      1.0  0.86970  0.60860  0.77930  1.0000 0.1599495292
C   C104      1.0  0.39140  0.26110  0.77930  1.0000 0.1599495292
C   C105      1.0  0.73890  0.13030  0.77930  1.0000 0.1599495292
C   C106      1.0  0.13030  0.39140  0.27930  1.0000 0.1599495292
C   C107      1.0  0.60860  0.73890  0.27930  1.0000 0.1599495292
C   C108      1.0  0.26110  0.86970  0.27930  1.0000 0.1599495292
C   C109      1.0  0.74020  0.52180  0.20710  1.0000 -0.1411521447
C   C110      1.0  0.47820  0.21840  0.20710  1.0000 -0.1411521447
C   C111      1.0  0.78160  0.25980  0.20710  1.0000 -0.1411521447
C   C112      1.0  0.25980  0.47820  0.70710  1.0000 -0.1411521447
C   C113      1.0  0.52180  0.78160  0.70710  1.0000 -0.1411521447
C   C114      1.0  0.21840  0.74020  0.70710  1.0000 -0.1411521447
C   C115      1.0  0.51590  0.38750  0.50600  1.0000 0.2315037206
C   C116      1.0  0.61250  0.12840  0.50600  1.0000 0.2315037206
C   C117      1.0  0.87160  0.48410  0.50600  1.0000 0.2315037206
C   C118      1.0  0.48410  0.61250  0.00600  1.0000 0.2315037206
C   C119      1.0  0.38750  0.87160  0.00600  1.0000 0.2315037206
C   C120      1.0  0.12840  0.51590  0.00600  1.0000 0.2315037206
C   C121      1.0  0.53090  0.48870  0.34920  1.0000 0.2498995567
C   C122      1.0  0.51130  0.04220  0.34920  1.0000 0.2498995567
C   C123      1.0  0.95780  0.46910  0.34920  1.0000 0.2498995567
C   C124      1.0  0.46910  0.51130  0.84920  1.0000 0.2498995567
C   C125      1.0  0.48870  0.95780  0.84920  1.0000 0.2498995567
C   C126      1.0  0.04220  0.53090  0.84920  1.0000 0.2498995567
C   C127      1.0  0.32570  0.06270  0.45720  1.0000 -0.1495389397
C   C128      1.0  0.93730  0.26300  0.45720  1.0000 -0.1495389397
C   C129      1.0  0.73700  0.67430  0.45720  1.0000 -0.1495389397
C   C130      1.0  0.67430  0.93730  0.95720  1.0000 -0.1495389397
C   C131      1.0  0.06270  0.73700  0.95720  1.0000 -0.1495389397
C   C132      1.0  0.26300  0.32570  0.95720  1.0000 -0.1495389397
C   C133      1.0  0.77550  0.59910  0.21220  1.0000 -0.1495389397
C   C134      1.0  0.40090  0.17640  0.21220  1.0000 -0.1495389397
C   C135      1.0  0.82360  0.22450  0.21220  1.0000 -0.1495389397
C   C136      1.0  0.22450  0.40090  0.71220  1.0000 -0.1495389397
C   C137      1.0  0.59910  0.82360  0.71220  1.0000 -0.1495389397
C   C138      1.0  0.17640  0.77550  0.71220  1.0000 -0.1495389397
C   C139      1.0  0.98500  0.65840  0.65850  1.0000 0.0596005513
C   C140      1.0  0.34160  0.32660  0.65850  1.0000 0.0596005513
C   C141      1.0  0.67340  0.01500  0.65850  1.0000 0.0596005513
C   C142      1.0  0.01500  0.34160  0.15850  1.0000 0.0596005513
C   C143      1.0  0.65840  0.67340  0.15850  1.0000 0.0596005513
C   C144      1.0  0.32660  0.98500  0.15850  1.0000 0.0596005513
C   C145      1.0  0.54860  0.46830  0.31000  1.0000 -0.0327847234
C   C146      1.0  0.53170  0.08030  0.31000  1.0000 -0.0327847234
C   C147      1.0  0.91970  0.45140  0.31000  1.0000 -0.0327847234
C   C148      1.0  0.45140  0.53170  0.81000  1.0000 -0.0327847234
C   C149      1.0  0.46830  0.91970  0.81000  1.0000 -0.0327847234
C   C150      1.0  0.08030  0.54860  0.81000  1.0000 -0.0327847234
C   C151      1.0  0.75440  0.49090  0.16670  1.0000 0.608509392
C   C152      1.0  0.50910  0.26350  0.16670  1.0000 0.608509392
C   C153      1.0  0.73650  0.24560  0.16670  1.0000 0.608509392
C   C154      1.0  0.24560  0.50910  0.66667  1.0000 0.608509392
C   C155      1.0  0.49090  0.73650  0.66667  1.0000 0.608509392
C   C156      1.0  0.26350  0.75440  0.66667  1.0000 0.608509392
C   C157      1.0  0.74590  0.69410  0.32510  1.0000 -0.1003394772
C   C158      1.0  0.30590  0.05180  0.32510  1.0000 -0.1003394772
C   C159      1.0  0.94820  0.25410  0.32510  1.0000 -0.1003394772
C   C160      1.0  0.25410  0.30590  0.82510  1.0000 -0.1003394772
C   C161      1.0  0.69410  0.94820  0.82510  1.0000 -0.1003394772
C   C162      1.0  0.05180  0.74590  0.82510  1.0000 -0.1003394772
C   C163      1.0  0.51310  0.43030  0.23220  1.0000 -0.1291361903
C   C164      1.0  0.56970  0.08280  0.23220  1.0000 -0.1291361903
C   C165      1.0  0.91720  0.48690  0.23220  1.0000 -0.1291361903
C   C166      1.0  0.48690  0.56970  0.73220  1.0000 -0.1291361903
C   C167      1.0  0.43030  0.91720  0.73220  1.0000 -0.1291361903
C   C168      1.0  0.08280  0.51310  0.73220  1.0000 -0.1291361903
C   C169      1.0  0.15530  0.76840  0.52520  1.0000 0.1011603466
C   C170      1.0  0.23160  0.38690  0.52520  1.0000 0.1011603466
C   C171      1.0  0.61310  0.84470  0.52520  1.0000 0.1011603466
C   C172      1.0  0.84470  0.23160  0.02520  1.0000 0.1011603466
C   C173      1.0  0.76840  0.61310  0.02520  1.0000 0.1011603466
C   C174      1.0  0.38690  0.15530  0.02520  1.0000 0.1011603466
C   C175      1.0  0.06380  0.68820  0.58110  1.0000 0.1472939923
C   C176      1.0  0.31180  0.37560  0.58110  1.0000 0.1472939923
C   C177      1.0  0.62440  0.93620  0.58110  1.0000 0.1472939923
C   C178      1.0  0.93620  0.31180  0.08110  1.0000 0.1472939923
C   C179      1.0  0.68820  0.62440  0.08110  1.0000 0.1472939923
C   C180      1.0  0.37560  0.06380  0.08110  1.0000 0.1472939923
C   C181      1.0  0.44720  0.47860  0.27490  1.0000 0.0474445135
C   C182      1.0  0.52140  0.96860  0.27490  1.0000 0.0474445135
C   C183      1.0  0.03140  0.55280  0.27490  1.0000 0.0474445135
C   C184      1.0  0.55280  0.52140  0.77490  1.0000 0.0474445135
C   C185      1.0  0.47860  0.03140  0.77490  1.0000 0.0474445135
C   C186      1.0  0.96860  0.44720  0.77490  1.0000 0.0474445135
C   C187      1.0  0.76450  0.63170  0.24920  1.0000 0.0596005513
C   C188      1.0  0.36830  0.13280  0.24920  1.0000 0.0596005513
C   C189      1.0  0.86720  0.23550  0.24920  1.0000 0.0596005513
C   C190      1.0  0.23550  0.36830  0.74920  1.0000 0.0596005513
C   C191      1.0  0.63170  0.86720  0.74920  1.0000 0.0596005513
C   C192      1.0  0.13280  0.76450  0.74920  1.0000 0.0596005513
C   C193      1.0  0.14730  0.68590  0.47980  1.0000 -0.0396795728
C   C194      1.0  0.31410  0.46140  0.47980  1.0000 -0.0396795728
C   C195      1.0  0.53860  0.85270  0.47980  1.0000 -0.0396795728
C   C196      1.0  0.85270  0.31410  0.97980  1.0000 -0.0396795728
C   C197      1.0  0.68590  0.53860  0.97980  1.0000 -0.0396795728
C   C198      1.0  0.46140  0.14730  0.97980  1.0000 -0.0396795728
C   C199      1.0  0.86220  0.58890  0.85860  1.0000 0.1199402516
C   C200      1.0  0.41110  0.27330  0.85860  1.0000 0.1199402516
C   C201      1.0  0.72670  0.13780  0.85860  1.0000 0.1199402516
C   C202      1.0  0.13780  0.41110  0.35860  1.0000 0.1199402516
C   C203      1.0  0.58890  0.72670  0.35860  1.0000 0.1199402516
C   C204      1.0  0.27330  0.86220  0.35860  1.0000 0.1199402516
C   C205      1.0  0.43280  0.50150  0.31470  1.0000 -0.1673112209
C   C206      1.0  0.49850  0.93130  0.31470  1.0000 -0.1673112209
C   C207      1.0  0.06870  0.56720  0.31470  1.0000 -0.1673112209
C   C208      1.0  0.56720  0.49850  0.81470  1.0000 -0.1673112209
C   C209      1.0  0.50150  0.06870  0.81470  1.0000 -0.1673112209
C   C210      1.0  0.93130  0.43280  0.81470  1.0000 -0.1673112209
C   C211      1.0  0.05890  0.63330  0.60740  1.0000 -0.1411521447
C   C212      1.0  0.36670  0.42560  0.60740  1.0000 -0.1411521447
C   C213      1.0  0.57440  0.94110  0.60740  1.0000 -0.1411521447
C   C214      1.0  0.94110  0.36670  0.10740  1.0000 -0.1411521447
C   C215      1.0  0.63330  0.57440  0.10740  1.0000 -0.1411521447
C   C216      1.0  0.42560  0.05890  0.10740  1.0000 -0.1411521447
C   C217      1.0  0.50370  0.45880  0.27240  1.0000 0.0431555614
C   C218      1.0  0.54120  0.04490  0.27240  1.0000 0.0431555614
C   C219      1.0  0.95510  0.49630  0.27240  1.0000 0.0431555614
C   C220      1.0  0.49630  0.54120  0.77240  1.0000 0.0431555614
C   C221      1.0  0.45880  0.95510  0.77240  1.0000 0.0431555614
C   C222      1.0  0.04490  0.50370  0.77240  1.0000 0.0431555614
C   C223      1.0  0.47060  0.42470  0.19690  1.0000 -0.0708365113
C   C224      1.0  0.57530  0.04590  0.19690  1.0000 -0.0708365113
C   C225      1.0  0.95410  0.52940  0.19690  1.0000 -0.0708365113
C   C226      1.0  0.52940  0.57530  0.69690  1.0000 -0.0708365113
C   C227      1.0  0.42470  0.95410  0.69690  1.0000 -0.0708365113
C   C228      1.0  0.04590  0.47060  0.69690  1.0000 -0.0708365113
C   C229      1.0  0.47140  0.20670  0.55730  1.0000 -0.1206928015
C   C230      1.0  0.79330  0.26470  0.55730  1.0000 -0.1206928015
C   C231      1.0  0.73530  0.52860  0.55730  1.0000 -0.1206928015
C   C232      1.0  0.52860  0.79330  0.05730  1.0000 -0.1206928015
C   C233      1.0  0.20670  0.73530  0.05730  1.0000 -0.1206928015
C   C234      1.0  0.26470  0.47140  0.05730  1.0000 -0.1206928015
C   C235      1.0  0.70860  0.61970  0.32110  1.0000 -0.1291361903
C   C236      1.0  0.38030  0.08890  0.32110  1.0000 -0.1291361903
C   C237      1.0  0.91110  0.29140  0.32110  1.0000 -0.1291361903
C   C238      1.0  0.29140  0.38030  0.82110  1.0000 -0.1291361903
C   C239      1.0  0.61970  0.91110  0.82110  1.0000 -0.1291361903
C   C240      1.0  0.08890  0.70860  0.82110  1.0000 -0.1291361903
C   C241      1.0  0.94480  0.64200  0.70040  1.0000 0.0672601789
C   C242      1.0  0.35800  0.30280  0.70040  1.0000 0.0672601789
C   C243      1.0  0.69720  0.05520  0.70040  1.0000 0.0672601789
C   C244      1.0  0.05520  0.35800  0.20040  1.0000 0.0672601789
C   C245      1.0  0.64200  0.69720  0.20040  1.0000 0.0672601789
C   C246      1.0  0.30280  0.94480  0.20040  1.0000 0.0672601789
C   C247      1.0  0.33680  0.20300  0.46350  1.0000 0.0474445135
C   C248      1.0  0.79700  0.13380  0.46350  1.0000 0.0474445135
C   C249      1.0  0.86620  0.66320  0.46350  1.0000 0.0474445135
C   C250      1.0  0.66320  0.79700  0.96350  1.0000 0.0474445135
C   C251      1.0  0.20300  0.86620  0.96350  1.0000 0.0474445135
C   C252      1.0  0.13380  0.33680  0.96350  1.0000 0.0474445135
C   C253      1.0  0.49110  0.29250  0.63050  1.0000 -0.1411521447
C   C254      1.0  0.70750  0.19860  0.63050  1.0000 -0.1411521447
C   C255      1.0  0.80140  0.50890  0.63050  1.0000 -0.1411521447
C   C256      1.0  0.50890  0.70750  0.13050  1.0000 -0.1411521447
C   C257      1.0  0.29250  0.80140  0.13050  1.0000 -0.1411521447
C   C258      1.0  0.19860  0.49110  0.13050  1.0000 -0.1411521447
C   C259      1.0  0.46520  0.17830  0.59870  1.0000 -0.0929825881
C   C260      1.0  0.82170  0.28690  0.59870  1.0000 -0.0929825881
C   C261      1.0  0.71310  0.53480  0.59870  1.0000 -0.0929825881
C   C262      1.0  0.53480  0.82170  0.09870  1.0000 -0.0929825881
C   C263      1.0  0.17830  0.71310  0.09870  1.0000 -0.0929825881
C   C264      1.0  0.28690  0.46520  0.09870  1.0000 -0.0929825881
C   C265      1.0  0.47540  0.22180  0.63520  1.0000 -0.1003394772
C   C266      1.0  0.77820  0.25360  0.63520  1.0000 -0.1003394772
C   C267      1.0  0.74640  0.52460  0.63520  1.0000 -0.1003394772
C   C268      1.0  0.52460  0.77820  0.13520  1.0000 -0.1003394772
C   C269      1.0  0.22180  0.74640  0.13520  1.0000 -0.1003394772
C   C270      1.0  0.25360  0.47540  0.13520  1.0000 -0.1003394772
C   C271      1.0  0.85890  0.65230  0.74870  1.0000 -0.1764870182
C   C272      1.0  0.34770  0.20660  0.74870  1.0000 -0.1764870182
C   C273      1.0  0.79340  0.14110  0.74870  1.0000 -0.1764870182
C   C274      1.0  0.14110  0.34770  0.24870  1.0000 -0.1764870182
C   C275      1.0  0.65230  0.79340  0.24870  1.0000 -0.1764870182
C   C276      1.0  0.20660  0.85890  0.24870  1.0000 -0.1764870182
C   C277      1.0  0.40520  0.47220  0.23680  1.0000 -0.1606767744
C   C278      1.0  0.52780  0.93300  0.23680  1.0000 -0.1606767744
C   C279      1.0  0.06700  0.59480  0.23680  1.0000 -0.1606767744
C   C280      1.0  0.59480  0.52780  0.73680  1.0000 -0.1606767744
C   C281      1.0  0.47220  0.06700  0.73680  1.0000 -0.1606767744
C   C282      1.0  0.93300  0.40520  0.73680  1.0000 -0.1606767744
C   C283      1.0  0.41790  0.44830  0.19900  1.0000 -0.0929825881
C   C284      1.0  0.55170  0.96960  0.19900  1.0000 -0.0929825881
C   C285      1.0  0.03040  0.58210  0.19900  1.0000 -0.0929825881
C   C286      1.0  0.58210  0.55170  0.69900  1.0000 -0.0929825881
C   C287      1.0  0.44830  0.03040  0.69900  1.0000 -0.0929825881
C   C288      1.0  0.96960  0.41790  0.69900  1.0000 -0.0929825881
C   C289      1.0  0.92180  0.58800  0.77210  1.0000 -0.1495389397
C   C290      1.0  0.41200  0.33380  0.77210  1.0000 -0.1495389397
C   C291      1.0  0.66620  0.07820  0.77210  1.0000 -0.1495389397
C   C292      1.0  0.07820  0.41200  0.27210  1.0000 -0.1495389397
C   C293      1.0  0.58800  0.66620  0.27210  1.0000 -0.1495389397
C   C294      1.0  0.33380  0.92180  0.27210  1.0000 -0.1495389397
C   C295      1.0  0.02060  0.62040  0.64660  1.0000 -0.1206928015
C   C296      1.0  0.37960  0.40020  0.64660  1.0000 -0.1206928015
C   C297      1.0  0.59980  0.97940  0.64660  1.0000 -0.1206928015
C   C298      1.0  0.97940  0.37960  0.14660  1.0000 -0.1206928015
C   C299      1.0  0.62040  0.59980  0.14660  1.0000 -0.1206928015
C   C300      1.0  0.40020  0.02060  0.14660  1.0000 -0.1206928015
C   C301      1.0  0.27330  0.27440  0.46390  1.0000 -0.0929825881
C   C302      1.0  0.72560  0.99890  0.46390  1.0000 -0.0929825881
C   C303      1.0  0.00110  0.72670  0.46390  1.0000 -0.0929825881
C   C304      1.0  0.72670  0.72560  0.96390  1.0000 -0.0929825881
C   C305      1.0  0.27440  0.00110  0.96390  1.0000 -0.0929825881
C   C306      1.0  0.99890  0.27330  0.96390  1.0000 -0.0929825881
C   C307      1.0  0.33750  0.27290  0.46370  1.0000 -0.1291361903
C   C308      1.0  0.72710  0.06460  0.46370  1.0000 -0.1291361903
C   C309      1.0  0.93540  0.66250  0.46370  1.0000 -0.1291361903
C   C310      1.0  0.66250  0.72710  0.96370  1.0000 -0.1291361903
C   C311      1.0  0.27290  0.93540  0.96370  1.0000 -0.1291361903
C   C312      1.0  0.06460  0.33750  0.96370  1.0000 -0.1291361903
C   C313      1.0  0.79280  0.74170  0.29070  1.0000 -0.1077368109
C   C314      1.0  0.25830  0.05110  0.29070  1.0000 -0.1077368109
C   C315      1.0  0.94890  0.20720  0.29070  1.0000 -0.1077368109
C   C316      1.0  0.20720  0.25830  0.79070  1.0000 -0.1077368109
C   C317      1.0  0.74170  0.94890  0.79070  1.0000 -0.1077368109
C   C318      1.0  0.05110  0.79280  0.79070  1.0000 -0.1077368109
C   C319      1.0  0.26300  0.06680  0.46080  1.0000 -0.1411521447
C   C320      1.0  0.93320  0.19620  0.46080  1.0000 -0.1411521447
C   C321      1.0  0.80380  0.73700  0.46080  1.0000 -0.1411521447
C   C322      1.0  0.73700  0.93320  0.96080  1.0000 -0.1411521447
C   C323      1.0  0.06680  0.80380  0.96080  1.0000 -0.1411521447
C   C324      1.0  0.19620  0.26300  0.96080  1.0000 -0.1411521447
C   C325      1.0  0.26610  0.13700  0.46290  1.0000 0.0596005513
C   C326      1.0  0.86300  0.12910  0.46290  1.0000 0.0596005513
C   C327      1.0  0.87090  0.73390  0.46290  1.0000 0.0596005513
C   C328      1.0  0.73390  0.86300  0.96290  1.0000 0.0596005513
C   C329      1.0  0.13700  0.87090  0.96290  1.0000 0.0596005513
C   C330      1.0  0.12910  0.26610  0.96290  1.0000 0.0596005513
C   C331      1.0  0.89480  0.66510  0.70910  1.0000 -0.1291361903
C   C332      1.0  0.33490  0.22970  0.70910  1.0000 -0.1291361903
C   C333      1.0  0.77030  0.10520  0.70910  1.0000 -0.1291361903
C   C334      1.0  0.10520  0.33490  0.20910  1.0000 -0.1291361903
C   C335      1.0  0.66510  0.77030  0.20910  1.0000 -0.1291361903
C   C336      1.0  0.22970  0.89480  0.20910  1.0000 -0.1291361903
C   C337      1.0  0.80050  0.70970  0.25360  1.0000 -0.1411521447
C   C338      1.0  0.29030  0.09080  0.25360  1.0000 -0.1411521447
C   C339      1.0  0.90920  0.19950  0.25360  1.0000 -0.1411521447
C   C340      1.0  0.19950  0.29030  0.75360  1.0000 -0.1411521447
C   C341      1.0  0.70970  0.90920  0.75360  1.0000 -0.1411521447
C   C342      1.0  0.09080  0.80050  0.75360  1.0000 -0.1411521447
C   C343      1.0  0.19770  0.14070  0.46410  1.0000 -0.1411521447
C   C344      1.0  0.85930  0.05700  0.46410  1.0000 -0.1411521447
C   C345      1.0  0.94300  0.80230  0.46410  1.0000 -0.1411521447
C   C346      1.0  0.80230  0.85930  0.96410  1.0000 -0.1411521447
C   C347      1.0  0.14070  0.94300  0.96410  1.0000 -0.1411521447
C   C348      1.0  0.05700  0.19770  0.96410  1.0000 -0.1411521447
C   C349      1.0  0.99630  0.71690  0.63270  1.0000 -0.1291361903
C   C350      1.0  0.28310  0.27940  0.63270  1.0000 -0.1291361903
C   C351      1.0  0.72060  0.00370  0.63270  1.0000 -0.1291361903
C   C352      1.0  0.00370  0.28310  0.13270  1.0000 -0.1291361903
C   C353      1.0  0.71690  0.72060  0.13270  1.0000 -0.1291361903
C   C354      1.0  0.27940  0.99630  0.13270  1.0000 -0.1291361903
C   C355      1.0  0.76820  0.59450  0.83050  1.0000 -0.1206928015
C   C356      1.0  0.40550  0.17370  0.83050  1.0000 -0.1206928015
C   C357      1.0  0.82630  0.23180  0.83050  1.0000 -0.1206928015
C   C358      1.0  0.23180  0.40550  0.33050  1.0000 -0.1206928015
C   C359      1.0  0.59450  0.82630  0.33050  1.0000 -0.1206928015
C   C360      1.0  0.17370  0.76820  0.33050  1.0000 -0.1206928015
C   C361      1.0  0.75770  0.57950  0.87360  1.0000 -0.0147402788
C   C362      1.0  0.42050  0.17820  0.87360  1.0000 -0.0147402788
C   C363      1.0  0.82180  0.24230  0.87360  1.0000 -0.0147402788
C   C364      1.0  0.24230  0.42050  0.37360  1.0000 -0.020921458
C   C365      1.0  0.57950  0.82180  0.37360  1.0000 -0.020921458
C   C366      1.0  0.17820  0.75770  0.37360  1.0000 -0.020921458
C   C367      1.0  0.02930  0.72630  0.59120  1.0000 -0.1606767744
C   C368      1.0  0.27370  0.30300  0.59120  1.0000 -0.1606767744
C   C369      1.0  0.69700  0.97070  0.59120  1.0000 -0.1606767744
C   C370      1.0  0.97070  0.27370  0.09120  1.0000 -0.1606767744
C   C371      1.0  0.72630  0.69700  0.09120  1.0000 -0.1606767744
C   C372      1.0  0.30300  0.02930  0.09120  1.0000 -0.1606767744
C   C373      1.0  0.95790  0.60320  0.73260  1.0000 -0.1077368109
C   C374      1.0  0.39680  0.35470  0.73260  1.0000 -0.1077368109
C   C375      1.0  0.64530  0.04210  0.73260  1.0000 -0.1077368109
C   C376      1.0  0.04210  0.39680  0.23260  1.0000 -0.1077368109
C   C377      1.0  0.60320  0.64530  0.23260  1.0000 -0.1077368109
C   C378      1.0  0.35470  0.95790  0.23260  1.0000 -0.1077368109
C   C379      1.0  0.20240  0.20780  0.46470  1.0000 -0.1003394772
C   C380      1.0  0.79220  0.99460  0.46470  1.0000 -0.1003394772
C   C381      1.0  0.00540  0.79760  0.46470  1.0000 -0.1077368109
C   C382      1.0  0.79760  0.79220  0.96470  1.0000 -0.1003394772
C   C383      1.0  0.20780  0.00540  0.96470  1.0000 -0.1003394772
C   C384      1.0  0.99460  0.20240  0.96470  1.0000 -0.1003394772
N   N1        1.0  0.18250  0.76060  0.48830  1.0000 -0.2888874953
N   N2        1.0  0.23940  0.42190  0.48830  1.0000 -0.2888874953
N   N3        1.0  0.57810  0.81750  0.48830  1.0000 -0.2888874953
N   N4        1.0  0.81750  0.23940  0.98830  1.0000 -0.2888874953
N   N5        1.0  0.76060  0.57810  0.98830  1.0000 -0.2888874953
N   N6        1.0  0.42190  0.18250  0.98830  1.0000 -0.2888874953
N   N7        1.0  0.81530  0.57420  0.89060  1.0000 -0.2728832012
N   N8        1.0  0.42580  0.24110  0.89060  1.0000 -0.2728832012
N   N9        1.0  0.75890  0.18470  0.89060  1.0000 -0.2728832012
N   N10       1.0  0.18470  0.42580  0.39060  1.0000 -0.2728832012
N   N11       1.0  0.57420  0.75890  0.39060  1.0000 -0.2728832012
N   N12       1.0  0.24110  0.81530  0.39060  1.0000 -0.2728832012
N   N13       1.0  0.10280  0.70150  0.54060  1.0000 0.0106184635
N   N14       1.0  0.29850  0.40130  0.54060  1.0000 0.0106184635
N   N15       1.0  0.59870  0.89720  0.54060  1.0000 0.0106184635
N   N16       1.0  0.89720  0.29850  0.04060  1.0000 0.0106184635
N   N17       1.0  0.70150  0.59870  0.04060  1.0000 0.0106184635
N   N18       1.0  0.40130  0.10280  0.04060  1.0000 0.0106184635
N   N19       1.0  0.35630  0.84330  0.47870  1.0000 -0.7705925202
N   N20       1.0  0.15670  0.51300  0.47870  1.0000 -0.7705925202
N   N21       1.0  0.48700  0.64370  0.47870  1.0000 -0.7705925202
N   N22       1.0  0.64370  0.15670  0.97870  1.0000 -0.7705925202
N   N23       1.0  0.84330  0.48700  0.97870  1.0000 -0.7705925202
N   N24       1.0  0.51300  0.35630  0.97870  1.0000 -0.7705925202
N   N25       1.0  0.83380  0.59410  0.82080  1.0000 0.0106184635
N   N26       1.0  0.40590  0.23970  0.82080  1.0000 0.0106184635
N   N27       1.0  0.76030  0.16620  0.82080  1.0000 0.0106184635
N   N28       1.0  0.16620  0.40590  0.32080  1.0000 0.0106184635
N   N29       1.0  0.59410  0.76030  0.32080  1.0000 0.0106184635
N   N30       1.0  0.23970  0.83380  0.32080  1.0000 0.0106184635
O   O1        1.0  0.47310  0.51300  0.42960  1.0000 -0.6301832691
O   O2        1.0  0.48700  0.96010  0.42960  1.0000 -0.6301832691
O   O3        1.0  0.03990  0.52690  0.42960  1.0000 -0.6301832691
O   O4        1.0  0.52690  0.48700  0.92960  1.0000 -0.6301832691
O   O5        1.0  0.51300  0.03990  0.92960  1.0000 -0.6301832691
O   O6        1.0  0.96010  0.47310  0.92960  1.0000 -0.6301832691
O   O7        1.0  0.55140  0.54140  0.50470  1.0000 -0.6301832691
O   O8        1.0  0.45860  0.01000  0.50470  1.0000 -0.6301832691
O   O9        1.0  0.99000  0.44860  0.50470  1.0000 -0.6301832691
O   O10       1.0  0.44860  0.45860  0.00470  1.0000 -0.6301832691
O   O11       1.0  0.54140  0.99000  0.00470  1.0000 -0.6301832691
O   O12       1.0  0.01000  0.55140  0.00470  1.0000 -0.6301832691
O   O13       1.0  0.56970  0.49330  0.38480  1.0000 -0.6187533831
O   O14       1.0  0.50670  0.07640  0.38480  1.0000 -0.6187533831
O   O15       1.0  0.92360  0.43030  0.38480  1.0000 -0.6187533831
O   O16       1.0  0.43030  0.50670  0.88480  1.0000 -0.6187533831
O   O17       1.0  0.49330  0.92360  0.88480  1.0000 -0.6187533831
O   O18       1.0  0.07640  0.56970  0.88480  1.0000 -0.6187533831
O   O19       1.0  0.37250  0.98460  0.43370  1.0000 -0.6109343663
O   O20       1.0  0.01540  0.38790  0.43370  1.0000 -0.6109343663
O   O21       1.0  0.61210  0.62750  0.43370  1.0000 -0.6109343663
O   O22       1.0  0.62750  0.01540  0.93370  1.0000 -0.6109343663
O   O23       1.0  0.98460  0.61210  0.93370  1.0000 -0.6109343663
O   O24       1.0  0.38790  0.37250  0.93370  1.0000 -0.6109343663
O   O25       1.0  0.65440  0.40240  0.23600  1.0000 -0.5902370111
O   O26       1.0  0.59760  0.25200  0.23600  1.0000 -0.5902370111
O   O27       1.0  0.74800  0.34560  0.23600  1.0000 -0.5902370111
O   O28       1.0  0.34560  0.59760  0.73600  1.0000 -0.5902370111
O   O29       1.0  0.40240  0.74800  0.73600  1.0000 -0.5902370111
O   O30       1.0  0.25200  0.65440  0.73600  1.0000 -0.5902370111
O   O31       1.0  0.45850  0.12490  0.45600  1.0000 -0.6109343663
O   O32       1.0  0.87510  0.33360  0.45600  1.0000 -0.6109343663
O   O33       1.0  0.66640  0.54150  0.45600  1.0000 -0.6109343663
O   O34       1.0  0.54150  0.87510  0.95600  1.0000 -0.6109343663
O   O35       1.0  0.12490  0.66640  0.95600  1.0000 -0.6109343663
O   O36       1.0  0.33360  0.45850  0.95600  1.0000 -0.6109343663
O   O37       1.0  0.72620  0.42050  0.16300  1.0000 -0.6023746426
O   O38       1.0  0.57950  0.30570  0.16300  1.0000 -0.6023746426
O   O39       1.0  0.69430  0.27380  0.16300  1.0000 -0.6023746426
O   O40       1.0  0.27380  0.57950  0.66300  1.0000 -0.6023746426
O   O41       1.0  0.42050  0.69430  0.66300  1.0000 -0.6023746426
O   O42       1.0  0.30570  0.72620  0.66300  1.0000 -0.6023746426
O   O43       1.0  0.52580  0.41800  0.46610  1.0000 -0.6187533831
O   O44       1.0  0.58200  0.10780  0.46610  1.0000 -0.6187533831
O   O45       1.0  0.89220  0.47420  0.46610  1.0000 -0.6187533831
O   O46       1.0  0.47420  0.58200  0.96610  1.0000 -0.6187533831
O   O47       1.0  0.41800  0.89220  0.96610  1.0000 -0.6187533831
O   O48       1.0  0.10780  0.52580  0.96610  1.0000 -0.6187533831
O   O49       1.0  0.26030  0.93200  0.46180  1.0000 -0.5128959976
O   O50       1.0  0.06800  0.32830  0.46180  1.0000 -0.5128959976
O   O51       1.0  0.67170  0.73970  0.46180  1.0000 -0.5128959976
O   O52       1.0  0.73970  0.06800  0.96180  1.0000 -0.5128959976
O   O53       1.0  0.93200  0.67170  0.96180  1.0000 -0.5128959976
O   O54       1.0  0.32830  0.26030  0.96180  1.0000 -0.5128959976
O   O55       1.0  0.41260  0.55680  0.39310  1.0000 -0.5128959976
O   O56       1.0  0.44320  0.85580  0.39310  1.0000 -0.5128959976
O   O57       1.0  0.14420  0.58740  0.39310  1.0000 -0.5128959976
O   O58       1.0  0.58740  0.44320  0.89310  1.0000 -0.5128959976
O   O59       1.0  0.55680  0.14420  0.89310  1.0000 -0.5128959976
O   O60       1.0  0.85580  0.41260  0.89310  1.0000 -0.5128959976
O   O61       1.0  0.55350  0.54520  0.57650  1.0000 -0.5128959976
O   O62       1.0  0.45480  0.00830  0.57650  1.0000 -0.5128959976
O   O63       1.0  0.99170  0.44650  0.57650  1.0000 -0.5128959976
O   O64       1.0  0.44650  0.45480  0.07650  1.0000 -0.5128959976
O   O65       1.0  0.54520  0.99170  0.07650  1.0000 -0.5128959976
O   O66       1.0  0.00830  0.55350  0.07650  1.0000 -0.5128959976
O   O67       1.0  0.79240  0.53390  0.13730  1.0000 -0.5312261875
O   O68       1.0  0.46610  0.25850  0.13730  1.0000 -0.5312261875
O   O69       1.0  0.74150  0.20760  0.13730  1.0000 -0.5312261875
O   O70       1.0  0.20760  0.46610  0.63730  1.0000 -0.5312261875
O   O71       1.0  0.53390  0.74150  0.63730  1.0000 -0.5312261875
O   O72       1.0  0.25850  0.79240  0.63730  1.0000 -0.5312261875
