# DDEC6 charges by PACMAN v1.1 (https://github.com/mtap-research/PACMAN-charge/)
data_2023[In][nht]3[ASR]2
_chemical_formula_sum              "In36 H264 C528 N48 O156"
_cell_length_a       36.4806
_cell_length_b       36.4806
_cell_length_c       36.4806
_cell_angle_alpha    49.9745
_cell_angle_beta     49.9745
_cell_angle_gamma    49.9745

_symmetry_space_group_name_H-M    "P 1"
_symmetry_Int_Tables_number       1

loop_
  _symmetry_equiv_pos_as_xyz
  'x, y, z'

loop_
  _atom_site_type_symbol
  _atom_site_label
  _atom_site_symmetry_multiplicity
  _atom_site_fract_x
  _atom_site_fract_y
  _atom_site_fract_z
  _atom_site_occupancy
  _atom_site_charge
In  In1       1.0  0.08084  0.62662  0.69148  1.0000 1.501561285
In  In2       1.0  0.69148  0.08084  0.62662  1.0000 1.501561285
In  In3       1.0  0.62662  0.69148  0.08084  1.0000 1.4940579799
In  In4       1.0  0.58084  0.19148  0.12662  1.0000 1.501561285
In  In5       1.0  0.19148  0.12662  0.58084  1.0000 1.4940579799
In  In6       1.0  0.12662  0.58084  0.19148  1.0000 1.4940579799
In  In7       1.0  0.15222  0.57983  0.75773  1.0000 1.5099385698
In  In8       1.0  0.75773  0.15222  0.57983  1.0000 1.5099385698
In  In9       1.0  0.57983  0.75773  0.15222  1.0000 1.5099385698
In  In10      1.0  0.65222  0.25773  0.07983  1.0000 1.5099385698
In  In11      1.0  0.25773  0.07983  0.65222  1.0000 1.5099385698
In  In12      1.0  0.07983  0.65222  0.25773  1.0000 1.501561285
In  In13      1.0  0.14316  0.69892  0.64875  1.0000 1.5099385698
In  In14      1.0  0.64875  0.14316  0.69892  1.0000 1.5099385698
In  In15      1.0  0.69892  0.64875  0.14316  1.0000 1.5099385698
In  In16      1.0  0.64316  0.14875  0.19892  1.0000 1.5099385698
In  In17      1.0  0.14875  0.19892  0.64316  1.0000 1.5099385698
In  In18      1.0  0.19892  0.64316  0.14875  1.0000 1.5099385698
In  In19      1.0  0.41916  0.80852  0.87338  1.0000 1.501561285
In  In20      1.0  0.80852  0.87338  0.41916  1.0000 1.501561285
In  In21      1.0  0.87338  0.41916  0.80852  1.0000 1.4940579799
In  In22      1.0  0.91916  0.37338  0.30852  1.0000 1.4940579799
In  In23      1.0  0.30852  0.91916  0.37338  1.0000 1.4940579799
In  In24      1.0  0.37338  0.30852  0.91916  1.0000 1.501561285
In  In25      1.0  0.34778  0.74227  0.92017  1.0000 1.5099385698
In  In26      1.0  0.74227  0.92017  0.34778  1.0000 1.5099385698
In  In27      1.0  0.92017  0.34778  0.74227  1.0000 1.5099385698
In  In28      1.0  0.84778  0.42017  0.24227  1.0000 1.5099385698
In  In29      1.0  0.24227  0.84778  0.42017  1.0000 1.5099385698
In  In30      1.0  0.42017  0.24227  0.84778  1.0000 1.5099385698
In  In31      1.0  0.35684  0.85125  0.80108  1.0000 1.5099385698
In  In32      1.0  0.85125  0.80108  0.35684  1.0000 1.5099385698
In  In33      1.0  0.80108  0.35684  0.85125  1.0000 1.5099385698
In  In34      1.0  0.85684  0.30108  0.35125  1.0000 1.5099385698
In  In35      1.0  0.35125  0.85684  0.30108  1.0000 1.5099385698
In  In36      1.0  0.30108  0.35125  0.85684  1.0000 1.5099385698
H   H1        1.0  0.24941  0.93171  0.74212  1.0000 0.1190872205
H   H2        1.0  0.74212  0.24941  0.93171  1.0000 0.1190872205
H   H3        1.0  0.93171  0.74212  0.24941  1.0000 0.1190872205
H   H4        1.0  0.74941  0.24212  0.43171  1.0000 0.1190872205
H   H5        1.0  0.24212  0.43171  0.74941  1.0000 0.1190872205
H   H6        1.0  0.43171  0.74941  0.24212  1.0000 0.1190872205
H   H7        1.0  0.22073  0.71820  0.98901  1.0000 0.1190872205
H   H8        1.0  0.98901  0.22073  0.71820  1.0000 0.1190872205
H   H9        1.0  0.71820  0.98901  0.22073  1.0000 0.1190872205
H   H10       1.0  0.72073  0.48901  0.21820  1.0000 0.1190872205
H   H11       1.0  0.48901  0.21820  0.72073  1.0000 0.1190872205
H   H12       1.0  0.21820  0.72073  0.48901  1.0000 0.1190872205
H   H13       1.0  0.24047  0.85425  0.79220  1.0000 0.1190872205
H   H14       1.0  0.79220  0.24047  0.85425  1.0000 0.1190872205
H   H15       1.0  0.85425  0.79220  0.24047  1.0000 0.1190872205
H   H16       1.0  0.74047  0.29220  0.35425  1.0000 0.1190872205
H   H17       1.0  0.29220  0.35425  0.74047  1.0000 0.1190872205
H   H18       1.0  0.35425  0.74047  0.29220  1.0000 0.1190872205
H   H19       1.0  0.22845  0.75726  0.90373  1.0000 0.1101035491
H   H20       1.0  0.90373  0.22845  0.75726  1.0000 0.1101035491
H   H21       1.0  0.75726  0.90373  0.22845  1.0000 0.1101035491
H   H22       1.0  0.72845  0.40373  0.25726  1.0000 0.1101035491
H   H23       1.0  0.40373  0.25726  0.72845  1.0000 0.1101035491
H   H24       1.0  0.25726  0.72845  0.40373  1.0000 0.1101035491
H   H25       1.0  0.18920  0.97189  0.65298  1.0000 0.1190872205
H   H26       1.0  0.65298  0.18920  0.97189  1.0000 0.1190872205
H   H27       1.0  0.97189  0.65298  0.18920  1.0000 0.1190872205
H   H28       1.0  0.68920  0.15298  0.47189  1.0000 0.1190872205
H   H29       1.0  0.15298  0.47189  0.68920  1.0000 0.1190872205
H   H30       1.0  0.47189  0.68920  0.15298  1.0000 0.1190872205
H   H31       1.0  0.32313  0.51417  0.68755  1.0000 0.1190872205
H   H32       1.0  0.68755  0.32313  0.51417  1.0000 0.1190872205
H   H33       1.0  0.51417  0.68755  0.32313  1.0000 0.1190872205
H   H34       1.0  0.82313  0.18755  0.01417  1.0000 0.1190872205
H   H35       1.0  0.18755  0.01417  0.82313  1.0000 0.1190872205
H   H36       1.0  0.01417  0.82313  0.18755  1.0000 0.1190872205
H   H37       1.0  0.30744  0.65923  0.57738  1.0000 0.1190872205
H   H38       1.0  0.57738  0.30744  0.65923  1.0000 0.1190872205
H   H39       1.0  0.65923  0.57738  0.30744  1.0000 0.1190872205
H   H40       1.0  0.80744  0.07738  0.15923  1.0000 0.1190872205
H   H41       1.0  0.07738  0.15923  0.80744  1.0000 0.1190872205
H   H42       1.0  0.15923  0.80744  0.07738  1.0000 0.1190872205
H   H43       1.0  0.17830  0.66756  0.85041  1.0000 0.1190872205
H   H44       1.0  0.85041  0.17830  0.66756  1.0000 0.1190872205
H   H45       1.0  0.66756  0.85041  0.17830  1.0000 0.1190872205
H   H46       1.0  0.67830  0.35041  0.16756  1.0000 0.1190872205
H   H47       1.0  0.35041  0.16756  0.67830  1.0000 0.1190872205
H   H48       1.0  0.16756  0.67830  0.35041  1.0000 0.1190872205
H   H49       1.0  0.14393  0.77213  0.70086  1.0000 0.1190872205
H   H50       1.0  0.70086  0.14393  0.77213  1.0000 0.1190872205
H   H51       1.0  0.77213  0.70086  0.14393  1.0000 0.1190872205
H   H52       1.0  0.64393  0.20086  0.27213  1.0000 0.1190872205
H   H53       1.0  0.20086  0.27213  0.64393  1.0000 0.1190872205
H   H54       1.0  0.27213  0.64393  0.20086  1.0000 0.1190872205
H   H55       1.0  0.41399  0.48574  0.64161  1.0000 0.1101035491
H   H56       1.0  0.64161  0.41399  0.48574  1.0000 0.1101035491
H   H57       1.0  0.48574  0.64161  0.41399  1.0000 0.1101035491
H   H58       1.0  0.91399  0.14161  0.98574  1.0000 0.1101035491
H   H59       1.0  0.14161  0.98574  0.91399  1.0000 0.1101035491
H   H60       1.0  0.98574  0.91399  0.14161  1.0000 0.1101035491
H   H61       1.0  0.16122  0.80381  0.72457  1.0000 0.1190872205
H   H62       1.0  0.72457  0.16122  0.80381  1.0000 0.1190872205
H   H63       1.0  0.80381  0.72457  0.16122  1.0000 0.1190872205
H   H64       1.0  0.66122  0.22457  0.30381  1.0000 0.1190872205
H   H65       1.0  0.22457  0.30381  0.66122  1.0000 0.1190872205
H   H66       1.0  0.30381  0.66122  0.22457  1.0000 0.1190872205
H   H67       1.0  0.16166  0.63544  0.82605  1.0000 0.1190872205
H   H68       1.0  0.82605  0.16166  0.63544  1.0000 0.1190872205
H   H69       1.0  0.63544  0.82605  0.16166  1.0000 0.1190872205
H   H70       1.0  0.66166  0.32605  0.13544  1.0000 0.1190872205
H   H71       1.0  0.32605  0.13544  0.66166  1.0000 0.1190872205
H   H72       1.0  0.13544  0.66166  0.32605  1.0000 0.1190872205
H   H73       1.0  0.39643  0.63352  0.53239  1.0000 0.1190872205
H   H74       1.0  0.53239  0.39643  0.63352  1.0000 0.1190872205
H   H75       1.0  0.63352  0.53239  0.39643  1.0000 0.1190872205
H   H76       1.0  0.89643  0.03239  0.13352  1.0000 0.1190872205
H   H77       1.0  0.03239  0.13352  0.89643  1.0000 0.1190872205
H   H78       1.0  0.13352  0.89643  0.03239  1.0000 0.1190872205
H   H79       1.0  0.16206  0.67360  0.94557  1.0000 0.1190872205
H   H80       1.0  0.94557  0.16206  0.67360  1.0000 0.1190872205
H   H81       1.0  0.67360  0.94557  0.16206  1.0000 0.1190872205
H   H82       1.0  0.66206  0.44557  0.17360  1.0000 0.1190872205
H   H83       1.0  0.44557  0.17360  0.66206  1.0000 0.1190872205
H   H84       1.0  0.17360  0.66206  0.44557  1.0000 0.1190872205
H   H85       1.0  0.18261  0.89337  0.70228  1.0000 0.1277411482
H   H86       1.0  0.70228  0.18261  0.89337  1.0000 0.1190872205
H   H87       1.0  0.89337  0.70228  0.18261  1.0000 0.1190872205
H   H88       1.0  0.68261  0.20228  0.39337  1.0000 0.1190872205
H   H89       1.0  0.20228  0.39337  0.68261  1.0000 0.1190872205
H   H90       1.0  0.39337  0.68261  0.20228  1.0000 0.1190872205
H   H91       1.0  0.15112  0.63553  0.03203  1.0000 0.1190872205
H   H92       1.0  0.03203  0.15112  0.63553  1.0000 0.1190872205
H   H93       1.0  0.63553  0.03203  0.15112  1.0000 0.1190872205
H   H94       1.0  0.65112  0.53203  0.13553  1.0000 0.1190872205
H   H95       1.0  0.53203  0.13553  0.65112  1.0000 0.1190872205
H   H96       1.0  0.13553  0.65112  0.53203  1.0000 0.1190872205
H   H97       1.0  0.82700  0.94387  0.62085  1.0000 0.1190872205
H   H98       1.0  0.62085  0.82700  0.94387  1.0000 0.1190872205
H   H99       1.0  0.94387  0.62085  0.82700  1.0000 0.1190872205
H   H100      1.0  0.32700  0.12085  0.44387  1.0000 0.1190872205
H   H101      1.0  0.12085  0.44387  0.32700  1.0000 0.1190872205
H   H102      1.0  0.44387  0.32700  0.12085  1.0000 0.1190872205
H   H103      1.0  0.01547  0.84027  0.62053  1.0000 0.1190872205
H   H104      1.0  0.62053  0.01547  0.84027  1.0000 0.1190872205
H   H105      1.0  0.84027  0.62053  0.01547  1.0000 0.1190872205
H   H106      1.0  0.51547  0.12053  0.34027  1.0000 0.1190872205
H   H107      1.0  0.12053  0.34027  0.51547  1.0000 0.1190872205
H   H108      1.0  0.34027  0.51547  0.12053  1.0000 0.1190872205
H   H109      1.0  0.93219  0.76743  0.68453  1.0000 0.1277411482
H   H110      1.0  0.68453  0.93219  0.76743  1.0000 0.1277411482
H   H111      1.0  0.76743  0.68453  0.93219  1.0000 0.1277411482
H   H112      1.0  0.43219  0.18453  0.26743  1.0000 0.1277411482
H   H113      1.0  0.18453  0.26743  0.43219  1.0000 0.1277411482
H   H114      1.0  0.26743  0.43219  0.18453  1.0000 0.1277411482
H   H115      1.0  0.86735  0.84948  0.65810  1.0000 0.1101035491
H   H116      1.0  0.65810  0.86735  0.84948  1.0000 0.1101035491
H   H117      1.0  0.84948  0.65810  0.86735  1.0000 0.1101035491
H   H118      1.0  0.36735  0.15810  0.34948  1.0000 0.1101035491
H   H119      1.0  0.15810  0.34948  0.36735  1.0000 0.1101035491
H   H120      1.0  0.34948  0.36735  0.15810  1.0000 0.1101035491
H   H121      1.0  0.89448  0.01133  0.59959  1.0000 0.1190872205
H   H122      1.0  0.59959  0.89448  0.01133  1.0000 0.1190872205
H   H123      1.0  0.01133  0.59959  0.89448  1.0000 0.1190872205
H   H124      1.0  0.39448  0.09959  0.51133  1.0000 0.1190872205
H   H125      1.0  0.09959  0.51133  0.39448  1.0000 0.1190872205
H   H126      1.0  0.51133  0.39448  0.09959  1.0000 0.1190872205
H   H127      1.0  0.97065  0.93298  0.60022  1.0000 0.1101035491
H   H128      1.0  0.60022  0.97065  0.93298  1.0000 0.1101035491
H   H129      1.0  0.93298  0.60022  0.97065  1.0000 0.1101035491
H   H130      1.0  0.47065  0.10022  0.43298  1.0000 0.1101035491
H   H131      1.0  0.10022  0.43298  0.47065  1.0000 0.1101035491
H   H132      1.0  0.43298  0.47065  0.10022  1.0000 0.1101035491
H   H133      1.0  0.25059  0.75788  0.56829  1.0000 0.1190872205
H   H134      1.0  0.75788  0.56829  0.25059  1.0000 0.1190872205
H   H135      1.0  0.56829  0.25059  0.75788  1.0000 0.1190872205
H   H136      1.0  0.75059  0.06829  0.25788  1.0000 0.1190872205
H   H137      1.0  0.25788  0.75059  0.06829  1.0000 0.1190872205
H   H138      1.0  0.06829  0.25788  0.75059  1.0000 0.1190872205
H   H139      1.0  0.27927  0.51099  0.78180  1.0000 0.1190872205
H   H140      1.0  0.51099  0.78180  0.27927  1.0000 0.1190872205
H   H141      1.0  0.78180  0.27927  0.51099  1.0000 0.1190872205
H   H142      1.0  0.77927  0.28180  0.01099  1.0000 0.1190872205
H   H143      1.0  0.01099  0.77927  0.28180  1.0000 0.1190872205
H   H144      1.0  0.28180  0.01099  0.77927  1.0000 0.1190872205
H   H145      1.0  0.25953  0.70780  0.64575  1.0000 0.1190872205
H   H146      1.0  0.70780  0.64575  0.25953  1.0000 0.1190872205
H   H147      1.0  0.64575  0.25953  0.70780  1.0000 0.1190872205
H   H148      1.0  0.75953  0.14575  0.20780  1.0000 0.1190872205
H   H149      1.0  0.20780  0.75953  0.14575  1.0000 0.1190872205
H   H150      1.0  0.14575  0.20780  0.75953  1.0000 0.1190872205
H   H151      1.0  0.27155  0.59627  0.74274  1.0000 0.1101035491
H   H152      1.0  0.59627  0.74274  0.27155  1.0000 0.1101035491
H   H153      1.0  0.74274  0.27155  0.59627  1.0000 0.1101035491
H   H154      1.0  0.77155  0.24274  0.09627  1.0000 0.1101035491
H   H155      1.0  0.09627  0.77155  0.24274  1.0000 0.1101035491
H   H156      1.0  0.24274  0.09627  0.77155  1.0000 0.1101035491
H   H157      1.0  0.31080  0.84702  0.52811  1.0000 0.1190872205
H   H158      1.0  0.84702  0.52811  0.31080  1.0000 0.1190872205
H   H159      1.0  0.52811  0.31080  0.84702  1.0000 0.1190872205
H   H160      1.0  0.81080  0.02811  0.34702  1.0000 0.1190872205
H   H161      1.0  0.34702  0.81080  0.02811  1.0000 0.1190872205
H   H162      1.0  0.02811  0.34702  0.81080  1.0000 0.1190872205
H   H163      1.0  0.17687  0.81245  0.98583  1.0000 0.1190872205
H   H164      1.0  0.81245  0.98583  0.17687  1.0000 0.1190872205
H   H165      1.0  0.98583  0.17687  0.81245  1.0000 0.1190872205
H   H166      1.0  0.67687  0.48583  0.31245  1.0000 0.1190872205
H   H167      1.0  0.31245  0.67687  0.48583  1.0000 0.1190872205
H   H168      1.0  0.48583  0.31245  0.67687  1.0000 0.1190872205
H   H169      1.0  0.19256  0.92262  0.84077  1.0000 0.1190872205
H   H170      1.0  0.92262  0.84077  0.19256  1.0000 0.1190872205
H   H171      1.0  0.84077  0.19256  0.92262  1.0000 0.1190872205
H   H172      1.0  0.69256  0.34077  0.42262  1.0000 0.1190872205
H   H173      1.0  0.42262  0.69256  0.34077  1.0000 0.1190872205
H   H174      1.0  0.34077  0.42262  0.69256  1.0000 0.1190872205
H   H175      1.0  0.32170  0.64959  0.83244  1.0000 0.1190872205
H   H176      1.0  0.64959  0.83244  0.32170  1.0000 0.1190872205
H   H177      1.0  0.83244  0.32170  0.64959  1.0000 0.1190872205
H   H178      1.0  0.82170  0.33244  0.14959  1.0000 0.1190872205
H   H179      1.0  0.14959  0.82170  0.33244  1.0000 0.1190872205
H   H180      1.0  0.33244  0.14959  0.82170  1.0000 0.1190872205
H   H181      1.0  0.35607  0.79914  0.72787  1.0000 0.1190872205
H   H182      1.0  0.79914  0.72787  0.35607  1.0000 0.1190872205
H   H183      1.0  0.72787  0.35607  0.79914  1.0000 0.1190872205
H   H184      1.0  0.85607  0.22787  0.29914  1.0000 0.1190872205
H   H185      1.0  0.29914  0.85607  0.22787  1.0000 0.1190872205
H   H186      1.0  0.22787  0.29914  0.85607  1.0000 0.1190872205
H   H187      1.0  0.08601  0.85839  0.01426  1.0000 0.1101035491
H   H188      1.0  0.85839  0.01426  0.08601  1.0000 0.1101035491
H   H189      1.0  0.01426  0.08601  0.85839  1.0000 0.1101035491
H   H190      1.0  0.58601  0.51426  0.35839  1.0000 0.1101035491
H   H191      1.0  0.35839  0.58601  0.51426  1.0000 0.1101035491
H   H192      1.0  0.51426  0.35839  0.58601  1.0000 0.1101035491
H   H193      1.0  0.33878  0.77543  0.69619  1.0000 0.1190872205
H   H194      1.0  0.77543  0.69619  0.33878  1.0000 0.1190872205
H   H195      1.0  0.69619  0.33878  0.77543  1.0000 0.1190872205
H   H196      1.0  0.83878  0.19619  0.27543  1.0000 0.1190872205
H   H197      1.0  0.27543  0.83878  0.19619  1.0000 0.1190872205
H   H198      1.0  0.19619  0.27543  0.83878  1.0000 0.1190872205
H   H199      1.0  0.33834  0.67395  0.86456  1.0000 0.1190872205
H   H200      1.0  0.67395  0.86456  0.33834  1.0000 0.1190872205
H   H201      1.0  0.86456  0.33834  0.67395  1.0000 0.1190872205
H   H202      1.0  0.83834  0.36456  0.17395  1.0000 0.1190872205
H   H203      1.0  0.17395  0.83834  0.36456  1.0000 0.1190872205
H   H204      1.0  0.36456  0.17395  0.83834  1.0000 0.1190872205
H   H205      1.0  0.10357  0.96761  0.86648  1.0000 0.1190872205
H   H206      1.0  0.96761  0.86648  0.10357  1.0000 0.1190872205
H   H207      1.0  0.86648  0.10357  0.96761  1.0000 0.1190872205
H   H208      1.0  0.60357  0.36648  0.46761  1.0000 0.1190872205
H   H209      1.0  0.46761  0.60357  0.36648  1.0000 0.1190872205
H   H210      1.0  0.36648  0.46761  0.60357  1.0000 0.1190872205
H   H211      1.0  0.33794  0.55443  0.82640  1.0000 0.1190872205
H   H212      1.0  0.55443  0.82640  0.33794  1.0000 0.1190872205
H   H213      1.0  0.82640  0.33794  0.55443  1.0000 0.1190872205
H   H214      1.0  0.83794  0.32640  0.05443  1.0000 0.1190872205
H   H215      1.0  0.05443  0.83794  0.32640  1.0000 0.1190872205
H   H216      1.0  0.32640  0.05443  0.83794  1.0000 0.1190872205
H   H217      1.0  0.31739  0.79772  0.60663  1.0000 0.1190872205
H   H218      1.0  0.79772  0.60663  0.31739  1.0000 0.1190872205
H   H219      1.0  0.60663  0.31739  0.79772  1.0000 0.1277411482
H   H220      1.0  0.81739  0.10663  0.29772  1.0000 0.1277411482
H   H221      1.0  0.29772  0.81739  0.10663  1.0000 0.1277411482
H   H222      1.0  0.10663  0.29772  0.81739  1.0000 0.1190872205
H   H223      1.0  0.34888  0.46797  0.86447  1.0000 0.1190872205
H   H224      1.0  0.46797  0.86447  0.34888  1.0000 0.1190872205
H   H225      1.0  0.86447  0.34888  0.46797  1.0000 0.1190872205
H   H226      1.0  0.84888  0.36447  0.96797  1.0000 0.1190872205
H   H227      1.0  0.96797  0.84888  0.36447  1.0000 0.1190872205
H   H228      1.0  0.36447  0.96797  0.84888  1.0000 0.1190872205
H   H229      1.0  0.67300  0.87915  0.55613  1.0000 0.1190872205
H   H230      1.0  0.87915  0.55613  0.67300  1.0000 0.1190872205
H   H231      1.0  0.55613  0.67300  0.87915  1.0000 0.1190872205
H   H232      1.0  0.17300  0.05613  0.37915  1.0000 0.1190872205
H   H233      1.0  0.37915  0.17300  0.05613  1.0000 0.1190872205
H   H234      1.0  0.05613  0.37915  0.17300  1.0000 0.1190872205
H   H235      1.0  0.48453  0.87947  0.65973  1.0000 0.1190872205
H   H236      1.0  0.87947  0.65973  0.48453  1.0000 0.1190872205
H   H237      1.0  0.65973  0.48453  0.87947  1.0000 0.1190872205
H   H238      1.0  0.98453  0.15973  0.37947  1.0000 0.1190872205
H   H239      1.0  0.37947  0.98453  0.15973  1.0000 0.1190872205
H   H240      1.0  0.15973  0.37947  0.98453  1.0000 0.1190872205
H   H241      1.0  0.56781  0.81547  0.73257  1.0000 0.1277411482
H   H242      1.0  0.81547  0.73257  0.56781  1.0000 0.1277411482
H   H243      1.0  0.73257  0.56781  0.81547  1.0000 0.1277411482
H   H244      1.0  0.06781  0.23257  0.31547  1.0000 0.1277411482
H   H245      1.0  0.31547  0.06781  0.23257  1.0000 0.1277411482
H   H246      1.0  0.23257  0.31547  0.06781  1.0000 0.1277411482
H   H247      1.0  0.63265  0.84190  0.65052  1.0000 0.1101035491
H   H248      1.0  0.84190  0.65052  0.63265  1.0000 0.1101035491
H   H249      1.0  0.65052  0.63265  0.84190  1.0000 0.1101035491
H   H250      1.0  0.13265  0.15052  0.34190  1.0000 0.1101035491
H   H251      1.0  0.34190  0.13265  0.15052  1.0000 0.1101035491
H   H252      1.0  0.15052  0.34190  0.13265  1.0000 0.1101035491
H   H253      1.0  0.60552  0.90041  0.48867  1.0000 0.1190872205
H   H254      1.0  0.90041  0.48867  0.60552  1.0000 0.1190872205
H   H255      1.0  0.48867  0.60552  0.90041  1.0000 0.1190872205
H   H256      1.0  0.10552  0.98867  0.40041  1.0000 0.1190872205
H   H257      1.0  0.40041  0.10552  0.98867  1.0000 0.1190872205
H   H258      1.0  0.98867  0.40041  0.10552  1.0000 0.1190872205
H   H259      1.0  0.52935  0.89978  0.56702  1.0000 0.1101035491
H   H260      1.0  0.89978  0.56702  0.52935  1.0000 0.1101035491
H   H261      1.0  0.56702  0.52935  0.89978  1.0000 0.1101035491
H   H262      1.0  0.02935  0.06702  0.39978  1.0000 0.1101035491
H   H263      1.0  0.39978  0.02935  0.06702  1.0000 0.1101035491
H   H264      1.0  0.06702  0.39978  0.02935  1.0000 0.1101035491
C   C1        1.0  0.30641  0.59045  0.63627  1.0000 -0.0391758262
C   C2        1.0  0.63627  0.30641  0.59045  1.0000 -0.0391758262
C   C3        1.0  0.59045  0.63627  0.30641  1.0000 -0.0391758262
C   C4        1.0  0.80641  0.13627  0.09045  1.0000 -0.0391758262
C   C5        1.0  0.13627  0.09045  0.80641  1.0000 -0.0391758262
C   C6        1.0  0.09045  0.80641  0.13627  1.0000 -0.0391758262
C   C7        1.0  0.14970  0.70235  0.76115  1.0000 -0.0391758262
C   C8        1.0  0.76115  0.14970  0.70235  1.0000 -0.0391758262
C   C9        1.0  0.70235  0.76115  0.14970  1.0000 -0.0391758262
C   C10       1.0  0.64970  0.26115  0.20235  1.0000 -0.0391758262
C   C11       1.0  0.26115  0.20235  0.64970  1.0000 -0.0391758262
C   C12       1.0  0.20235  0.64970  0.26115  1.0000 -0.0391758262
C   C13       1.0  0.21946  0.96095  0.69217  1.0000 -0.0479798603
C   C14       1.0  0.69217  0.21946  0.96095  1.0000 -0.0479798603
C   C15       1.0  0.96095  0.69217  0.21946  1.0000 -0.0479798603
C   C16       1.0  0.71946  0.19217  0.46095  1.0000 -0.0479798603
C   C17       1.0  0.19217  0.46095  0.71946  1.0000 -0.0479798603
C   C18       1.0  0.46095  0.71946  0.19217  1.0000 -0.0479798603
C   C19       1.0  0.22272  0.01174  0.66206  1.0000 0.610079887
C   C20       1.0  0.66206  0.22272  0.01174  1.0000 0.610079887
C   C21       1.0  0.01174  0.66206  0.22272  1.0000 0.610079887
C   C22       1.0  0.72272  0.16206  0.51174  1.0000 0.610079887
C   C23       1.0  0.16206  0.51174  0.72272  1.0000 0.610079887
C   C24       1.0  0.51174  0.72272  0.16206  1.0000 0.610079887
C   C25       1.0  0.13925  0.68076  0.74657  1.0000 0.610079887
C   C26       1.0  0.74657  0.13925  0.68076  1.0000 0.610079887
C   C27       1.0  0.68076  0.74657  0.13925  1.0000 0.610079887
C   C28       1.0  0.63925  0.24657  0.18076  1.0000 0.610079887
C   C29       1.0  0.24657  0.18076  0.63925  1.0000 0.610079887
C   C30       1.0  0.18076  0.63925  0.24657  1.0000 0.610079887
C   C31       1.0  0.23516  0.92418  0.73430  1.0000 -0.0932454229
C   C32       1.0  0.73430  0.23516  0.92418  1.0000 -0.0932454229
C   C33       1.0  0.92418  0.73430  0.23516  1.0000 -0.0932454229
C   C34       1.0  0.73516  0.23430  0.42418  1.0000 -0.0932454229
C   C35       1.0  0.23430  0.42418  0.73516  1.0000 -0.0932454229
C   C36       1.0  0.42418  0.73516  0.23430  1.0000 -0.0932454229
C   C37       1.0  0.24897  0.60699  0.66433  1.0000 0.610079887
C   C38       1.0  0.66433  0.24897  0.60699  1.0000 0.610079887
C   C39       1.0  0.60699  0.66433  0.24897  1.0000 0.610079887
C   C40       1.0  0.74897  0.16433  0.10699  1.0000 0.610079887
C   C41       1.0  0.16433  0.10699  0.74897  1.0000 0.610079887
C   C42       1.0  0.10699  0.74897  0.16433  1.0000 0.610079887
C   C43       1.0  0.20820  0.70950  0.98050  1.0000 -0.1016956145
C   C44       1.0  0.98050  0.20820  0.70950  1.0000 -0.1016956145
C   C45       1.0  0.70950  0.98050  0.20820  1.0000 -0.1016956145
C   C46       1.0  0.70820  0.48050  0.20950  1.0000 -0.1016956145
C   C47       1.0  0.48050  0.20950  0.70820  1.0000 -0.1016956145
C   C48       1.0  0.20950  0.70820  0.48050  1.0000 -0.1016956145
C   C49       1.0  0.46981  0.53674  0.54746  1.0000 0.3474130597
C   C50       1.0  0.54746  0.46981  0.53674  1.0000 0.3474130597
C   C51       1.0  0.53674  0.54746  0.46981  1.0000 0.3474130597
C   C52       1.0  0.96981  0.04746  0.03674  1.0000 0.3474130597
C   C53       1.0  0.04746  0.03674  0.96981  1.0000 0.3474130597
C   C54       1.0  0.03674  0.96981  0.04746  1.0000 0.3474130597
C   C55       1.0  0.81190  0.03556  0.59558  1.0000 0.610079887
C   C56       1.0  0.59558  0.81190  0.03556  1.0000 0.6157287028
C   C57       1.0  0.03556  0.59558  0.81190  1.0000 0.610079887
C   C58       1.0  0.31190  0.09558  0.53556  1.0000 0.610079887
C   C59       1.0  0.09558  0.53556  0.31190  1.0000 0.610079887
C   C60       1.0  0.53556  0.31190  0.09558  1.0000 0.610079887
C   C61       1.0  0.41443  0.55546  0.58046  1.0000 0.0200011839
C   C62       1.0  0.58046  0.41443  0.55546  1.0000 0.0200011839
C   C63       1.0  0.55546  0.58046  0.41443  1.0000 0.0200011839
C   C64       1.0  0.91443  0.08046  0.05546  1.0000 0.0200011839
C   C65       1.0  0.08046  0.05546  0.91443  1.0000 0.0200011839
C   C66       1.0  0.05546  0.91443  0.08046  1.0000 0.0200011839
C   C67       1.0  0.23020  0.87830  0.76360  1.0000 -0.1175293221
C   C68       1.0  0.76360  0.23020  0.87830  1.0000 -0.1175293221
C   C69       1.0  0.87830  0.76360  0.23020  1.0000 -0.1175293221
C   C70       1.0  0.73020  0.26360  0.37830  1.0000 -0.1175293221
C   C71       1.0  0.26360  0.37830  0.73020  1.0000 -0.1175293221
C   C72       1.0  0.37830  0.73020  0.26360  1.0000 -0.1175293221
C   C73       1.0  0.21308  0.73238  0.92988  1.0000 -0.1175293221
C   C74       1.0  0.92988  0.21308  0.73238  1.0000 -0.1175293221
C   C75       1.0  0.73238  0.92988  0.21308  1.0000 -0.1175293221
C   C76       1.0  0.71308  0.42988  0.23238  1.0000 -0.1175293221
C   C77       1.0  0.42988  0.23238  0.71308  1.0000 -0.1175293221
C   C78       1.0  0.23238  0.71308  0.42988  1.0000 -0.1175293221
C   C79       1.0  0.18519  0.67393  0.01835  1.0000 -0.0276632055
C   C80       1.0  0.01835  0.18519  0.67393  1.0000 -0.0276632055
C   C81       1.0  0.67393  0.01835  0.18519  1.0000 -0.0276632055
C   C82       1.0  0.68519  0.51835  0.17393  1.0000 -0.0276632055
C   C83       1.0  0.51835  0.17393  0.68519  1.0000 -0.0276632055
C   C84       1.0  0.17393  0.68519  0.51835  1.0000 -0.0276632055
C   C85       1.0  0.19985  0.94785  0.68135  1.0000 -0.0932454229
C   C86       1.0  0.68135  0.19985  0.94785  1.0000 -0.0932454229
C   C87       1.0  0.94785  0.68135  0.19985  1.0000 -0.0932454229
C   C88       1.0  0.69985  0.18135  0.44785  1.0000 -0.0932454229
C   C89       1.0  0.18135  0.44785  0.69985  1.0000 -0.0932454229
C   C90       1.0  0.44785  0.69985  0.18135  1.0000 -0.0932454229
C   C91       1.0  0.17709  0.65063  0.07396  1.0000 0.6046441313
C   C92       1.0  0.07396  0.17709  0.65063  1.0000 0.610079887
C   C93       1.0  0.65063  0.07396  0.17709  1.0000 0.6046441313
C   C94       1.0  0.67709  0.57396  0.15063  1.0000 0.6046441313
C   C95       1.0  0.57396  0.15063  0.67709  1.0000 0.6046441313
C   C96       1.0  0.15063  0.67709  0.57396  1.0000 0.610079887
C   C97       1.0  0.33821  0.53801  0.65571  1.0000 -0.1016956145
C   C98       1.0  0.65571  0.33821  0.53801  1.0000 -0.1016956145
C   C99       1.0  0.53801  0.65571  0.33821  1.0000 -0.1016956145
C   C100      1.0  0.83821  0.15571  0.03801  1.0000 -0.1016956145
C   C101      1.0  0.15571  0.03801  0.83821  1.0000 -0.1016956145
C   C102      1.0  0.03801  0.83821  0.15571  1.0000 -0.1016956145
C   C103      1.0  0.21065  0.86555  0.75315  1.0000 0.0200011839
C   C104      1.0  0.75315  0.21065  0.86555  1.0000 0.0200011839
C   C105      1.0  0.86555  0.75315  0.21065  1.0000 0.0200011839
C   C106      1.0  0.71065  0.25315  0.36555  1.0000 0.0200011839
C   C107      1.0  0.25315  0.36555  0.71065  1.0000 0.0200011839
C   C108      1.0  0.36555  0.71065  0.25315  1.0000 0.0200011839
C   C109      1.0  0.32920  0.62380  0.59060  1.0000 -0.1016956145
C   C110      1.0  0.59060  0.32920  0.62380  1.0000 -0.1016956145
C   C111      1.0  0.62380  0.59060  0.32920  1.0000 -0.1016956145
C   C112      1.0  0.82920  0.09060  0.12380  1.0000 -0.1016956145
C   C113      1.0  0.09060  0.12380  0.82920  1.0000 -0.1016956145
C   C114      1.0  0.12380  0.82920  0.09060  1.0000 -0.1016956145
C   C115      1.0  0.19535  0.71875  0.91735  1.0000 0.0200011839
C   C116      1.0  0.91735  0.19535  0.71875  1.0000 0.0200011839
C   C117      1.0  0.71875  0.91735  0.19535  1.0000 0.0200011839
C   C118      1.0  0.69535  0.41735  0.21875  1.0000 0.0200011839
C   C119      1.0  0.41735  0.21875  0.69535  1.0000 0.0200011839
C   C120      1.0  0.21875  0.69535  0.41735  1.0000 0.0200011839
C   C121      1.0  0.17131  0.73821  0.79011  1.0000 0.0200011839
C   C122      1.0  0.79011  0.17131  0.73821  1.0000 0.0200011839
C   C123      1.0  0.73821  0.79011  0.17131  1.0000 0.0200011839
C   C124      1.0  0.67131  0.29011  0.23821  1.0000 0.0200011839
C   C125      1.0  0.29011  0.23821  0.67131  1.0000 0.0200011839
C   C126      1.0  0.23821  0.67131  0.29011  1.0000 0.0200011839
C   C127      1.0  0.17124  0.68864  0.82004  1.0000 -0.1098171495
C   C128      1.0  0.82004  0.17124  0.68864  1.0000 -0.1098171495
C   C129      1.0  0.68864  0.82004  0.17124  1.0000 -0.1098171495
C   C130      1.0  0.67124  0.32004  0.18864  1.0000 -0.1098171495
C   C131      1.0  0.32004  0.18864  0.67124  1.0000 -0.1098171495
C   C132      1.0  0.18864  0.67124  0.32004  1.0000 -0.1098171495
C   C133      1.0  0.15065  0.75105  0.73145  1.0000 -0.1016956145
C   C134      1.0  0.73145  0.15065  0.75105  1.0000 -0.1016956145
C   C135      1.0  0.75105  0.73145  0.15065  1.0000 -0.1016956145
C   C136      1.0  0.65065  0.23145  0.25105  1.0000 -0.1016956145
C   C137      1.0  0.23145  0.25105  0.65065  1.0000 -0.1016956145
C   C138      1.0  0.25105  0.65065  0.23145  1.0000 -0.1016956145
C   C139      1.0  0.20226  0.81656  0.78806  1.0000 0.3624371887
C   C140      1.0  0.78806  0.20226  0.81656  1.0000 0.3624371887
C   C141      1.0  0.81656  0.78806  0.20226  1.0000 0.3624371887
C   C142      1.0  0.70226  0.28806  0.31656  1.0000 0.3624371887
C   C143      1.0  0.28806  0.31656  0.70226  1.0000 0.3624371887
C   C144      1.0  0.31656  0.70226  0.28806  1.0000 0.3624371887
C   C145      1.0  0.02594  0.74594  0.66444  1.0000 0.610079887
C   C146      1.0  0.66444  0.02594  0.74594  1.0000 0.610079887
C   C147      1.0  0.74594  0.66444  0.02594  1.0000 0.610079887
C   C148      1.0  0.52594  0.16444  0.24594  1.0000 0.610079887
C   C149      1.0  0.16444  0.24594  0.52594  1.0000 0.610079887
C   C150      1.0  0.24594  0.52594  0.16444  1.0000 0.610079887
C   C151      1.0  0.39231  0.52102  0.62793  1.0000 -0.1098171495
C   C152      1.0  0.62793  0.39231  0.52102  1.0000 -0.1175293221
C   C153      1.0  0.52102  0.62793  0.39231  1.0000 -0.1175293221
C   C154      1.0  0.89231  0.12793  0.02102  1.0000 -0.1175293221
C   C155      1.0  0.12793  0.02102  0.89231  1.0000 -0.1175293221
C   C156      1.0  0.02102  0.89231  0.12793  1.0000 -0.1175293221
C   C157      1.0  0.19686  0.74736  0.86416  1.0000 0.3658191112
C   C158      1.0  0.86416  0.19686  0.74736  1.0000 0.3658191112
C   C159      1.0  0.74736  0.86416  0.19686  1.0000 0.3658191112
C   C160      1.0  0.69686  0.36416  0.24736  1.0000 0.3658191112
C   C161      1.0  0.36416  0.24736  0.69686  1.0000 0.3658191112
C   C162      1.0  0.24736  0.69686  0.36416  1.0000 0.3658191112
C   C163      1.0  0.16108  0.76988  0.74518  1.0000 -0.1175293221
C   C164      1.0  0.74518  0.16108  0.76988  1.0000 -0.1175293221
C   C165      1.0  0.76988  0.74518  0.16108  1.0000 -0.1175293221
C   C166      1.0  0.66108  0.24518  0.26988  1.0000 -0.1175293221
C   C167      1.0  0.24518  0.26988  0.66108  1.0000 -0.1175293221
C   C168      1.0  0.26988  0.66108  0.24518  1.0000 -0.1175293221
C   C169      1.0  0.16103  0.66963  0.80603  1.0000 -0.1098171495
C   C170      1.0  0.80603  0.16103  0.66963  1.0000 -0.1098171495
C   C171      1.0  0.66963  0.80603  0.16103  1.0000 -0.1098171495
C   C172      1.0  0.66103  0.30603  0.16963  1.0000 -0.1098171495
C   C173      1.0  0.30603  0.16963  0.66103  1.0000 -0.1098171495
C   C174      1.0  0.16963  0.66103  0.30603  1.0000 -0.1098171495
C   C175      1.0  0.38190  0.60870  0.56290  1.0000 -0.1175293221
C   C176      1.0  0.56290  0.38190  0.60870  1.0000 -0.1175293221
C   C177      1.0  0.60870  0.56290  0.38190  1.0000 -0.1175293221
C   C178      1.0  0.88190  0.06290  0.10870  1.0000 -0.1175293221
C   C179      1.0  0.06290  0.10870  0.88190  1.0000 -0.1175293221
C   C180      1.0  0.10870  0.88190  0.06290  1.0000 -0.1175293221
C   C181      1.0  0.17334  0.68294  0.95474  1.0000 -0.1098171495
C   C182      1.0  0.95474  0.17334  0.68294  1.0000 -0.1098171495
C   C183      1.0  0.68294  0.95474  0.17334  1.0000 -0.1098171495
C   C184      1.0  0.67334  0.45474  0.18294  1.0000 -0.1098171495
C   C185      1.0  0.45474  0.18294  0.67334  1.0000 -0.1098171495
C   C186      1.0  0.18294  0.67334  0.45474  1.0000 -0.1098171495
C   C187      1.0  0.19572  0.90172  0.71052  1.0000 -0.1175293221
C   C188      1.0  0.71052  0.19572  0.90172  1.0000 -0.1175293221
C   C189      1.0  0.90172  0.71052  0.19572  1.0000 -0.1175293221
C   C190      1.0  0.69572  0.21052  0.40172  1.0000 -0.1175293221
C   C191      1.0  0.21052  0.40172  0.69572  1.0000 -0.1175293221
C   C192      1.0  0.40172  0.69572  0.21052  1.0000 -0.1175293221
C   C193      1.0  0.16708  0.65998  0.00598  1.0000 -0.1098171495
C   C194      1.0  0.00598  0.16708  0.65998  1.0000 -0.1098171495
C   C195      1.0  0.65998  0.00598  0.16708  1.0000 -0.1098171495
C   C196      1.0  0.66708  0.50598  0.15998  1.0000 -0.1098171495
C   C197      1.0  0.50598  0.15998  0.66708  1.0000 -0.1098171495
C   C198      1.0  0.15998  0.66708  0.50598  1.0000 -0.1098171495
C   C199      1.0  0.18484  0.75634  0.80474  1.0000 0.3624371887
C   C200      1.0  0.80474  0.18484  0.75634  1.0000 0.3624371887
C   C201      1.0  0.75634  0.80474  0.18484  1.0000 0.3624371887
C   C202      1.0  0.68484  0.30474  0.25634  1.0000 0.3624371887
C   C203      1.0  0.30474  0.25634  0.68484  1.0000 0.3624371887
C   C204      1.0  0.25634  0.68484  0.30474  1.0000 0.3624371887
C   C205      1.0  0.98123  0.79463  0.65383  1.0000 -0.0243531437
C   C206      1.0  0.65383  0.98123  0.79463  1.0000 -0.0243531437
C   C207      1.0  0.79463  0.65383  0.98123  1.0000 -0.0243531437
C   C208      1.0  0.48123  0.15383  0.29463  1.0000 -0.0243531437
C   C209      1.0  0.15383  0.29463  0.48123  1.0000 -0.0243531437
C   C210      1.0  0.29463  0.48123  0.15383  1.0000 -0.0243531437
C   C211      1.0  0.85706  0.98656  0.60236  1.0000 -0.0479798603
C   C212      1.0  0.60236  0.85706  0.98656  1.0000 -0.0479798603
C   C213      1.0  0.98656  0.60236  0.85706  1.0000 -0.0479798603
C   C214      1.0  0.35706  0.10236  0.48656  1.0000 -0.0479798603
C   C215      1.0  0.10236  0.48656  0.35706  1.0000 -0.0479798603
C   C216      1.0  0.48656  0.35706  0.10236  1.0000 -0.0479798603
C   C217      1.0  0.85553  0.94263  0.61803  1.0000 -0.1175293221
C   C218      1.0  0.61803  0.85553  0.94263  1.0000 -0.1175293221
C   C219      1.0  0.94263  0.61803  0.85553  1.0000 -0.1175293221
C   C220      1.0  0.35553  0.11803  0.44263  1.0000 -0.1175293221
C   C221      1.0  0.11803  0.44263  0.35553  1.0000 -0.1175293221
C   C222      1.0  0.44263  0.35553  0.11803  1.0000 -0.1175293221
C   C223      1.0  0.89864  0.89214  0.63084  1.0000 0.0518592357
C   C224      1.0  0.63084  0.89864  0.89214  1.0000 0.0518592357
C   C225      1.0  0.89214  0.63084  0.89864  1.0000 0.0518592357
C   C226      1.0  0.39864  0.13084  0.39214  1.0000 0.0518592357
C   C227      1.0  0.13084  0.39214  0.39864  1.0000 0.055563223
C   C228      1.0  0.39214  0.39864  0.13084  1.0000 0.0518592357
C   C229      1.0  0.98411  0.83991  0.63111  1.0000 -0.1565364081
C   C230      1.0  0.63111  0.98411  0.83991  1.0000 -0.1565364081
C   C231      1.0  0.83991  0.63111  0.98411  1.0000 -0.153980384
C   C232      1.0  0.48411  0.13111  0.33991  1.0000 -0.1565364081
C   C233      1.0  0.13111  0.33991  0.48411  1.0000 -0.153980384
C   C234      1.0  0.33991  0.48411  0.13111  1.0000 -0.153980384
C   C235      1.0  0.94020  0.88810  0.62260  1.0000 0.0518592357
C   C236      1.0  0.62260  0.94020  0.88810  1.0000 0.0518592357
C   C237      1.0  0.88810  0.62260  0.94020  1.0000 0.0518592357
C   C238      1.0  0.44020  0.12260  0.38810  1.0000 0.0518592357
C   C239      1.0  0.12260  0.38810  0.44020  1.0000 0.0518592357
C   C240      1.0  0.38810  0.44020  0.12260  1.0000 0.0518592357
C   C241      1.0  0.93814  0.79804  0.66594  1.0000 -0.1016956145
C   C242      1.0  0.66594  0.93814  0.79804  1.0000 -0.1016956145
C   C243      1.0  0.79804  0.66594  0.93814  1.0000 -0.1016956145
C   C244      1.0  0.43814  0.16594  0.29804  1.0000 -0.1016956145
C   C245      1.0  0.16594  0.29804  0.43814  1.0000 -0.1016956145
C   C246      1.0  0.29804  0.43814  0.16594  1.0000 -0.1016956145
C   C247      1.0  0.89742  0.84902  0.65142  1.0000 -0.153980384
C   C248      1.0  0.65142  0.89742  0.84902  1.0000 -0.1565364081
C   C249      1.0  0.84902  0.65142  0.89742  1.0000 -0.153980384
C   C250      1.0  0.39742  0.15142  0.34902  1.0000 -0.153980384
C   C251      1.0  0.15142  0.34902  0.39742  1.0000 -0.1565364081
C   C252      1.0  0.34902  0.39742  0.15142  1.0000 -0.153980384
C   C253      1.0  0.89590  0.98260  0.60270  1.0000 -0.0932454229
C   C254      1.0  0.60270  0.89590  0.98260  1.0000 -0.0932454229
C   C255      1.0  0.98260  0.60270  0.89590  1.0000 -0.0932454229
C   C256      1.0  0.39590  0.10270  0.48260  1.0000 -0.0932454229
C   C257      1.0  0.10270  0.48260  0.39590  1.0000 -0.0932454229
C   C258      1.0  0.48260  0.39590  0.10270  1.0000 -0.0932454229
C   C259      1.0  0.93997  0.93377  0.60767  1.0000 -0.1883600698
C   C260      1.0  0.60767  0.93997  0.93377  1.0000 -0.1883600698
C   C261      1.0  0.93377  0.60767  0.93997  1.0000 -0.1883600698
C   C262      1.0  0.43997  0.10767  0.43377  1.0000 -0.1883600698
C   C263      1.0  0.10767  0.43377  0.43997  1.0000 -0.1883600698
C   C264      1.0  0.43377  0.43997  0.10767  1.0000 -0.1883600698
C   C265      1.0  0.19359  0.86373  0.90955  1.0000 -0.0391758262
C   C266      1.0  0.86373  0.90955  0.19359  1.0000 -0.0391758262
C   C267      1.0  0.90955  0.19359  0.86373  1.0000 -0.0391758262
C   C268      1.0  0.69359  0.40955  0.36373  1.0000 -0.0391758262
C   C269      1.0  0.36373  0.69359  0.40955  1.0000 -0.0391758262
C   C270      1.0  0.40955  0.36373  0.69359  1.0000 -0.0391758262
C   C271      1.0  0.35030  0.73885  0.79765  1.0000 -0.0391758262
C   C272      1.0  0.73885  0.79765  0.35030  1.0000 -0.0391758262
C   C273      1.0  0.79765  0.35030  0.73885  1.0000 -0.0391758262
C   C274      1.0  0.85030  0.29765  0.23885  1.0000 -0.0391758262
C   C275      1.0  0.23885  0.85030  0.29765  1.0000 -0.0391758262
C   C276      1.0  0.29765  0.23885  0.85030  1.0000 -0.0391758262
C   C277      1.0  0.28054  0.80783  0.53905  1.0000 -0.0479798603
C   C278      1.0  0.80783  0.53905  0.28054  1.0000 -0.0479798603
C   C279      1.0  0.53905  0.28054  0.80783  1.0000 -0.0479798603
C   C280      1.0  0.78054  0.03905  0.30783  1.0000 -0.0479798603
C   C281      1.0  0.30783  0.78054  0.03905  1.0000 -0.0479798603
C   C282      1.0  0.03905  0.30783  0.78054  1.0000 -0.0479798603
C   C283      1.0  0.27728  0.83794  0.48826  1.0000 0.610079887
C   C284      1.0  0.83794  0.48826  0.27728  1.0000 0.610079887
C   C285      1.0  0.48826  0.27728  0.83794  1.0000 0.610079887
C   C286      1.0  0.77728  0.98826  0.33794  1.0000 0.610079887
C   C287      1.0  0.33794  0.77728  0.98826  1.0000 0.610079887
C   C288      1.0  0.98826  0.33794  0.77728  1.0000 0.610079887
C   C289      1.0  0.36075  0.75343  0.81924  1.0000 0.610079887
C   C290      1.0  0.75343  0.81924  0.36075  1.0000 0.610079887
C   C291      1.0  0.81924  0.36075  0.75343  1.0000 0.610079887
C   C292      1.0  0.86075  0.31924  0.25343  1.0000 0.610079887
C   C293      1.0  0.25343  0.86075  0.31924  1.0000 0.610079887
C   C294      1.0  0.31924  0.25343  0.86075  1.0000 0.610079887
C   C295      1.0  0.26484  0.76570  0.57582  1.0000 -0.0932454229
C   C296      1.0  0.76570  0.57582  0.26484  1.0000 -0.0932454229
C   C297      1.0  0.57582  0.26484  0.76570  1.0000 -0.0932454229
C   C298      1.0  0.76484  0.07582  0.26570  1.0000 -0.0932454229
C   C299      1.0  0.26570  0.76484  0.07582  1.0000 -0.0932454229
C   C300      1.0  0.07582  0.26570  0.76484  1.0000 -0.0932454229
C   C301      1.0  0.25103  0.83567  0.89301  1.0000 0.610079887
C   C302      1.0  0.83567  0.89301  0.25103  1.0000 0.610079887
C   C303      1.0  0.89301  0.25103  0.83567  1.0000 0.610079887
C   C304      1.0  0.75103  0.39301  0.33567  1.0000 0.610079887
C   C305      1.0  0.33567  0.75103  0.39301  1.0000 0.610079887
C   C306      1.0  0.39301  0.33567  0.75103  1.0000 0.610079887
C   C307      1.0  0.29180  0.51950  0.79050  1.0000 -0.1016956145
C   C308      1.0  0.51950  0.79050  0.29180  1.0000 -0.1016956145
C   C309      1.0  0.79050  0.29180  0.51950  1.0000 -0.1016956145
C   C310      1.0  0.79180  0.29050  0.01950  1.0000 -0.1016956145
C   C311      1.0  0.01950  0.79180  0.29050  1.0000 -0.1016956145
C   C312      1.0  0.29050  0.01950  0.79180  1.0000 -0.1016956145
C   C313      1.0  0.03019  0.95254  0.96326  1.0000 0.3474130597
C   C314      1.0  0.95254  0.96326  0.03019  1.0000 0.3474130597
C   C315      1.0  0.96326  0.03019  0.95254  1.0000 0.3474130597
C   C316      1.0  0.53019  0.46326  0.45254  1.0000 0.3474130597
C   C317      1.0  0.45254  0.53019  0.46326  1.0000 0.3474130597
C   C318      1.0  0.46326  0.45254  0.53019  1.0000 0.3474130597
C   C319      1.0  0.68810  0.90442  0.46444  1.0000 0.610079887
C   C320      1.0  0.90442  0.46444  0.68810  1.0000 0.610079887
C   C321      1.0  0.46444  0.68810  0.90442  1.0000 0.610079887
C   C322      1.0  0.18810  0.96444  0.40442  1.0000 0.610079887
C   C323      1.0  0.40442  0.18810  0.96444  1.0000 0.610079887
C   C324      1.0  0.96444  0.40442  0.18810  1.0000 0.6157287028
C   C325      1.0  0.08557  0.91954  0.94454  1.0000 0.0200011839
C   C326      1.0  0.91954  0.94454  0.08557  1.0000 0.0200011839
C   C327      1.0  0.94454  0.08557  0.91954  1.0000 0.0200011839
C   C328      1.0  0.58557  0.44454  0.41954  1.0000 0.0200011839
C   C329      1.0  0.41954  0.58557  0.44454  1.0000 0.0200011839
C   C330      1.0  0.44454  0.41954  0.58557  1.0000 0.0200011839
C   C331      1.0  0.26980  0.73640  0.62170  1.0000 -0.1175293221
C   C332      1.0  0.73640  0.62170  0.26980  1.0000 -0.1175293221
C   C333      1.0  0.62170  0.26980  0.73640  1.0000 -0.1175293221
C   C334      1.0  0.76980  0.12170  0.23640  1.0000 -0.1175293221
C   C335      1.0  0.23640  0.76980  0.12170  1.0000 -0.1175293221
C   C336      1.0  0.12170  0.23640  0.76980  1.0000 -0.1175293221
C   C337      1.0  0.28692  0.57012  0.76762  1.0000 -0.1175293221
C   C338      1.0  0.57012  0.76762  0.28692  1.0000 -0.1175293221
C   C339      1.0  0.76762  0.28692  0.57012  1.0000 -0.1175293221
C   C340      1.0  0.78692  0.26762  0.07012  1.0000 -0.1175293221
C   C341      1.0  0.07012  0.78692  0.26762  1.0000 -0.1175293221
C   C342      1.0  0.26762  0.07012  0.78692  1.0000 -0.1175293221
C   C343      1.0  0.31481  0.48165  0.82607  1.0000 -0.0276632055
C   C344      1.0  0.48165  0.82607  0.31481  1.0000 -0.0276632055
C   C345      1.0  0.82607  0.31481  0.48165  1.0000 -0.0276632055
C   C346      1.0  0.81481  0.32607  0.98165  1.0000 -0.0276632055
C   C347      1.0  0.98165  0.81481  0.32607  1.0000 -0.0276632055
C   C348      1.0  0.32607  0.98165  0.81481  1.0000 -0.0276632055
C   C349      1.0  0.30015  0.81865  0.55215  1.0000 -0.0932454229
C   C350      1.0  0.81865  0.55215  0.30015  1.0000 -0.0932454229
C   C351      1.0  0.55215  0.30015  0.81865  1.0000 -0.0932454229
C   C352      1.0  0.80015  0.05215  0.31865  1.0000 -0.0932454229
C   C353      1.0  0.31865  0.80015  0.05215  1.0000 -0.0932454229
C   C354      1.0  0.05215  0.31865  0.80015  1.0000 -0.0932454229
C   C355      1.0  0.32291  0.42604  0.84937  1.0000 0.610079887
C   C356      1.0  0.42604  0.84937  0.32291  1.0000 0.6046441313
C   C357      1.0  0.84937  0.32291  0.42604  1.0000 0.6046441313
C   C358      1.0  0.82291  0.34937  0.92604  1.0000 0.6046441313
C   C359      1.0  0.92604  0.82291  0.34937  1.0000 0.6046441313
C   C360      1.0  0.34937  0.92604  0.82291  1.0000 0.610079887
C   C361      1.0  0.16179  0.84429  0.96199  1.0000 -0.1016956145
C   C362      1.0  0.84429  0.96199  0.16179  1.0000 -0.1016956145
C   C363      1.0  0.96199  0.16179  0.84429  1.0000 -0.1016956145
C   C364      1.0  0.66179  0.46199  0.34429  1.0000 -0.1016956145
C   C365      1.0  0.34429  0.66179  0.46199  1.0000 -0.1016956145
C   C366      1.0  0.46199  0.34429  0.66179  1.0000 -0.1016956145
C   C367      1.0  0.28935  0.74685  0.63445  1.0000 0.0255392459
C   C368      1.0  0.74685  0.63445  0.28935  1.0000 0.0200011839
C   C369      1.0  0.63445  0.28935  0.74685  1.0000 0.0200011839
C   C370      1.0  0.78935  0.13445  0.24685  1.0000 0.0200011839
C   C371      1.0  0.24685  0.78935  0.13445  1.0000 0.0200011839
C   C372      1.0  0.13445  0.24685  0.78935  1.0000 0.0255392459
C   C373      1.0  0.17080  0.90940  0.87620  1.0000 -0.1016956145
C   C374      1.0  0.90940  0.87620  0.17080  1.0000 -0.1016956145
C   C375      1.0  0.87620  0.17080  0.90940  1.0000 -0.1016956145
C   C376      1.0  0.67080  0.37620  0.40940  1.0000 -0.1016956145
C   C377      1.0  0.40940  0.67080  0.37620  1.0000 -0.1016956145
C   C378      1.0  0.37620  0.40940  0.67080  1.0000 -0.1016956145
C   C379      1.0  0.30465  0.58265  0.78125  1.0000 0.0200011839
C   C380      1.0  0.58265  0.78125  0.30465  1.0000 0.0200011839
C   C381      1.0  0.78125  0.30465  0.58265  1.0000 0.0200011839
C   C382      1.0  0.80465  0.28125  0.08265  1.0000 0.0200011839
C   C383      1.0  0.08265  0.80465  0.28125  1.0000 0.0200011839
C   C384      1.0  0.28125  0.08265  0.80465  1.0000 0.0200011839
C   C385      1.0  0.32869  0.70989  0.76179  1.0000 0.0200011839
C   C386      1.0  0.70989  0.76179  0.32869  1.0000 0.0200011839
C   C387      1.0  0.76179  0.32869  0.70989  1.0000 0.0200011839
C   C388      1.0  0.82869  0.26179  0.20989  1.0000 0.0200011839
C   C389      1.0  0.20989  0.82869  0.26179  1.0000 0.0200011839
C   C390      1.0  0.26179  0.20989  0.82869  1.0000 0.0200011839
C   C391      1.0  0.32876  0.67996  0.81136  1.0000 -0.1175293221
C   C392      1.0  0.67996  0.81136  0.32876  1.0000 -0.1175293221
C   C393      1.0  0.81136  0.32876  0.67996  1.0000 -0.1098171495
C   C394      1.0  0.82876  0.31136  0.17996  1.0000 -0.1098171495
C   C395      1.0  0.17996  0.82876  0.31136  1.0000 -0.1098171495
C   C396      1.0  0.31136  0.17996  0.82876  1.0000 -0.1098171495
C   C397      1.0  0.34935  0.76855  0.74895  1.0000 -0.1016956145
C   C398      1.0  0.76855  0.74895  0.34935  1.0000 -0.1016956145
C   C399      1.0  0.74895  0.34935  0.76855  1.0000 -0.1016956145
C   C400      1.0  0.84935  0.24895  0.26855  1.0000 -0.1016956145
C   C401      1.0  0.26855  0.84935  0.24895  1.0000 -0.1016956145
C   C402      1.0  0.24895  0.26855  0.84935  1.0000 -0.1016956145
C   C403      1.0  0.29774  0.71194  0.68344  1.0000 0.3624371887
C   C404      1.0  0.71194  0.68344  0.29774  1.0000 0.3624371887
C   C405      1.0  0.68344  0.29774  0.71194  1.0000 0.3624371887
C   C406      1.0  0.79774  0.18344  0.21194  1.0000 0.3624371887
C   C407      1.0  0.21194  0.79774  0.18344  1.0000 0.3624371887
C   C408      1.0  0.18344  0.21194  0.79774  1.0000 0.3624371887
C   C409      1.0  0.47406  0.83556  0.75406  1.0000 0.610079887
C   C410      1.0  0.83556  0.75406  0.47406  1.0000 0.610079887
C   C411      1.0  0.75406  0.47406  0.83556  1.0000 0.610079887
C   C412      1.0  0.97406  0.25406  0.33556  1.0000 0.610079887
C   C413      1.0  0.33556  0.97406  0.25406  1.0000 0.610079887
C   C414      1.0  0.25406  0.33556  0.97406  1.0000 0.610079887
C   C415      1.0  0.10769  0.87207  0.97898  1.0000 -0.1175293221
C   C416      1.0  0.87207  0.97898  0.10769  1.0000 -0.1175293221
C   C417      1.0  0.97898  0.10769  0.87207  1.0000 -0.1175293221
C   C418      1.0  0.60769  0.47898  0.37207  1.0000 -0.1175293221
C   C419      1.0  0.37207  0.60769  0.47898  1.0000 -0.1175293221
C   C420      1.0  0.47898  0.37207  0.60769  1.0000 -0.1098171495
C   C421      1.0  0.30314  0.63584  0.75264  1.0000 0.3658191112
C   C422      1.0  0.63584  0.75264  0.30314  1.0000 0.3658191112
C   C423      1.0  0.75264  0.30314  0.63584  1.0000 0.3624371887
C   C424      1.0  0.80314  0.25264  0.13584  1.0000 0.3658191112
C   C425      1.0  0.13584  0.80314  0.25264  1.0000 0.3624371887
C   C426      1.0  0.25264  0.13584  0.80314  1.0000 0.3658191112
C   C427      1.0  0.33892  0.75482  0.73012  1.0000 -0.1175293221
C   C428      1.0  0.75482  0.73012  0.33892  1.0000 -0.1175293221
C   C429      1.0  0.73012  0.33892  0.75482  1.0000 -0.1175293221
C   C430      1.0  0.83892  0.23012  0.25482  1.0000 -0.1175293221
C   C431      1.0  0.25482  0.83892  0.23012  1.0000 -0.1175293221
C   C432      1.0  0.23012  0.25482  0.83892  1.0000 -0.1175293221
C   C433      1.0  0.33897  0.69397  0.83037  1.0000 -0.1098171495
C   C434      1.0  0.69397  0.83037  0.33897  1.0000 -0.1098171495
C   C435      1.0  0.83037  0.33897  0.69397  1.0000 -0.1098171495
C   C436      1.0  0.83897  0.33037  0.19397  1.0000 -0.1098171495
C   C437      1.0  0.19397  0.83897  0.33037  1.0000 -0.1098171495
C   C438      1.0  0.33037  0.19397  0.83897  1.0000 -0.1098171495
C   C439      1.0  0.11810  0.93710  0.89130  1.0000 -0.1175293221
C   C440      1.0  0.93710  0.89130  0.11810  1.0000 -0.1175293221
C   C441      1.0  0.89130  0.11810  0.93710  1.0000 -0.1175293221
C   C442      1.0  0.61810  0.39130  0.43710  1.0000 -0.1175293221
C   C443      1.0  0.43710  0.61810  0.39130  1.0000 -0.1175293221
C   C444      1.0  0.39130  0.43710  0.61810  1.0000 -0.1175293221
C   C445      1.0  0.32666  0.54526  0.81706  1.0000 -0.1098171495
C   C446      1.0  0.54526  0.81706  0.32666  1.0000 -0.1098171495
C   C447      1.0  0.81706  0.32666  0.54526  1.0000 -0.1098171495
C   C448      1.0  0.82666  0.31706  0.04526  1.0000 -0.1098171495
C   C449      1.0  0.04526  0.82666  0.31706  1.0000 -0.1098171495
C   C450      1.0  0.31706  0.04526  0.82666  1.0000 -0.1098171495
C   C451      1.0  0.30428  0.78948  0.59828  1.0000 -0.1175293221
C   C452      1.0  0.78948  0.59828  0.30428  1.0000 -0.1175293221
C   C453      1.0  0.59828  0.30428  0.78948  1.0000 -0.1175293221
C   C454      1.0  0.80428  0.09828  0.28948  1.0000 -0.1175293221
C   C455      1.0  0.28948  0.80428  0.09828  1.0000 -0.1175293221
C   C456      1.0  0.09828  0.28948  0.80428  1.0000 -0.1175293221
C   C457      1.0  0.33292  0.49402  0.84002  1.0000 -0.1098171495
C   C458      1.0  0.49402  0.84002  0.33292  1.0000 -0.1098171495
C   C459      1.0  0.84002  0.33292  0.49402  1.0000 -0.1098171495
C   C460      1.0  0.83292  0.34002  0.99402  1.0000 -0.1098171495
C   C461      1.0  0.99402  0.83292  0.34002  1.0000 -0.1098171495
C   C462      1.0  0.34002  0.99402  0.83292  1.0000 -0.1098171495
C   C463      1.0  0.31516  0.69526  0.74366  1.0000 0.3624371887
C   C464      1.0  0.69526  0.74366  0.31516  1.0000 0.3624371887
C   C465      1.0  0.74366  0.31516  0.69526  1.0000 0.3624371887
C   C466      1.0  0.81516  0.24366  0.19526  1.0000 0.3624371887
C   C467      1.0  0.19526  0.81516  0.24366  1.0000 0.3624371887
C   C468      1.0  0.24366  0.19526  0.81516  1.0000 0.3624371887
C   C469      1.0  0.51877  0.84617  0.70537  1.0000 -0.0243531437
C   C470      1.0  0.84617  0.70537  0.51877  1.0000 -0.0243531437
C   C471      1.0  0.70537  0.51877  0.84617  1.0000 -0.0243531437
C   C472      1.0  0.01877  0.20537  0.34617  1.0000 -0.0243531437
C   C473      1.0  0.34617  0.01877  0.20537  1.0000 -0.0243531437
C   C474      1.0  0.20537  0.34617  0.01877  1.0000 -0.0243531437
C   C475      1.0  0.64294  0.89764  0.51344  1.0000 -0.0479798603
C   C476      1.0  0.89764  0.51344  0.64294  1.0000 -0.0479798603
C   C477      1.0  0.51344  0.64294  0.89764  1.0000 -0.0479798603
C   C478      1.0  0.14294  0.01344  0.39764  1.0000 -0.0479798603
C   C479      1.0  0.39764  0.14294  0.01344  1.0000 -0.0479798603
C   C480      1.0  0.01344  0.39764  0.14294  1.0000 -0.0479798603
C   C481      1.0  0.64447  0.88197  0.55737  1.0000 -0.1175293221
C   C482      1.0  0.88197  0.55737  0.64447  1.0000 -0.1175293221
C   C483      1.0  0.55737  0.64447  0.88197  1.0000 -0.1175293221
C   C484      1.0  0.14447  0.05737  0.38197  1.0000 -0.1175293221
C   C485      1.0  0.38197  0.14447  0.05737  1.0000 -0.1175293221
C   C486      1.0  0.05737  0.38197  0.14447  1.0000 -0.1175293221
C   C487      1.0  0.60136  0.86916  0.60786  1.0000 0.0518592357
C   C488      1.0  0.86916  0.60786  0.60136  1.0000 0.0518592357
C   C489      1.0  0.60786  0.60136  0.86916  1.0000 0.0518592357
C   C490      1.0  0.10136  0.10786  0.36916  1.0000 0.0518592357
C   C491      1.0  0.36916  0.10136  0.10786  1.0000 0.0518592357
C   C492      1.0  0.10786  0.36916  0.10136  1.0000 0.0518592357
C   C493      1.0  0.51589  0.86889  0.66009  1.0000 -0.1565364081
C   C494      1.0  0.86889  0.66009  0.51589  1.0000 -0.1565364081
C   C495      1.0  0.66009  0.51589  0.86889  1.0000 -0.1565364081
C   C496      1.0  0.01589  0.16009  0.36889  1.0000 -0.153980384
C   C497      1.0  0.36889  0.01589  0.16009  1.0000 -0.1565364081
C   C498      1.0  0.16009  0.36889  0.01589  1.0000 -0.153980384
C   C499      1.0  0.55980  0.87740  0.61190  1.0000 0.0518592357
C   C500      1.0  0.87740  0.61190  0.55980  1.0000 0.0518592357
C   C501      1.0  0.61190  0.55980  0.87740  1.0000 0.0518592357
C   C502      1.0  0.05980  0.11190  0.37740  1.0000 0.0518592357
C   C503      1.0  0.37740  0.05980  0.11190  1.0000 0.0518592357
C   C504      1.0  0.11190  0.37740  0.05980  1.0000 0.0518592357
C   C505      1.0  0.56186  0.83406  0.70196  1.0000 -0.1016956145
C   C506      1.0  0.83406  0.70196  0.56186  1.0000 -0.1016956145
C   C507      1.0  0.70196  0.56186  0.83406  1.0000 -0.1016956145
C   C508      1.0  0.06186  0.20196  0.33406  1.0000 -0.1016956145
C   C509      1.0  0.33406  0.06186  0.20196  1.0000 -0.1016956145
C   C510      1.0  0.20196  0.33406  0.06186  1.0000 -0.1016956145
C   C511      1.0  0.60258  0.84858  0.65098  1.0000 -0.153980384
C   C512      1.0  0.84858  0.65098  0.60258  1.0000 -0.1565364081
C   C513      1.0  0.65098  0.60258  0.84858  1.0000 -0.153980384
C   C514      1.0  0.10258  0.15098  0.34858  1.0000 -0.153980384
C   C515      1.0  0.34858  0.10258  0.15098  1.0000 -0.153980384
C   C516      1.0  0.15098  0.34858  0.10258  1.0000 -0.153980384
C   C517      1.0  0.60410  0.89730  0.51740  1.0000 -0.0932454229
C   C518      1.0  0.89730  0.51740  0.60410  1.0000 -0.0932454229
C   C519      1.0  0.51740  0.60410  0.89730  1.0000 -0.0932454229
C   C520      1.0  0.10410  0.01740  0.39730  1.0000 -0.0932454229
C   C521      1.0  0.39730  0.10410  0.01740  1.0000 -0.0932454229
C   C522      1.0  0.01740  0.39730  0.10410  1.0000 -0.0932454229
C   C523      1.0  0.56003  0.89233  0.56623  1.0000 -0.1883600698
C   C524      1.0  0.89233  0.56623  0.56003  1.0000 -0.1883600698
C   C525      1.0  0.56623  0.56003  0.89233  1.0000 -0.1883600698
C   C526      1.0  0.06003  0.06623  0.39233  1.0000 -0.1883600698
C   C527      1.0  0.39233  0.06003  0.06623  1.0000 -0.1883600698
C   C528      1.0  0.06623  0.39233  0.06003  1.0000 -0.1883600698
N   N1        1.0  0.49920  0.48681  0.56911  1.0000 -0.4107816998
N   N2        1.0  0.56911  0.49920  0.48681  1.0000 -0.4107816998
N   N3        1.0  0.48681  0.56911  0.49920  1.0000 -0.4107816998
N   N4        1.0  0.99920  0.06911  0.98681  1.0000 -0.4107816998
N   N5        1.0  0.06911  0.98681  0.99920  1.0000 -0.4107816998
N   N6        1.0  0.98681  0.99920  0.06911  1.0000 -0.4107816998
N   N7        1.0  0.20596  0.79001  0.83374  1.0000 -0.3995085168
N   N8        1.0  0.83374  0.20596  0.79001  1.0000 -0.3995085168
N   N9        1.0  0.79001  0.83374  0.20596  1.0000 -0.3995085168
N   N10       1.0  0.70596  0.33374  0.29001  1.0000 -0.3995085168
N   N11       1.0  0.33374  0.29001  0.70596  1.0000 -0.3995085168
N   N12       1.0  0.29001  0.70596  0.33374  1.0000 -0.3995085168
N   N13       1.0  0.19091  0.80121  0.77216  1.0000 -0.4178106466
N   N14       1.0  0.77216  0.19091  0.80121  1.0000 -0.4107816998
N   N15       1.0  0.80121  0.77216  0.19091  1.0000 -0.4178106466
N   N16       1.0  0.69091  0.27216  0.30121  1.0000 -0.4178106466
N   N17       1.0  0.27216  0.30121  0.69091  1.0000 -0.4178106466
N   N18       1.0  0.30121  0.69091  0.27216  1.0000 -0.4178106466
N   N19       1.0  0.18647  0.72794  0.85212  1.0000 -0.4178106466
N   N20       1.0  0.85212  0.18647  0.72794  1.0000 -0.4178106466
N   N21       1.0  0.72794  0.85212  0.18647  1.0000 -0.4178106466
N   N22       1.0  0.68647  0.35212  0.22794  1.0000 -0.4178106466
N   N23       1.0  0.35212  0.22794  0.68647  1.0000 -0.4178106466
N   N24       1.0  0.22794  0.68647  0.35212  1.0000 -0.4178106466
N   N25       1.0  0.00080  0.93089  0.01319  1.0000 -0.4107816998
N   N26       1.0  0.93089  0.01319  0.00080  1.0000 -0.4107816998
N   N27       1.0  0.01319  0.00080  0.93089  1.0000 -0.4107816998
N   N28       1.0  0.50080  0.51319  0.43089  1.0000 -0.4107816998
N   N29       1.0  0.43089  0.50080  0.51319  1.0000 -0.4107816998
N   N30       1.0  0.51319  0.43089  0.50080  1.0000 -0.4107816998
N   N31       1.0  0.29404  0.66626  0.70999  1.0000 -0.3995085168
N   N32       1.0  0.66626  0.70999  0.29404  1.0000 -0.3995085168
N   N33       1.0  0.70999  0.29404  0.66626  1.0000 -0.3995085168
N   N34       1.0  0.79404  0.20999  0.16626  1.0000 -0.3995085168
N   N35       1.0  0.16626  0.79404  0.20999  1.0000 -0.3995085168
N   N36       1.0  0.20999  0.16626  0.79404  1.0000 -0.3995085168
N   N37       1.0  0.30909  0.72784  0.69879  1.0000 -0.4178106466
N   N38       1.0  0.72784  0.69879  0.30909  1.0000 -0.4178106466
N   N39       1.0  0.69879  0.30909  0.72784  1.0000 -0.4178106466
N   N40       1.0  0.80909  0.19879  0.22784  1.0000 -0.4107816998
N   N41       1.0  0.22784  0.80909  0.19879  1.0000 -0.4178106466
N   N42       1.0  0.19879  0.22784  0.80909  1.0000 -0.4178106466
N   N43       1.0  0.31353  0.64788  0.77206  1.0000 -0.4178106466
N   N44       1.0  0.64788  0.77206  0.31353  1.0000 -0.4178106466
N   N45       1.0  0.77206  0.31353  0.64788  1.0000 -0.4178106466
N   N46       1.0  0.81353  0.27206  0.14788  1.0000 -0.4178106466
N   N47       1.0  0.14788  0.81353  0.27206  1.0000 -0.4178106466
N   N48       1.0  0.27206  0.14788  0.81353  1.0000 -0.4178106466
O   O1        1.0  0.12675  0.63432  0.69838  1.0000 -1.0806149973
O   O2        1.0  0.69838  0.12675  0.63432  1.0000 -1.0806149973
O   O3        1.0  0.63432  0.69838  0.12675  1.0000 -1.0806149973
O   O4        1.0  0.62675  0.19838  0.13432  1.0000 -1.0806149973
O   O5        1.0  0.19838  0.13432  0.62675  1.0000 -1.0806149973
O   O6        1.0  0.13432  0.62675  0.19838  1.0000 -1.0806149973
O   O7        1.0  0.22317  0.65423  0.64277  1.0000 -0.5921587505
O   O8        1.0  0.64277  0.22317  0.65423  1.0000 -0.5921587505
O   O9        1.0  0.65423  0.64277  0.22317  1.0000 -0.5921587505
O   O10       1.0  0.72317  0.14277  0.15423  1.0000 -0.5921587505
O   O11       1.0  0.14277  0.15423  0.72317  1.0000 -0.5921587505
O   O12       1.0  0.15423  0.72317  0.14277  1.0000 -0.5921587505
O   O13       1.0  0.24902  0.01697  0.66857  1.0000 -0.5921587505
O   O14       1.0  0.66857  0.24902  0.01697  1.0000 -0.5921587505
O   O15       1.0  0.01697  0.66857  0.24902  1.0000 -0.5921587505
O   O16       1.0  0.74902  0.16857  0.51697  1.0000 -0.5921587505
O   O17       1.0  0.16857  0.51697  0.74902  1.0000 -0.5921587505
O   O18       1.0  0.51697  0.74902  0.16857  1.0000 -0.5921587505
O   O19       1.0  0.12601  0.71334  0.70707  1.0000 -0.5971288565
O   O20       1.0  0.70707  0.12601  0.71334  1.0000 -0.5971288565
O   O21       1.0  0.71334  0.70707  0.12601  1.0000 -0.5971288565
O   O22       1.0  0.62601  0.20707  0.21334  1.0000 -0.5971288565
O   O23       1.0  0.20707  0.21334  0.62601  1.0000 -0.5971288565
O   O24       1.0  0.21334  0.62601  0.20707  1.0000 -0.5971288565
O   O25       1.0  0.14425  0.63477  0.77130  1.0000 -0.5683504704
O   O26       1.0  0.77130  0.14425  0.63477  1.0000 -0.5683504704
O   O27       1.0  0.63477  0.77130  0.14425  1.0000 -0.5683504704
O   O28       1.0  0.64425  0.27130  0.13477  1.0000 -0.5683504704
O   O29       1.0  0.27130  0.13477  0.64425  1.0000 -0.5683504704
O   O30       1.0  0.13477  0.64425  0.27130  1.0000 -0.5683504704
O   O31       1.0  0.19881  0.04659  0.63192  1.0000 -0.5683504704
O   O32       1.0  0.63192  0.19881  0.04659  1.0000 -0.5683504704
O   O33       1.0  0.04659  0.63192  0.19881  1.0000 -0.5683504704
O   O34       1.0  0.69881  0.13192  0.54659  1.0000 -0.5683504704
O   O35       1.0  0.13192  0.54659  0.69881  1.0000 -0.5683504704
O   O36       1.0  0.54659  0.69881  0.13192  1.0000 -0.5683504704
O   O37       1.0  0.15406  0.62002  0.10702  1.0000 -0.5774867543
O   O38       1.0  0.10702  0.15406  0.62002  1.0000 -0.5774867543
O   O39       1.0  0.62002  0.10702  0.15406  1.0000 -0.5774867543
O   O40       1.0  0.65406  0.60702  0.12002  1.0000 -0.5774867543
O   O41       1.0  0.60702  0.12002  0.65406  1.0000 -0.5774867543
O   O42       1.0  0.12002  0.65406  0.60702  1.0000 -0.5774867543
O   O43       1.0  0.77486  0.03562  0.60073  1.0000 -0.5510986729
O   O44       1.0  0.60073  0.77486  0.03562  1.0000 -0.5510986729
O   O45       1.0  0.03562  0.60073  0.77486  1.0000 -0.5510986729
O   O46       1.0  0.27486  0.10073  0.53562  1.0000 -0.5510986729
O   O47       1.0  0.10073  0.53562  0.27486  1.0000 -0.5510986729
O   O48       1.0  0.53562  0.27486  0.10073  1.0000 -0.5510986729
O   O49       1.0  0.19331  0.66534  0.08155  1.0000 -0.5683504704
O   O50       1.0  0.08155  0.19331  0.66534  1.0000 -0.5683504704
O   O51       1.0  0.66534  0.08155  0.19331  1.0000 -0.5683504704
O   O52       1.0  0.69331  0.58155  0.16534  1.0000 -0.5683504704
O   O53       1.0  0.58155  0.16534  0.69331  1.0000 -0.5683504704
O   O54       1.0  0.16534  0.69331  0.58155  1.0000 -0.5683504704
O   O55       1.0  0.02151  0.70520  0.68291  1.0000 -0.5632134511
O   O56       1.0  0.68291  0.02151  0.70520  1.0000 -0.5632134511
O   O57       1.0  0.70520  0.68291  0.02151  1.0000 -0.5632134511
O   O58       1.0  0.52151  0.18291  0.20520  1.0000 -0.5632134511
O   O59       1.0  0.18291  0.20520  0.52151  1.0000 -0.5632134511
O   O60       1.0  0.20520  0.52151  0.18291  1.0000 -0.5632134511
O   O61       1.0  0.23162  0.57325  0.70507  1.0000 -0.5683504704
O   O62       1.0  0.70507  0.23162  0.57325  1.0000 -0.5683504704
O   O63       1.0  0.57325  0.70507  0.23162  1.0000 -0.5683504704
O   O64       1.0  0.73162  0.20507  0.07325  1.0000 -0.5683504704
O   O65       1.0  0.20507  0.07325  0.73162  1.0000 -0.5683504704
O   O66       1.0  0.07325  0.73162  0.20507  1.0000 -0.5683504704
O   O67       1.0  0.81555  0.07447  0.58428  1.0000 -0.5683504704
O   O68       1.0  0.58428  0.81555  0.07447  1.0000 -0.5683504704
O   O69       1.0  0.07447  0.58428  0.81555  1.0000 -0.5683504704
O   O70       1.0  0.31555  0.08428  0.57447  1.0000 -0.5683504704
O   O71       1.0  0.08428  0.57447  0.31555  1.0000 -0.5683504704
O   O72       1.0  0.57447  0.31555  0.08428  1.0000 -0.5683504704
O   O73       1.0  0.06470  0.74956  0.65278  1.0000 -0.5774867543
O   O74       1.0  0.65278  0.06470  0.74956  1.0000 -0.5774867543
O   O75       1.0  0.74956  0.65278  0.06470  1.0000 -0.5774867543
O   O76       1.0  0.56470  0.15278  0.24956  1.0000 -0.5774867543
O   O77       1.0  0.15278  0.24956  0.56470  1.0000 -0.5774867543
O   O78       1.0  0.24956  0.56470  0.15278  1.0000 -0.5774867543
O   O79       1.0  0.37325  0.80162  0.86568  1.0000 -1.0806149973
O   O80       1.0  0.80162  0.86568  0.37325  1.0000 -1.0806149973
O   O81       1.0  0.86568  0.37325  0.80162  1.0000 -1.0806149973
O   O82       1.0  0.87325  0.36568  0.30162  1.0000 -1.0806149973
O   O83       1.0  0.30162  0.87325  0.36568  1.0000 -1.0806149973
O   O84       1.0  0.36568  0.30162  0.87325  1.0000 -1.0806149973
O   O85       1.0  0.27683  0.85723  0.84577  1.0000 -0.5921587505
O   O86       1.0  0.85723  0.84577  0.27683  1.0000 -0.5921587505
O   O87       1.0  0.84577  0.27683  0.85723  1.0000 -0.5921587505
O   O88       1.0  0.77683  0.34577  0.35723  1.0000 -0.5921587505
O   O89       1.0  0.35723  0.77683  0.34577  1.0000 -0.5921587505
O   O90       1.0  0.34577  0.35723  0.77683  1.0000 -0.5921587505
O   O91       1.0  0.25098  0.83143  0.48303  1.0000 -0.5921587505
O   O92       1.0  0.83143  0.48303  0.25098  1.0000 -0.5921587505
O   O93       1.0  0.48303  0.25098  0.83143  1.0000 -0.5921587505
O   O94       1.0  0.75098  0.98303  0.33143  1.0000 -0.5921587505
O   O95       1.0  0.33143  0.75098  0.98303  1.0000 -0.5921587505
O   O96       1.0  0.98303  0.33143  0.75098  1.0000 -0.5921587505
O   O97       1.0  0.37399  0.79293  0.78666  1.0000 -0.5971288565
O   O98       1.0  0.79293  0.78666  0.37399  1.0000 -0.5971288565
O   O99       1.0  0.78666  0.37399  0.79293  1.0000 -0.5971288565
O   O100      1.0  0.87399  0.28666  0.29293  1.0000 -0.5971288565
O   O101      1.0  0.29293  0.87399  0.28666  1.0000 -0.5971288565
O   O102      1.0  0.28666  0.29293  0.87399  1.0000 -0.5971288565
O   O103      1.0  0.35575  0.72870  0.86523  1.0000 -0.5683504704
O   O104      1.0  0.72870  0.86523  0.35575  1.0000 -0.5683504704
O   O105      1.0  0.86523  0.35575  0.72870  1.0000 -0.5683504704
O   O106      1.0  0.85575  0.36523  0.22870  1.0000 -0.5683504704
O   O107      1.0  0.22870  0.85575  0.36523  1.0000 -0.5683504704
O   O108      1.0  0.36523  0.22870  0.85575  1.0000 -0.5683504704
O   O109      1.0  0.30119  0.86808  0.45341  1.0000 -0.5683504704
O   O110      1.0  0.86808  0.45341  0.30119  1.0000 -0.5683504704
O   O111      1.0  0.45341  0.30119  0.86808  1.0000 -0.5683504704
O   O112      1.0  0.80119  0.95341  0.36808  1.0000 -0.5683504704
O   O113      1.0  0.36808  0.80119  0.95341  1.0000 -0.5683504704
O   O114      1.0  0.95341  0.36808  0.80119  1.0000 -0.5683504704
O   O115      1.0  0.34594  0.39298  0.87998  1.0000 -0.5774867543
O   O116      1.0  0.39298  0.87998  0.34594  1.0000 -0.5774867543
O   O117      1.0  0.87998  0.34594  0.39298  1.0000 -0.5774867543
O   O118      1.0  0.84594  0.37998  0.89298  1.0000 -0.5774867543
O   O119      1.0  0.89298  0.84594  0.37998  1.0000 -0.5774867543
O   O120      1.0  0.37998  0.89298  0.84594  1.0000 -0.5774867543
O   O121      1.0  0.72514  0.89927  0.46438  1.0000 -0.5510986729
O   O122      1.0  0.89927  0.46438  0.72514  1.0000 -0.5510986729
O   O123      1.0  0.46438  0.72514  0.89927  1.0000 -0.5510986729
O   O124      1.0  0.22514  0.96438  0.39927  1.0000 -0.5510986729
O   O125      1.0  0.39927  0.22514  0.96438  1.0000 -0.5510986729
O   O126      1.0  0.96438  0.39927  0.22514  1.0000 -0.5510986729
O   O127      1.0  0.30669  0.41845  0.83466  1.0000 -0.5683504704
O   O128      1.0  0.41845  0.83466  0.30669  1.0000 -0.5683504704
O   O129      1.0  0.83466  0.30669  0.41845  1.0000 -0.5683504704
O   O130      1.0  0.80669  0.33466  0.91845  1.0000 -0.5683504704
O   O131      1.0  0.91845  0.80669  0.33466  1.0000 -0.5683504704
O   O132      1.0  0.33466  0.91845  0.80669  1.0000 -0.5683504704
O   O133      1.0  0.47849  0.81709  0.79480  1.0000 -0.5632134511
O   O134      1.0  0.81709  0.79480  0.47849  1.0000 -0.5632134511
O   O135      1.0  0.79480  0.47849  0.81709  1.0000 -0.5632134511
O   O136      1.0  0.97849  0.29480  0.31709  1.0000 -0.5632134511
O   O137      1.0  0.31709  0.97849  0.29480  1.0000 -0.5632134511
O   O138      1.0  0.29480  0.31709  0.97849  1.0000 -0.5632134511
O   O139      1.0  0.26838  0.79493  0.92675  1.0000 -0.5683504704
O   O140      1.0  0.79493  0.92675  0.26838  1.0000 -0.5683504704
O   O141      1.0  0.92675  0.26838  0.79493  1.0000 -0.5683504704
O   O142      1.0  0.76838  0.42675  0.29493  1.0000 -0.5683504704
O   O143      1.0  0.29493  0.76838  0.42675  1.0000 -0.5683504704
O   O144      1.0  0.42675  0.29493  0.76838  1.0000 -0.5683504704
O   O145      1.0  0.68445  0.91572  0.42553  1.0000 -0.5683504704
O   O146      1.0  0.91572  0.42553  0.68445  1.0000 -0.5683504704
O   O147      1.0  0.42553  0.68445  0.91572  1.0000 -0.5683504704
O   O148      1.0  0.18445  0.92553  0.41572  1.0000 -0.5683504704
O   O149      1.0  0.41572  0.18445  0.92553  1.0000 -0.5683504704
O   O150      1.0  0.92553  0.41572  0.18445  1.0000 -0.5683504704
O   O151      1.0  0.43530  0.84722  0.75044  1.0000 -0.5774867543
O   O152      1.0  0.84722  0.75044  0.43530  1.0000 -0.5774867543
O   O153      1.0  0.75044  0.43530  0.84722  1.0000 -0.5774867543
O   O154      1.0  0.93530  0.25044  0.34722  1.0000 -0.5774867543
O   O155      1.0  0.34722  0.93530  0.25044  1.0000 -0.5774867543
O   O156      1.0  0.25044  0.34722  0.93530  1.0000 -0.5774867543
