# DDEC6 charges by PACMAN v1.1 (https://github.com/mtap-research/PACMAN-charge/)
data_2023[Cu][nan]3[ASR]9
_chemical_formula_sum              "Cu12 H108 C210 N12 O54"
_cell_length_a       24.1944
_cell_length_b       24.1944
_cell_length_c       24.1944
_cell_angle_alpha    101.188
_cell_angle_beta     101.188
_cell_angle_gamma    101.188

_symmetry_space_group_name_H-M    "P 1"
_symmetry_Int_Tables_number       1

loop_
  _symmetry_equiv_pos_as_xyz
  'x, y, z'

loop_
  _atom_site_type_symbol
  _atom_site_label
  _atom_site_symmetry_multiplicity
  _atom_site_fract_x
  _atom_site_fract_y
  _atom_site_fract_z
  _atom_site_occupancy
  _atom_site_charge
Cu  Cu1       1.0  0.05609  0.79662  0.64301  1.0000 0.8610528935
Cu  Cu2       1.0  0.79662  0.64301  0.05609  1.0000 0.8610528935
Cu  Cu3       1.0  0.64301  0.05609  0.79662  1.0000 0.8610528935
Cu  Cu4       1.0  0.94391  0.20338  0.35699  1.0000 0.8610528935
Cu  Cu5       1.0  0.20338  0.35699  0.94391  1.0000 0.8610528935
Cu  Cu6       1.0  0.35699  0.94391  0.20338  1.0000 0.8610528935
Cu  Cu7       1.0  0.04109  0.85274  0.74121  1.0000 0.8520075807
Cu  Cu8       1.0  0.85274  0.74121  0.04109  1.0000 0.8520075807
Cu  Cu9       1.0  0.74121  0.04109  0.85274  1.0000 0.8520075807
Cu  Cu10      1.0  0.95891  0.14726  0.25879  1.0000 0.8520075807
Cu  Cu11      1.0  0.14726  0.25879  0.95891  1.0000 0.8520075807
Cu  Cu12      1.0  0.25879  0.95891  0.14726  1.0000 0.8520075807
H   H1        1.0  0.47715  0.63565  0.81413  1.0000 0.1294270302
H   H2        1.0  0.63565  0.81413  0.47715  1.0000 0.1225622107
H   H3        1.0  0.81413  0.47715  0.63565  1.0000 0.1294270302
H   H4        1.0  0.52285  0.36435  0.18587  1.0000 0.1225622107
H   H5        1.0  0.36435  0.18587  0.52285  1.0000 0.1225622107
H   H6        1.0  0.18587  0.52285  0.36435  1.0000 0.1225622107
H   H7        1.0  0.43550  0.77845  0.89713  1.0000 0.1294270302
H   H8        1.0  0.77845  0.89713  0.43550  1.0000 0.1294270302
H   H9        1.0  0.89713  0.43550  0.77845  1.0000 0.1294270302
H   H10       1.0  0.56450  0.22155  0.10287  1.0000 0.1294270302
H   H11       1.0  0.22155  0.10287  0.56450  1.0000 0.1294270302
H   H12       1.0  0.10287  0.56450  0.22155  1.0000 0.1294270302
H   H13       1.0  0.30977  0.63147  0.82027  1.0000 0.1409078269
H   H14       1.0  0.63147  0.82027  0.30977  1.0000 0.1409078269
H   H15       1.0  0.82027  0.30977  0.63147  1.0000 0.1409078269
H   H16       1.0  0.69023  0.36853  0.17973  1.0000 0.1486690433
H   H17       1.0  0.36853  0.17973  0.69023  1.0000 0.1409078269
H   H18       1.0  0.17973  0.69023  0.36853  1.0000 0.1409078269
H   H19       1.0  0.43242  0.55217  0.74087  1.0000 0.1102243945
H   H20       1.0  0.55217  0.74087  0.43242  1.0000 0.1102243945
H   H21       1.0  0.74087  0.43242  0.55217  1.0000 0.1102243945
H   H22       1.0  0.56758  0.44783  0.25913  1.0000 0.1102243945
H   H23       1.0  0.44783  0.25913  0.56758  1.0000 0.1102243945
H   H24       1.0  0.25913  0.56758  0.44783  1.0000 0.1102243945
H   H25       1.0  0.44273  0.54100  0.80473  1.0000 0.1102243945
H   H26       1.0  0.54100  0.80473  0.44273  1.0000 0.1102243945
H   H27       1.0  0.80473  0.44273  0.54100  1.0000 0.1102243945
H   H28       1.0  0.55727  0.45900  0.19527  1.0000 0.1102243945
H   H29       1.0  0.45900  0.19527  0.55727  1.0000 0.1102243945
H   H30       1.0  0.19527  0.55727  0.45900  1.0000 0.1102243945
H   H31       1.0  0.39438  0.49559  0.75251  1.0000 0.1225622107
H   H32       1.0  0.49559  0.75251  0.39438  1.0000 0.1225622107
H   H33       1.0  0.75251  0.39438  0.49559  1.0000 0.1225622107
H   H34       1.0  0.60562  0.50441  0.24749  1.0000 0.1225622107
H   H35       1.0  0.50441  0.24749  0.60562  1.0000 0.1225622107
H   H36       1.0  0.24749  0.60562  0.50441  1.0000 0.1225622107
H   H37       1.0  0.53658  0.64497  0.91223  1.0000 0.1294270302
H   H38       1.0  0.64497  0.91223  0.53658  1.0000 0.1294270302
H   H39       1.0  0.91223  0.53658  0.64497  1.0000 0.1294270302
H   H40       1.0  0.46342  0.35503  0.08777  1.0000 0.1294270302
H   H41       1.0  0.35503  0.08777  0.46342  1.0000 0.1294270302
H   H42       1.0  0.08777  0.46342  0.35503  1.0000 0.1294270302
H   H43       1.0  0.62583  0.63373  0.95879  1.0000 0.1294270302
H   H44       1.0  0.63373  0.95879  0.62583  1.0000 0.1294270302
H   H45       1.0  0.95879  0.62583  0.63373  1.0000 0.1294270302
H   H46       1.0  0.37417  0.36627  0.04121  1.0000 0.1294270302
H   H47       1.0  0.36627  0.04121  0.37417  1.0000 0.1294270302
H   H48       1.0  0.04121  0.37417  0.36627  1.0000 0.1294270302
H   H49       1.0  0.70860  0.79060  0.94270  1.0000 0.1409078269
H   H50       1.0  0.79060  0.94270  0.70860  1.0000 0.1409078269
H   H51       1.0  0.94270  0.70860  0.79060  1.0000 0.1409078269
H   H52       1.0  0.29140  0.20940  0.05730  1.0000 0.1409078269
H   H53       1.0  0.20940  0.05730  0.29140  1.0000 0.1409078269
H   H54       1.0  0.05730  0.29140  0.20940  1.0000 0.1409078269
H   H55       1.0  0.67557  0.88066  0.89574  1.0000 0.1409078269
H   H56       1.0  0.88066  0.89574  0.67557  1.0000 0.1409078269
H   H57       1.0  0.89574  0.67557  0.88066  1.0000 0.1409078269
H   H58       1.0  0.32443  0.11934  0.10426  1.0000 0.1409078269
H   H59       1.0  0.11934  0.10426  0.32443  1.0000 0.1409078269
H   H60       1.0  0.10426  0.32443  0.11934  1.0000 0.1409078269
H   H61       1.0  0.52461  0.90900  0.81434  1.0000 0.1294270302
H   H62       1.0  0.90900  0.81434  0.52461  1.0000 0.1294270302
H   H63       1.0  0.81434  0.52461  0.90900  1.0000 0.1294270302
H   H64       1.0  0.47539  0.09100  0.18566  1.0000 0.1294270302
H   H65       1.0  0.09100  0.18566  0.47539  1.0000 0.1294270302
H   H66       1.0  0.18566  0.47539  0.09100  1.0000 0.1294270302
H   H67       1.0  0.47223  0.82179  0.82503  1.0000 0.1294270302
H   H68       1.0  0.82179  0.82503  0.47223  1.0000 0.1294270302
H   H69       1.0  0.82503  0.47223  0.82179  1.0000 0.1294270302
H   H70       1.0  0.52777  0.17821  0.17497  1.0000 0.1294270302
H   H71       1.0  0.17821  0.17497  0.52777  1.0000 0.1294270302
H   H72       1.0  0.17497  0.52777  0.17821  1.0000 0.1294270302
H   H73       1.0  0.39968  0.75899  0.98507  1.0000 0.1294270302
H   H74       1.0  0.75899  0.98507  0.39968  1.0000 0.1294270302
H   H75       1.0  0.98507  0.39968  0.75899  1.0000 0.1294270302
H   H76       1.0  0.60032  0.24101  0.01493  1.0000 0.1294270302
H   H77       1.0  0.24101  0.01493  0.60032  1.0000 0.1294270302
H   H78       1.0  0.01493  0.60032  0.24101  1.0000 0.1294270302
H   H79       1.0  0.39050  0.82041  0.06817  1.0000 0.1294270302
H   H80       1.0  0.82041  0.06817  0.39050  1.0000 0.1294270302
H   H81       1.0  0.06817  0.39050  0.82041  1.0000 0.1294270302
H   H82       1.0  0.60950  0.17959  0.93183  1.0000 0.1294270302
H   H83       1.0  0.17959  0.93183  0.60950  1.0000 0.1294270302
H   H84       1.0  0.93183  0.60950  0.17959  1.0000 0.1294270302
H   H85       1.0  0.24927  0.85824  0.97607  1.0000 0.1409078269
H   H86       1.0  0.85824  0.97607  0.24927  1.0000 0.1409078269
H   H87       1.0  0.97607  0.24927  0.85824  1.0000 0.1409078269
H   H88       1.0  0.75073  0.14176  0.02393  1.0000 0.1409078269
H   H89       1.0  0.14176  0.02393  0.75073  1.0000 0.1409078269
H   H90       1.0  0.02393  0.75073  0.14176  1.0000 0.1409078269
H   H91       1.0  0.18581  0.82773  0.85936  1.0000 0.1486690433
H   H92       1.0  0.82773  0.85936  0.18581  1.0000 0.1486690433
H   H93       1.0  0.85936  0.18581  0.82773  1.0000 0.1486690433
H   H94       1.0  0.81419  0.17227  0.14064  1.0000 0.1486690433
H   H95       1.0  0.17227  0.14064  0.81419  1.0000 0.1486690433
H   H96       1.0  0.14064  0.81419  0.17227  1.0000 0.1486690433
H   H97       1.0  0.19933  0.72889  0.71011  1.0000 0.1294270302
H   H98       1.0  0.72889  0.71011  0.19933  1.0000 0.1294270302
H   H99       1.0  0.71011  0.19933  0.72889  1.0000 0.1294270302
H   H100      1.0  0.80067  0.27111  0.28989  1.0000 0.1294270302
H   H101      1.0  0.27111  0.28989  0.80067  1.0000 0.1294270302
H   H102      1.0  0.28989  0.80067  0.27111  1.0000 0.1294270302
H   H103      1.0  0.27613  0.69907  0.75800  1.0000 0.1409078269
H   H104      1.0  0.69907  0.75800  0.27613  1.0000 0.1409078269
H   H105      1.0  0.75800  0.27613  0.69907  1.0000 0.1409078269
H   H106      1.0  0.72387  0.30093  0.24200  1.0000 0.1409078269
H   H107      1.0  0.30093  0.24200  0.72387  1.0000 0.1409078269
H   H108      1.0  0.24200  0.72387  0.30093  1.0000 0.1409078269
C   C1        1.0  0.39098  0.62519  0.81234  1.0000 0.2774917016
C   C2        1.0  0.62519  0.81234  0.39098  1.0000 0.2774917016
C   C3        1.0  0.81234  0.39098  0.62519  1.0000 0.2774917016
C   C4        1.0  0.60902  0.37481  0.18766  1.0000 0.2774917016
C   C5        1.0  0.37481  0.18766  0.60902  1.0000 0.2774917016
C   C6        1.0  0.18766  0.60902  0.37481  1.0000 0.2774917016
C   C7        1.0  0.44883  0.65435  0.82598  1.0000 -0.3070495398
C   C8        1.0  0.65435  0.82598  0.44883  1.0000 -0.3070495398
C   C9        1.0  0.82598  0.44883  0.65435  1.0000 -0.3070495398
C   C10       1.0  0.55117  0.34565  0.17402  1.0000 -0.3070495398
C   C11       1.0  0.34565  0.17402  0.55117  1.0000 -0.3070495398
C   C12       1.0  0.17402  0.55117  0.34565  1.0000 -0.3070495398
C   C13       1.0  0.46419  0.71134  0.85728  1.0000 0.1566499713
C   C14       1.0  0.71134  0.85728  0.46419  1.0000 0.1566499713
C   C15       1.0  0.85728  0.46419  0.71134  1.0000 0.1566499713
C   C16       1.0  0.53581  0.28866  0.14272  1.0000 0.1566499713
C   C17       1.0  0.28866  0.14272  0.53581  1.0000 0.1566499713
C   C18       1.0  0.14272  0.53581  0.28866  1.0000 0.1566499713
C   C19       1.0  0.42387  0.73933  0.87507  1.0000 -0.2705004484
C   C20       1.0  0.73933  0.87507  0.42387  1.0000 -0.2705004484
C   C21       1.0  0.87507  0.42387  0.73933  1.0000 -0.2705004484
C   C22       1.0  0.57613  0.26067  0.12493  1.0000 -0.2705004484
C   C23       1.0  0.26067  0.12493  0.57613  1.0000 -0.2705004484
C   C24       1.0  0.12493  0.57613  0.26067  1.0000 -0.2705004484
C   C25       1.0  0.36739  0.71005  0.86051  1.0000 0.1486690433
C   C26       1.0  0.71005  0.86051  0.36739  1.0000 0.1486690433
C   C27       1.0  0.86051  0.36739  0.71005  1.0000 0.1486690433
C   C28       1.0  0.63261  0.28995  0.13949  1.0000 0.1566499713
C   C29       1.0  0.28995  0.13949  0.63261  1.0000 0.1486690433
C   C30       1.0  0.13949  0.63261  0.28995  1.0000 0.1486690433
C   C31       1.0  0.34936  0.65192  0.82939  1.0000 -0.3188401929
C   C32       1.0  0.65192  0.82939  0.34936  1.0000 -0.3188401929
C   C33       1.0  0.82939  0.34936  0.65192  1.0000 -0.3188401929
C   C34       1.0  0.65064  0.34808  0.17061  1.0000 -0.3188401929
C   C35       1.0  0.34808  0.17061  0.65064  1.0000 -0.3188401929
C   C36       1.0  0.17061  0.65064  0.34808  1.0000 -0.3188401929
C   C37       1.0  0.41350  0.53670  0.76890  1.0000 -0.2411098809
C   C38       1.0  0.53670  0.76890  0.41350  1.0000 -0.2341344924
C   C39       1.0  0.76890  0.41350  0.53670  1.0000 -0.2411098809
C   C40       1.0  0.58650  0.46330  0.23110  1.0000 -0.2411098809
C   C41       1.0  0.46330  0.23110  0.58650  1.0000 -0.2411098809
C   C42       1.0  0.23110  0.58650  0.46330  1.0000 -0.2411098809
C   C43       1.0  0.57122  0.72487  0.89929  1.0000 0.1294270302
C   C44       1.0  0.72487  0.89929  0.57122  1.0000 0.1294270302
C   C45       1.0  0.89929  0.57122  0.72487  1.0000 0.1294270302
C   C46       1.0  0.42878  0.27513  0.10071  1.0000 0.1225622107
C   C47       1.0  0.27513  0.10071  0.42878  1.0000 0.1225622107
C   C48       1.0  0.10071  0.42878  0.27513  1.0000 0.1225622107
C   C49       1.0  0.57126  0.67397  0.91817  1.0000 -0.2037826598
C   C50       1.0  0.67397  0.91817  0.57126  1.0000 -0.2096048127
C   C51       1.0  0.91817  0.57126  0.67397  1.0000 -0.2096048127
C   C52       1.0  0.42874  0.32603  0.08183  1.0000 -0.2037826598
C   C53       1.0  0.32603  0.08183  0.42874  1.0000 -0.2096048127
C   C54       1.0  0.08183  0.42874  0.32603  1.0000 -0.2096048127
C   C55       1.0  0.62417  0.66814  0.94582  1.0000 -0.0826541341
C   C56       1.0  0.66814  0.94582  0.62417  1.0000 -0.0826541341
C   C57       1.0  0.94582  0.62417  0.66814  1.0000 -0.0826541341
C   C58       1.0  0.37583  0.33186  0.05418  1.0000 -0.0826541341
C   C59       1.0  0.33186  0.05418  0.37583  1.0000 -0.0826541341
C   C60       1.0  0.05418  0.37583  0.33186  1.0000 -0.0826541341
C   C61       1.0  0.67638  0.71088  0.95593  1.0000 -0.0389193981
C   C62       1.0  0.71088  0.95593  0.67638  1.0000 -0.0389193981
C   C63       1.0  0.95593  0.67638  0.71088  1.0000 -0.0389193981
C   C64       1.0  0.32362  0.28912  0.04407  1.0000 -0.0389193981
C   C65       1.0  0.28912  0.04407  0.32362  1.0000 -0.0389193981
C   C66       1.0  0.04407  0.32362  0.28912  1.0000 -0.0389193981
C   C67       1.0  0.67418  0.76121  0.93660  1.0000 -0.1221109066
C   C68       1.0  0.76121  0.93660  0.67418  1.0000 -0.1221109066
C   C69       1.0  0.93660  0.67418  0.76121  1.0000 -0.1221109066
C   C70       1.0  0.32582  0.23879  0.06340  1.0000 -0.1221109066
C   C71       1.0  0.23879  0.06340  0.32582  1.0000 -0.1221109066
C   C72       1.0  0.06340  0.32582  0.23879  1.0000 -0.1221109066
C   C73       1.0  0.62137  0.76785  0.90846  1.0000 -0.0120223224
C   C74       1.0  0.76785  0.90846  0.62137  1.0000 -0.0120223224
C   C75       1.0  0.90846  0.62137  0.76785  1.0000 -0.0120223224
C   C76       1.0  0.37863  0.23215  0.09154  1.0000 -0.0120223224
C   C77       1.0  0.23215  0.09154  0.37863  1.0000 -0.0120223224
C   C78       1.0  0.09154  0.37863  0.23215  1.0000 -0.0120223224
C   C79       1.0  0.60377  0.81513  0.88475  1.0000 -0.016395461
C   C80       1.0  0.81513  0.88475  0.60377  1.0000 -0.016395461
C   C81       1.0  0.88475  0.60377  0.81513  1.0000 -0.016395461
C   C82       1.0  0.39623  0.18487  0.11525  1.0000 -0.016395461
C   C83       1.0  0.18487  0.11525  0.39623  1.0000 -0.016395461
C   C84       1.0  0.11525  0.39623  0.18487  1.0000 -0.016395461
C   C85       1.0  0.63470  0.86855  0.88068  1.0000 -0.1117913614
C   C86       1.0  0.86855  0.88068  0.63470  1.0000 -0.1117913614
C   C87       1.0  0.88068  0.63470  0.86855  1.0000 -0.1117913614
C   C88       1.0  0.36530  0.13145  0.11932  1.0000 -0.1117913614
C   C89       1.0  0.13145  0.11932  0.36530  1.0000 -0.1117913614
C   C90       1.0  0.11932  0.36530  0.13145  1.0000 -0.1117913614
C   C91       1.0  0.60505  0.90357  0.85446  1.0000 -0.0389193981
C   C92       1.0  0.90357  0.85446  0.60505  1.0000 -0.0389193981
C   C93       1.0  0.85446  0.60505  0.90357  1.0000 -0.0389193981
C   C94       1.0  0.39495  0.09643  0.14554  1.0000 -0.0389193981
C   C95       1.0  0.09643  0.14554  0.39495  1.0000 -0.0389193981
C   C96       1.0  0.14554  0.39495  0.09643  1.0000 -0.0389193981
C   C97       1.0  0.54459  0.88497  0.83302  1.0000 -0.0686228004
C   C98       1.0  0.88497  0.83302  0.54459  1.0000 -0.0686228004
C   C99       1.0  0.83302  0.54459  0.88497  1.0000 -0.0686228004
C   C100      1.0  0.45541  0.11503  0.16698  1.0000 -0.0686228004
C   C101      1.0  0.11503  0.16698  0.45541  1.0000 -0.0686228004
C   C102      1.0  0.16698  0.45541  0.11503  1.0000 -0.0686228004
C   C103      1.0  0.51332  0.83311  0.83815  1.0000 -0.2096048127
C   C104      1.0  0.83311  0.83815  0.51332  1.0000 -0.2096048127
C   C105      1.0  0.83815  0.51332  0.83311  1.0000 -0.2096048127
C   C106      1.0  0.48668  0.16689  0.16185  1.0000 -0.2096048127
C   C107      1.0  0.16689  0.16185  0.48668  1.0000 -0.2096048127
C   C108      1.0  0.16185  0.48668  0.16689  1.0000 -0.2096048127
C   C109      1.0  0.54437  0.79800  0.86333  1.0000 0.1294270302
C   C110      1.0  0.79800  0.86333  0.54437  1.0000 0.1294270302
C   C111      1.0  0.86333  0.54437  0.79800  1.0000 0.1294270302
C   C112      1.0  0.45563  0.20200  0.13667  1.0000 0.1294270302
C   C113      1.0  0.20200  0.13667  0.45563  1.0000 0.1294270302
C   C114      1.0  0.13667  0.45563  0.20200  1.0000 0.1294270302
C   C115      1.0  0.73202  0.70297  0.98737  1.0000 0.577094138
C   C116      1.0  0.70297  0.98737  0.73202  1.0000 0.577094138
C   C117      1.0  0.98737  0.73202  0.70297  1.0000 0.577094138
C   C118      1.0  0.26798  0.29703  0.01263  1.0000 0.577094138
C   C119      1.0  0.29703  0.01263  0.26798  1.0000 0.577094138
C   C120      1.0  0.01263  0.26798  0.29703  1.0000 0.577094138
C   C121      1.0  0.63675  0.95883  0.84646  1.0000 0.577094138
C   C122      1.0  0.95883  0.84646  0.63675  1.0000 0.577094138
C   C123      1.0  0.84646  0.63675  0.95883  1.0000 0.577094138
C   C124      1.0  0.36325  0.04117  0.15354  1.0000 0.577094138
C   C125      1.0  0.04117  0.15354  0.36325  1.0000 0.577094138
C   C126      1.0  0.15354  0.36325  0.04117  1.0000 0.577094138
C   C127      1.0  0.32884  0.77248  0.93191  1.0000 0.1294270302
C   C128      1.0  0.77248  0.93191  0.32884  1.0000 0.1294270302
C   C129      1.0  0.93191  0.32884  0.77248  1.0000 0.1294270302
C   C130      1.0  0.67116  0.22752  0.06809  1.0000 0.1294270302
C   C131      1.0  0.22752  0.06809  0.67116  1.0000 0.1294270302
C   C132      1.0  0.06809  0.67116  0.22752  1.0000 0.1294270302
C   C133      1.0  0.36943  0.77890  0.98351  1.0000 -0.2096048127
C   C134      1.0  0.77890  0.98351  0.36943  1.0000 -0.2096048127
C   C135      1.0  0.98351  0.36943  0.77890  1.0000 -0.2096048127
C   C136      1.0  0.63057  0.22110  0.01649  1.0000 -0.2096048127
C   C137      1.0  0.22110  0.01649  0.63057  1.0000 -0.2096048127
C   C138      1.0  0.01649  0.63057  0.22110  1.0000 -0.2096048127
C   C139      1.0  0.36369  0.81545  0.03220  1.0000 -0.0686228004
C   C140      1.0  0.81545  0.03220  0.36369  1.0000 -0.0686228004
C   C141      1.0  0.03220  0.36369  0.81545  1.0000 -0.0686228004
C   C142      1.0  0.63631  0.18455  0.96780  1.0000 -0.0686228004
C   C143      1.0  0.18455  0.96780  0.63631  1.0000 -0.0686228004
C   C144      1.0  0.96780  0.63631  0.18455  1.0000 -0.0686228004
C   C145      1.0  0.31917  0.84592  0.03050  1.0000 -0.0491993641
C   C146      1.0  0.84592  0.03050  0.31917  1.0000 -0.0491993641
C   C147      1.0  0.03050  0.31917  0.84592  1.0000 -0.0491993641
C   C148      1.0  0.68083  0.15408  0.96950  1.0000 -0.0491993641
C   C149      1.0  0.15408  0.96950  0.68083  1.0000 -0.0491993641
C   C150      1.0  0.96950  0.68083  0.15408  1.0000 -0.0491993641
C   C151      1.0  0.27952  0.83832  0.97797  1.0000 -0.1117913614
C   C152      1.0  0.83832  0.97797  0.27952  1.0000 -0.1117913614
C   C153      1.0  0.97797  0.27952  0.83832  1.0000 -0.1117913614
C   C154      1.0  0.72048  0.16168  0.02203  1.0000 -0.1117913614
C   C155      1.0  0.16168  0.02203  0.72048  1.0000 -0.1117913614
C   C156      1.0  0.02203  0.72048  0.16168  1.0000 -0.1117913614
C   C157      1.0  0.28426  0.80237  0.92953  1.0000 -0.0120223224
C   C158      1.0  0.80237  0.92953  0.28426  1.0000 -0.0120223224
C   C159      1.0  0.92953  0.28426  0.80237  1.0000 -0.0120223224
C   C160      1.0  0.71574  0.19763  0.07047  1.0000 -0.0120223224
C   C161      1.0  0.19763  0.07047  0.71574  1.0000 -0.0120223224
C   C162      1.0  0.07047  0.71574  0.19763  1.0000 -0.0120223224
C   C163      1.0  0.25114  0.78539  0.86869  1.0000 -0.0120223224
C   C164      1.0  0.78539  0.86869  0.25114  1.0000 -0.0120223224
C   C165      1.0  0.86869  0.25114  0.78539  1.0000 -0.0120223224
C   C166      1.0  0.74886  0.21461  0.13131  1.0000 -0.0120223224
C   C167      1.0  0.21461  0.13131  0.74886  1.0000 -0.0120223224
C   C168      1.0  0.13131  0.74886  0.21461  1.0000 -0.0120223224
C   C169      1.0  0.20422  0.80188  0.83915  1.0000 -0.1221109066
C   C170      1.0  0.80188  0.83915  0.20422  1.0000 -0.1221109066
C   C171      1.0  0.83915  0.20422  0.80188  1.0000 -0.1221109066
C   C172      1.0  0.79578  0.19812  0.16085  1.0000 -0.1221109066
C   C173      1.0  0.19812  0.16085  0.79578  1.0000 -0.1221109066
C   C174      1.0  0.16085  0.79578  0.19812  1.0000 -0.1221109066
C   C175      1.0  0.18495  0.78006  0.78007  1.0000 -0.03433331
C   C176      1.0  0.78006  0.78007  0.18495  1.0000 -0.03433331
C   C177      1.0  0.78007  0.18495  0.78006  1.0000 -0.03433331
C   C178      1.0  0.81505  0.21994  0.21993  1.0000 -0.0389193981
C   C179      1.0  0.21994  0.21993  0.81505  1.0000 -0.03433331
C   C180      1.0  0.21993  0.81505  0.21994  1.0000 -0.0389193981
C   C181      1.0  0.21276  0.74273  0.75104  1.0000 -0.0873167422
C   C182      1.0  0.74273  0.75104  0.21276  1.0000 -0.0873167422
C   C183      1.0  0.75104  0.21276  0.74273  1.0000 -0.0873167422
C   C184      1.0  0.78724  0.25727  0.24896  1.0000 -0.0873167422
C   C185      1.0  0.25727  0.24896  0.78724  1.0000 -0.0873167422
C   C186      1.0  0.24896  0.78724  0.25727  1.0000 -0.0873167422
C   C187      1.0  0.25831  0.72520  0.77867  1.0000 -0.1900476934
C   C188      1.0  0.72520  0.77867  0.25831  1.0000 -0.1900476934
C   C189      1.0  0.77867  0.25831  0.72520  1.0000 -0.1900476934
C   C190      1.0  0.74169  0.27480  0.22133  1.0000 -0.1900476934
C   C191      1.0  0.27480  0.22133  0.74169  1.0000 -0.1900476934
C   C192      1.0  0.22133  0.74169  0.27480  1.0000 -0.1900476934
C   C193      1.0  0.27769  0.74693  0.83809  1.0000 0.1294270302
C   C194      1.0  0.74693  0.83809  0.27769  1.0000 0.1294270302
C   C195      1.0  0.83809  0.27769  0.74693  1.0000 0.1294270302
C   C196      1.0  0.72231  0.25307  0.16191  1.0000 0.1294270302
C   C197      1.0  0.25307  0.16191  0.72231  1.0000 0.1294270302
C   C198      1.0  0.16191  0.72231  0.25307  1.0000 0.1294270302
C   C199      1.0  0.13588  0.79821  0.74733  1.0000 0.577094138
C   C200      1.0  0.79821  0.74733  0.13588  1.0000 0.577094138
C   C201      1.0  0.74733  0.13588  0.79821  1.0000 0.577094138
C   C202      1.0  0.86412  0.20179  0.25267  1.0000 0.577094138
C   C203      1.0  0.20179  0.25267  0.86412  1.0000 0.577094138
C   C204      1.0  0.25267  0.86412  0.20179  1.0000 0.577094138
C   C205      1.0  0.31601  0.88508  0.08357  1.0000 0.577094138
C   C206      1.0  0.88508  0.08357  0.31601  1.0000 0.577094138
C   C207      1.0  0.08357  0.31601  0.88508  1.0000 0.577094138
C   C208      1.0  0.68399  0.11492  0.91643  1.0000 0.577094138
C   C209      1.0  0.11492  0.91643  0.68399  1.0000 0.577094138
C   C210      1.0  0.91643  0.68399  0.11492  1.0000 0.577094138
N   N1        1.0  0.52389  0.74280  0.87163  1.0000 -0.0826541341
N   N2        1.0  0.74280  0.87163  0.52389  1.0000 -0.0826541341
N   N3        1.0  0.87163  0.52389  0.74280  1.0000 -0.0826541341
N   N4        1.0  0.47611  0.25720  0.12837  1.0000 -0.0826541341
N   N5        1.0  0.25720  0.12837  0.47611  1.0000 -0.0873167422
N   N6        1.0  0.12837  0.47611  0.25720  1.0000 -0.0826541341
N   N7        1.0  0.32426  0.73890  0.87680  1.0000 -0.0826541341
N   N8        1.0  0.73890  0.87680  0.32426  1.0000 -0.0826541341
N   N9        1.0  0.87680  0.32426  0.73890  1.0000 -0.0826541341
N   N10       1.0  0.67574  0.26110  0.12320  1.0000 -0.0826541341
N   N11       1.0  0.26110  0.12320  0.67574  1.0000 -0.0826541341
N   N12       1.0  0.12320  0.67574  0.26110  1.0000 -0.0826541341
O   O1        1.0  0.37120  0.56823  0.78153  1.0000 -0.1719446303
O   O2        1.0  0.56823  0.78153  0.37120  1.0000 -0.1719446303
O   O3        1.0  0.78153  0.37120  0.56823  1.0000 -0.1719446303
O   O4        1.0  0.62880  0.43177  0.21847  1.0000 -0.1719446303
O   O5        1.0  0.43177  0.21847  0.62880  1.0000 -0.1719446303
O   O6        1.0  0.21847  0.62880  0.43177  1.0000 -0.1719446303
O   O7        1.0  0.73031  0.65603  0.00380  1.0000 -0.5280543636
O   O8        1.0  0.65603  0.00380  0.73031  1.0000 -0.5280543636
O   O9        1.0  0.00380  0.73031  0.65603  1.0000 -0.5280543636
O   O10       1.0  0.26969  0.34397  0.99620  1.0000 -0.5280543636
O   O11       1.0  0.34397  0.99620  0.26969  1.0000 -0.5280543636
O   O12       1.0  0.99620  0.26969  0.34397  1.0000 -0.5280543636
O   O13       1.0  0.77659  0.74338  0.99713  1.0000 -0.5209357685
O   O14       1.0  0.74338  0.99713  0.77659  1.0000 -0.5209357685
O   O15       1.0  0.99713  0.77659  0.74338  1.0000 -0.5209357685
O   O16       1.0  0.22341  0.25662  0.00287  1.0000 -0.5209357685
O   O17       1.0  0.25662  0.00287  0.22341  1.0000 -0.5209357685
O   O18       1.0  0.00287  0.22341  0.25662  1.0000 -0.5209357685
O   O19       1.0  0.69158  0.97154  0.86364  1.0000 -0.5209357685
O   O20       1.0  0.97154  0.86364  0.69158  1.0000 -0.5209357685
O   O21       1.0  0.86364  0.69158  0.97154  1.0000 -0.5209357685
O   O22       1.0  0.30842  0.02846  0.13636  1.0000 -0.5209357685
O   O23       1.0  0.02846  0.13636  0.30842  1.0000 -0.5209357685
O   O24       1.0  0.13636  0.30842  0.02846  1.0000 -0.5209357685
O   O25       1.0  0.60725  0.98894  0.82212  1.0000 -0.5209357685
O   O26       1.0  0.98894  0.82212  0.60725  1.0000 -0.5209357685
O   O27       1.0  0.82212  0.60725  0.98894  1.0000 -0.5209357685
O   O28       1.0  0.39275  0.01106  0.17788  1.0000 -0.5209357685
O   O29       1.0  0.01106  0.17788  0.39275  1.0000 -0.5209357685
O   O30       1.0  0.17788  0.39275  0.01106  1.0000 -0.5209357685
O   O31       1.0  0.12014  0.77743  0.69244  1.0000 -0.5280543636
O   O32       1.0  0.77743  0.69244  0.12014  1.0000 -0.5280543636
O   O33       1.0  0.69244  0.12014  0.77743  1.0000 -0.5280543636
O   O34       1.0  0.87986  0.22257  0.30756  1.0000 -0.5280543636
O   O35       1.0  0.22257  0.30756  0.87986  1.0000 -0.5280543636
O   O36       1.0  0.30756  0.87986  0.22257  1.0000 -0.5280543636
O   O37       1.0  0.11248  0.83225  0.77659  1.0000 -0.5209357685
O   O38       1.0  0.83225  0.77659  0.11248  1.0000 -0.5209357685
O   O39       1.0  0.77659  0.11248  0.83225  1.0000 -0.5209357685
O   O40       1.0  0.88752  0.16775  0.22341  1.0000 -0.5209357685
O   O41       1.0  0.16775  0.22341  0.88752  1.0000 -0.5209357685
O   O42       1.0  0.22341  0.88752  0.16775  1.0000 -0.5209357685
O   O43       1.0  0.27477  0.91079  0.07936  1.0000 -0.5280543636
O   O44       1.0  0.91079  0.07936  0.27477  1.0000 -0.5280543636
O   O45       1.0  0.07936  0.27477  0.91079  1.0000 -0.5280543636
O   O46       1.0  0.72523  0.08921  0.92064  1.0000 -0.5280543636
O   O47       1.0  0.08921  0.92064  0.72523  1.0000 -0.5280543636
O   O48       1.0  0.92064  0.72523  0.08921  1.0000 -0.5280543636
O   O49       1.0  0.35461  0.89173  0.12943  1.0000 -0.5280543636
O   O50       1.0  0.89173  0.12943  0.35461  1.0000 -0.5280543636
O   O51       1.0  0.12943  0.35461  0.89173  1.0000 -0.5280543636
O   O52       1.0  0.64539  0.10827  0.87057  1.0000 -0.5280543636
O   O53       1.0  0.10827  0.87057  0.64539  1.0000 -0.5280543636
O   O54       1.0  0.87057  0.64539  0.10827  1.0000 -0.5280543636
