# DDEC6 charges by PACMAN v1.1 (https://github.com/mtap-research/PACMAN-charge/)
data_2023[CuSi][dag]3[ASR]1
_chemical_formula_sum              "Cu8 Si4 H160 C208 N48 F24"
_cell_length_a       22.7144
_cell_length_b       22.7144
_cell_length_c       18.1873
_cell_angle_alpha    90
_cell_angle_beta     90
_cell_angle_gamma    90

_symmetry_space_group_name_H-M    "P 1"
_symmetry_Int_Tables_number       1

loop_
  _symmetry_equiv_pos_as_xyz
  'x, y, z'

loop_
  _atom_site_type_symbol
  _atom_site_label
  _atom_site_symmetry_multiplicity
  _atom_site_fract_x
  _atom_site_fract_y
  _atom_site_fract_z
  _atom_site_occupancy
  _atom_site_charge
Cu  Cu1       1.0  0.83665  0.41206  0.50000  1.0000 0.4122990004
Cu  Cu2       1.0  0.16335  0.58794  0.50000  1.0000 0.4122990004
Cu  Cu3       1.0  0.91206  0.66335  0.00000  1.0000 0.4159208667
Cu  Cu4       1.0  0.08794  0.33665  0.00000  1.0000 0.4122990004
Cu  Cu5       1.0  0.33665  0.08794  0.00000  1.0000 0.4122990004
Cu  Cu6       1.0  0.66335  0.91206  0.00000  1.0000 0.4159208667
Cu  Cu7       1.0  0.41206  0.83665  0.50000  1.0000 0.4122990004
Cu  Cu8       1.0  0.58794  0.16335  0.50000  1.0000 0.4122990004
Si  Si1       1.0  0.68667  0.31333  0.50000  1.0000 1.7170030308
Si  Si2       1.0  0.31333  0.68667  0.50000  1.0000 1.7170030308
Si  Si3       1.0  0.81333  0.81333  0.00000  1.0000 1.7170030308
Si  Si4       1.0  0.18667  0.18667  0.00000  1.0000 1.7170030308
H   H1        1.0  0.72127  0.45216  0.56695  1.0000 0.1230830532
H   H2        1.0  0.27873  0.54784  0.56695  1.0000 0.1230830532
H   H3        1.0  0.95216  0.77873  0.06695  1.0000 0.1230830532
H   H4        1.0  0.04784  0.22127  0.06695  1.0000 0.1230830532
H   H5        1.0  0.22127  0.04784  0.93305  1.0000 0.1230830532
H   H6        1.0  0.77873  0.95216  0.93305  1.0000 0.1230830532
H   H7        1.0  0.45216  0.72127  0.43305  1.0000 0.1230830532
H   H8        1.0  0.54784  0.27873  0.43305  1.0000 0.1230830532
H   H9        1.0  0.27873  0.54784  0.43305  1.0000 0.1230830532
H   H10       1.0  0.72127  0.45216  0.43305  1.0000 0.1230830532
H   H11       1.0  0.04784  0.22127  0.93305  1.0000 0.1230830532
H   H12       1.0  0.95216  0.77873  0.93305  1.0000 0.1230830532
H   H13       1.0  0.77873  0.95216  0.06695  1.0000 0.1230830532
H   H14       1.0  0.22127  0.04784  0.06695  1.0000 0.1230830532
H   H15       1.0  0.54784  0.27873  0.56695  1.0000 0.1230830532
H   H16       1.0  0.45216  0.72127  0.56695  1.0000 0.1230830532
H   H17       1.0  0.68714  0.51097  0.65868  1.0000 0.1405664841
H   H18       1.0  0.31286  0.48903  0.65868  1.0000 0.1405664841
H   H19       1.0  0.01097  0.81286  0.15868  1.0000 0.1405664841
H   H20       1.0  0.98903  0.18714  0.15868  1.0000 0.1405664841
H   H21       1.0  0.18714  0.98903  0.84132  1.0000 0.1405664841
H   H22       1.0  0.81286  0.01097  0.84132  1.0000 0.1405664841
H   H23       1.0  0.51097  0.68714  0.34132  1.0000 0.1405664841
H   H24       1.0  0.48903  0.31286  0.34132  1.0000 0.1405664841
H   H25       1.0  0.31286  0.48903  0.34132  1.0000 0.1405664841
H   H26       1.0  0.68714  0.51097  0.34132  1.0000 0.1405664841
H   H27       1.0  0.98903  0.18714  0.84132  1.0000 0.1405664841
H   H28       1.0  0.01097  0.81286  0.84132  1.0000 0.1405664841
H   H29       1.0  0.81286  0.01097  0.15868  1.0000 0.1405664841
H   H30       1.0  0.18714  0.98903  0.15868  1.0000 0.1405664841
H   H31       1.0  0.48903  0.31286  0.65868  1.0000 0.1405664841
H   H32       1.0  0.51097  0.68714  0.65868  1.0000 0.1405664841
H   H33       1.0  0.85552  0.54955  0.70537  1.0000 0.132418843
H   H34       1.0  0.14448  0.45045  0.70537  1.0000 0.132418843
H   H35       1.0  0.04955  0.64448  0.20537  1.0000 0.132418843
H   H36       1.0  0.95045  0.35552  0.20537  1.0000 0.132418843
H   H37       1.0  0.35552  0.95045  0.79463  1.0000 0.132418843
H   H38       1.0  0.64448  0.04955  0.79463  1.0000 0.132418843
H   H39       1.0  0.54955  0.85552  0.29463  1.0000 0.132418843
H   H40       1.0  0.45045  0.14448  0.29463  1.0000 0.132418843
H   H41       1.0  0.14448  0.45045  0.29463  1.0000 0.132418843
H   H42       1.0  0.85552  0.54955  0.29463  1.0000 0.132418843
H   H43       1.0  0.95045  0.35552  0.79463  1.0000 0.132418843
H   H44       1.0  0.04955  0.64448  0.79463  1.0000 0.132418843
H   H45       1.0  0.64448  0.04955  0.20537  1.0000 0.132418843
H   H46       1.0  0.35552  0.95045  0.20537  1.0000 0.132418843
H   H47       1.0  0.45045  0.14448  0.70537  1.0000 0.132418843
H   H48       1.0  0.54955  0.85552  0.70537  1.0000 0.132418843
H   H49       1.0  0.88343  0.49098  0.61103  1.0000 0.0996257291
H   H50       1.0  0.11657  0.50902  0.61103  1.0000 0.0996257291
H   H51       1.0  0.99098  0.61657  0.11103  1.0000 0.0996257291
H   H52       1.0  0.00902  0.38343  0.11103  1.0000 0.0996257291
H   H53       1.0  0.38343  0.00902  0.88897  1.0000 0.0996257291
H   H54       1.0  0.61657  0.99098  0.88897  1.0000 0.0996257291
H   H55       1.0  0.49098  0.88343  0.38897  1.0000 0.0996257291
H   H56       1.0  0.50902  0.11657  0.38897  1.0000 0.0996257291
H   H57       1.0  0.11657  0.50902  0.38897  1.0000 0.0996257291
H   H58       1.0  0.88343  0.49098  0.38897  1.0000 0.0996257291
H   H59       1.0  0.00902  0.38343  0.88897  1.0000 0.0996257291
H   H60       1.0  0.99098  0.61657  0.88897  1.0000 0.0996257291
H   H61       1.0  0.61657  0.99098  0.11103  1.0000 0.0996257291
H   H62       1.0  0.38343  0.00902  0.11103  1.0000 0.0996257291
H   H63       1.0  0.50902  0.11657  0.61103  1.0000 0.0996257291
H   H64       1.0  0.49098  0.88343  0.61103  1.0000 0.0996257291
H   H65       1.0  0.71483  0.64077  0.63903  1.0000 0.132418843
H   H66       1.0  0.28517  0.35923  0.63903  1.0000 0.132418843
H   H67       1.0  0.14077  0.78517  0.13903  1.0000 0.132418843
H   H68       1.0  0.85923  0.21483  0.13903  1.0000 0.132418843
H   H69       1.0  0.21483  0.85923  0.86097  1.0000 0.132418843
H   H70       1.0  0.78517  0.14077  0.86097  1.0000 0.132418843
H   H71       1.0  0.64077  0.71483  0.36097  1.0000 0.132418843
H   H72       1.0  0.35923  0.28517  0.36097  1.0000 0.132418843
H   H73       1.0  0.28517  0.35923  0.36097  1.0000 0.132418843
H   H74       1.0  0.71483  0.64077  0.36097  1.0000 0.132418843
H   H75       1.0  0.85923  0.21483  0.86097  1.0000 0.132418843
H   H76       1.0  0.14077  0.78517  0.86097  1.0000 0.132418843
H   H77       1.0  0.78517  0.14077  0.13903  1.0000 0.132418843
H   H78       1.0  0.21483  0.85923  0.13903  1.0000 0.132418843
H   H79       1.0  0.35923  0.28517  0.63903  1.0000 0.132418843
H   H80       1.0  0.64077  0.71483  0.63903  1.0000 0.132418843
H   H81       1.0  0.65840  0.58533  0.83614  1.0000 0.132418843
H   H82       1.0  0.34160  0.41467  0.83614  1.0000 0.132418843
H   H83       1.0  0.08533  0.84160  0.33614  1.0000 0.132418843
H   H84       1.0  0.91467  0.15840  0.33614  1.0000 0.132418843
H   H85       1.0  0.15840  0.91467  0.66386  1.0000 0.132418843
H   H86       1.0  0.84160  0.08533  0.66386  1.0000 0.132418843
H   H87       1.0  0.58533  0.65840  0.16386  1.0000 0.132418843
H   H88       1.0  0.41467  0.34160  0.16386  1.0000 0.132418843
H   H89       1.0  0.34160  0.41467  0.16386  1.0000 0.132418843
H   H90       1.0  0.65840  0.58533  0.16386  1.0000 0.132418843
H   H91       1.0  0.91467  0.15840  0.66386  1.0000 0.132418843
H   H92       1.0  0.08533  0.84160  0.66386  1.0000 0.132418843
H   H93       1.0  0.84160  0.08533  0.33614  1.0000 0.132418843
H   H94       1.0  0.15840  0.91467  0.33614  1.0000 0.132418843
H   H95       1.0  0.41467  0.34160  0.83614  1.0000 0.132418843
H   H96       1.0  0.58533  0.65840  0.83614  1.0000 0.132418843
H   H97       1.0  0.76780  0.68088  0.80065  1.0000 0.1405664841
H   H98       1.0  0.23220  0.31912  0.80065  1.0000 0.1405664841
H   H99       1.0  0.18088  0.73220  0.30065  1.0000 0.1405664841
H   H100      1.0  0.81912  0.26780  0.30065  1.0000 0.1405664841
H   H101      1.0  0.26780  0.81912  0.69935  1.0000 0.1405664841
H   H102      1.0  0.73220  0.18088  0.69935  1.0000 0.1405664841
H   H103      1.0  0.68088  0.76780  0.19935  1.0000 0.1405664841
H   H104      1.0  0.31912  0.23220  0.19935  1.0000 0.1405664841
H   H105      1.0  0.23220  0.31912  0.19935  1.0000 0.1405664841
H   H106      1.0  0.76780  0.68088  0.19935  1.0000 0.1405664841
H   H107      1.0  0.81912  0.26780  0.69935  1.0000 0.1405664841
H   H108      1.0  0.18088  0.73220  0.69935  1.0000 0.1405664841
H   H109      1.0  0.73220  0.18088  0.30065  1.0000 0.1405664841
H   H110      1.0  0.26780  0.81912  0.30065  1.0000 0.1405664841
H   H111      1.0  0.31912  0.23220  0.80065  1.0000 0.1405664841
H   H112      1.0  0.68088  0.76780  0.80065  1.0000 0.1405664841
H   H113      1.0  0.82673  0.70969  0.89536  1.0000 0.132418843
H   H114      1.0  0.17327  0.29031  0.89536  1.0000 0.132418843
H   H115      1.0  0.20969  0.67327  0.39536  1.0000 0.132418843
H   H116      1.0  0.79031  0.32673  0.39536  1.0000 0.132418843
H   H117      1.0  0.32673  0.79031  0.60464  1.0000 0.132418843
H   H118      1.0  0.67327  0.20969  0.60464  1.0000 0.132418843
H   H119      1.0  0.70969  0.82673  0.10464  1.0000 0.132418843
H   H120      1.0  0.29031  0.17327  0.10464  1.0000 0.132418843
H   H121      1.0  0.17327  0.29031  0.10464  1.0000 0.132418843
H   H122      1.0  0.82673  0.70969  0.10464  1.0000 0.132418843
H   H123      1.0  0.79031  0.32673  0.60464  1.0000 0.132418843
H   H124      1.0  0.20969  0.67327  0.60464  1.0000 0.132418843
H   H125      1.0  0.67327  0.20969  0.39536  1.0000 0.132418843
H   H126      1.0  0.32673  0.79031  0.39536  1.0000 0.132418843
H   H127      1.0  0.29031  0.17327  0.89536  1.0000 0.132418843
H   H128      1.0  0.70969  0.82673  0.89536  1.0000 0.132418843
H   H129      1.0  0.87753  0.54810  0.92835  1.0000 0.0908138953
H   H130      1.0  0.12247  0.45190  0.92835  1.0000 0.0908138953
H   H131      1.0  0.04810  0.62247  0.42835  1.0000 0.0908138953
H   H132      1.0  0.95190  0.37753  0.42835  1.0000 0.0908138953
H   H133      1.0  0.37753  0.95190  0.57165  1.0000 0.0908138953
H   H134      1.0  0.62247  0.04810  0.57165  1.0000 0.0908138953
H   H135      1.0  0.54810  0.87753  0.07165  1.0000 0.0908138953
H   H136      1.0  0.45190  0.12247  0.07165  1.0000 0.0908138953
H   H137      1.0  0.12247  0.45190  0.07165  1.0000 0.0908138953
H   H138      1.0  0.87753  0.54810  0.07165  1.0000 0.0908138953
H   H139      1.0  0.95190  0.37753  0.57165  1.0000 0.0908138953
H   H140      1.0  0.04810  0.62247  0.57165  1.0000 0.0908138953
H   H141      1.0  0.62247  0.04810  0.42835  1.0000 0.0908138953
H   H142      1.0  0.37753  0.95190  0.42835  1.0000 0.0908138953
H   H143      1.0  0.45190  0.12247  0.92835  1.0000 0.0908138953
H   H144      1.0  0.54810  0.87753  0.92835  1.0000 0.0908138953
H   H145      1.0  0.81782  0.51406  0.83479  1.0000 0.1405664841
H   H146      1.0  0.18218  0.48594  0.83479  1.0000 0.1405664841
H   H147      1.0  0.01406  0.68218  0.33479  1.0000 0.1405664841
H   H148      1.0  0.98594  0.31782  0.33479  1.0000 0.1405664841
H   H149      1.0  0.31782  0.98594  0.66521  1.0000 0.1405664841
H   H150      1.0  0.68218  0.01406  0.66521  1.0000 0.1405664841
H   H151      1.0  0.51406  0.81782  0.16521  1.0000 0.1405664841
H   H152      1.0  0.48594  0.18218  0.16521  1.0000 0.1405664841
H   H153      1.0  0.18218  0.48594  0.16521  1.0000 0.1405664841
H   H154      1.0  0.81782  0.51406  0.16521  1.0000 0.1405664841
H   H155      1.0  0.98594  0.31782  0.66521  1.0000 0.1405664841
H   H156      1.0  0.01406  0.68218  0.66521  1.0000 0.1405664841
H   H157      1.0  0.68218  0.01406  0.33479  1.0000 0.1405664841
H   H158      1.0  0.31782  0.98594  0.33479  1.0000 0.1405664841
H   H159      1.0  0.48594  0.18218  0.83479  1.0000 0.1405664841
H   H160      1.0  0.51406  0.81782  0.83479  1.0000 0.1405664841
C   C1        1.0  0.74900  0.47250  0.59570  1.0000 0.0908138953
C   C2        1.0  0.25100  0.52750  0.59570  1.0000 0.0908138953
C   C3        1.0  0.97250  0.75100  0.09570  1.0000 0.0908138953
C   C4        1.0  0.02750  0.24900  0.09570  1.0000 0.0908138953
C   C5        1.0  0.24900  0.02750  0.90430  1.0000 0.0908138953
C   C6        1.0  0.75100  0.97250  0.90430  1.0000 0.0908138953
C   C7        1.0  0.47250  0.74900  0.40430  1.0000 0.0908138953
C   C8        1.0  0.52750  0.25100  0.40430  1.0000 0.0908138953
C   C9        1.0  0.25100  0.52750  0.40430  1.0000 0.0908138953
C   C10       1.0  0.74900  0.47250  0.40430  1.0000 0.0908138953
C   C11       1.0  0.02750  0.24900  0.90430  1.0000 0.0908138953
C   C12       1.0  0.97250  0.75100  0.90430  1.0000 0.0908138953
C   C13       1.0  0.75100  0.97250  0.09570  1.0000 0.0908138953
C   C14       1.0  0.24900  0.02750  0.09570  1.0000 0.0908138953
C   C15       1.0  0.52750  0.25100  0.59570  1.0000 0.0908138953
C   C16       1.0  0.47250  0.74900  0.59570  1.0000 0.0908138953
C   C17       1.0  0.72790  0.50750  0.65060  1.0000 -0.2305241702
C   C18       1.0  0.27210  0.49250  0.65060  1.0000 -0.2305241702
C   C19       1.0  0.00750  0.77210  0.15060  1.0000 -0.2305241702
C   C20       1.0  0.99250  0.22790  0.15060  1.0000 -0.2305241702
C   C21       1.0  0.22790  0.99250  0.84940  1.0000 -0.2305241702
C   C22       1.0  0.77210  0.00750  0.84940  1.0000 -0.2305241702
C   C23       1.0  0.50750  0.72790  0.34940  1.0000 -0.2305241702
C   C24       1.0  0.49250  0.27210  0.34940  1.0000 -0.2305241702
C   C25       1.0  0.27210  0.49250  0.34940  1.0000 -0.2305241702
C   C26       1.0  0.72790  0.50750  0.34940  1.0000 -0.2305241702
C   C27       1.0  0.99250  0.22790  0.84940  1.0000 -0.2305241702
C   C28       1.0  0.00750  0.77210  0.84940  1.0000 -0.2305241702
C   C29       1.0  0.77210  0.00750  0.15060  1.0000 -0.2305241702
C   C30       1.0  0.22790  0.99250  0.15060  1.0000 -0.2305241702
C   C31       1.0  0.49250  0.27210  0.65060  1.0000 -0.2305241702
C   C32       1.0  0.50750  0.72790  0.65060  1.0000 -0.2305241702
C   C33       1.0  0.76780  0.53780  0.69440  1.0000 0.209813111
C   C34       1.0  0.23220  0.46220  0.69440  1.0000 0.209813111
C   C35       1.0  0.03780  0.73220  0.19440  1.0000 0.209813111
C   C36       1.0  0.96220  0.26780  0.19440  1.0000 0.209813111
C   C37       1.0  0.26780  0.96220  0.80560  1.0000 0.209813111
C   C38       1.0  0.73220  0.03780  0.80560  1.0000 0.209813111
C   C39       1.0  0.53780  0.76780  0.30560  1.0000 0.209813111
C   C40       1.0  0.46220  0.23220  0.30560  1.0000 0.209813111
C   C41       1.0  0.23220  0.46220  0.30560  1.0000 0.209813111
C   C42       1.0  0.76780  0.53780  0.30560  1.0000 0.209813111
C   C43       1.0  0.96220  0.26780  0.80560  1.0000 0.209813111
C   C44       1.0  0.03780  0.73220  0.80560  1.0000 0.209813111
C   C45       1.0  0.73220  0.03780  0.19440  1.0000 0.209813111
C   C46       1.0  0.26780  0.96220  0.19440  1.0000 0.209813111
C   C47       1.0  0.46220  0.23220  0.69440  1.0000 0.209813111
C   C48       1.0  0.53780  0.76780  0.69440  1.0000 0.209813111
C   C49       1.0  0.82660  0.53010  0.67750  1.0000 -0.2397925965
C   C50       1.0  0.17340  0.46990  0.67750  1.0000 -0.2397925965
C   C51       1.0  0.03010  0.67340  0.17750  1.0000 -0.2397925965
C   C52       1.0  0.96990  0.32660  0.17750  1.0000 -0.2397925965
C   C53       1.0  0.32660  0.96990  0.82250  1.0000 -0.2397925965
C   C54       1.0  0.67340  0.03010  0.82250  1.0000 -0.2397925965
C   C55       1.0  0.53010  0.82660  0.32250  1.0000 -0.2397925965
C   C56       1.0  0.46990  0.17340  0.32250  1.0000 -0.2397925965
C   C57       1.0  0.17340  0.46990  0.32250  1.0000 -0.2397925965
C   C58       1.0  0.82660  0.53010  0.32250  1.0000 -0.2397925965
C   C59       1.0  0.96990  0.32660  0.82250  1.0000 -0.2397925965
C   C60       1.0  0.03010  0.67340  0.82250  1.0000 -0.2397925965
C   C61       1.0  0.67340  0.03010  0.17750  1.0000 -0.2397925965
C   C62       1.0  0.32660  0.96990  0.17750  1.0000 -0.2397925965
C   C63       1.0  0.46990  0.17340  0.67750  1.0000 -0.2397925965
C   C64       1.0  0.53010  0.82660  0.67750  1.0000 -0.2397925965
C   C65       1.0  0.84300  0.49470  0.62120  1.0000 0.0565255054
C   C66       1.0  0.15700  0.50530  0.62120  1.0000 0.0565255054
C   C67       1.0  0.99470  0.65700  0.12120  1.0000 0.0565255054
C   C68       1.0  0.00530  0.34300  0.12120  1.0000 0.0565255054
C   C69       1.0  0.34300  0.00530  0.87880  1.0000 0.0565255054
C   C70       1.0  0.65700  0.99470  0.87880  1.0000 0.0565255054
C   C71       1.0  0.49470  0.84300  0.37880  1.0000 0.0565255054
C   C72       1.0  0.50530  0.15700  0.37880  1.0000 0.0565255054
C   C73       1.0  0.15700  0.50530  0.37880  1.0000 0.0565255054
C   C74       1.0  0.84300  0.49470  0.37880  1.0000 0.0565255054
C   C75       1.0  0.00530  0.34300  0.87880  1.0000 0.0565255054
C   C76       1.0  0.99470  0.65700  0.87880  1.0000 0.0565255054
C   C77       1.0  0.65700  0.99470  0.12120  1.0000 0.0565255054
C   C78       1.0  0.34300  0.00530  0.12120  1.0000 0.0565255054
C   C79       1.0  0.50530  0.15700  0.62120  1.0000 0.0565255054
C   C80       1.0  0.49470  0.84300  0.62120  1.0000 0.0565255054
C   C81       1.0  0.69510  0.61010  0.74160  1.0000 0.132418843
C   C82       1.0  0.30490  0.38990  0.74160  1.0000 0.132418843
C   C83       1.0  0.11010  0.80490  0.24160  1.0000 0.132418843
C   C84       1.0  0.88990  0.19510  0.24160  1.0000 0.132418843
C   C85       1.0  0.19510  0.88990  0.75840  1.0000 0.132418843
C   C86       1.0  0.80490  0.11010  0.75840  1.0000 0.132418843
C   C87       1.0  0.61010  0.69510  0.25840  1.0000 0.132418843
C   C88       1.0  0.38990  0.30490  0.25840  1.0000 0.132418843
C   C89       1.0  0.30490  0.38990  0.25840  1.0000 0.132418843
C   C90       1.0  0.69510  0.61010  0.25840  1.0000 0.132418843
C   C91       1.0  0.88990  0.19510  0.75840  1.0000 0.132418843
C   C92       1.0  0.11010  0.80490  0.75840  1.0000 0.132418843
C   C93       1.0  0.80490  0.11010  0.24160  1.0000 0.132418843
C   C94       1.0  0.19510  0.88990  0.24160  1.0000 0.132418843
C   C95       1.0  0.38990  0.30490  0.74160  1.0000 0.132418843
C   C96       1.0  0.61010  0.69510  0.74160  1.0000 0.132418843
C   C97       1.0  0.68980  0.64580  0.67970  1.0000 -0.1718746144
C   C98       1.0  0.31020  0.35420  0.67970  1.0000 -0.1718746144
C   C99       1.0  0.14580  0.81020  0.17970  1.0000 -0.1718746144
C   C100      1.0  0.85420  0.18980  0.17970  1.0000 -0.1718746144
C   C101      1.0  0.18980  0.85420  0.82030  1.0000 -0.1718746144
C   C102      1.0  0.81020  0.14580  0.82030  1.0000 -0.1718746144
C   C103      1.0  0.64580  0.68980  0.32030  1.0000 -0.1718746144
C   C104      1.0  0.35420  0.31020  0.32030  1.0000 -0.1718746144
C   C105      1.0  0.31020  0.35420  0.32030  1.0000 -0.1718746144
C   C106      1.0  0.68980  0.64580  0.32030  1.0000 -0.1718746144
C   C107      1.0  0.85420  0.18980  0.82030  1.0000 -0.1718746144
C   C108      1.0  0.14580  0.81020  0.82030  1.0000 -0.1718746144
C   C109      1.0  0.81020  0.14580  0.17970  1.0000 -0.1718746144
C   C110      1.0  0.18980  0.85420  0.17970  1.0000 -0.1718746144
C   C111      1.0  0.35420  0.31020  0.67970  1.0000 -0.1718746144
C   C112      1.0  0.64580  0.68980  0.67970  1.0000 -0.1718746144
C   C113      1.0  0.65630  0.61260  0.79740  1.0000 -0.1612927159
C   C114      1.0  0.34370  0.38740  0.79740  1.0000 -0.1612927159
C   C115      1.0  0.11260  0.84370  0.29740  1.0000 -0.1612927159
C   C116      1.0  0.88740  0.15630  0.29740  1.0000 -0.1612927159
C   C117      1.0  0.15630  0.88740  0.70260  1.0000 -0.1612927159
C   C118      1.0  0.84370  0.11260  0.70260  1.0000 -0.1612927159
C   C119      1.0  0.61260  0.65630  0.20260  1.0000 -0.1612927159
C   C120      1.0  0.38740  0.34370  0.20260  1.0000 -0.1612927159
C   C121      1.0  0.34370  0.38740  0.20260  1.0000 -0.1612927159
C   C122      1.0  0.65630  0.61260  0.20260  1.0000 -0.1612927159
C   C123      1.0  0.88740  0.15630  0.70260  1.0000 -0.1612927159
C   C124      1.0  0.11260  0.84370  0.70260  1.0000 -0.1612927159
C   C125      1.0  0.84370  0.11260  0.29740  1.0000 -0.1612927159
C   C126      1.0  0.15630  0.88740  0.29740  1.0000 -0.1612927159
C   C127      1.0  0.38740  0.34370  0.79740  1.0000 -0.1612927159
C   C128      1.0  0.61260  0.65630  0.79740  1.0000 -0.1612927159
C   C129      1.0  0.78550  0.59350  0.80690  1.0000 0.209813111
C   C130      1.0  0.21450  0.40650  0.80690  1.0000 0.209813111
C   C131      1.0  0.09350  0.71450  0.30690  1.0000 0.209813111
C   C132      1.0  0.90650  0.28550  0.30690  1.0000 0.209813111
C   C133      1.0  0.28550  0.90650  0.69310  1.0000 0.209813111
C   C134      1.0  0.71450  0.09350  0.69310  1.0000 0.209813111
C   C135      1.0  0.59350  0.78550  0.19310  1.0000 0.209813111
C   C136      1.0  0.40650  0.21450  0.19310  1.0000 0.209813111
C   C137      1.0  0.21450  0.40650  0.19310  1.0000 0.209813111
C   C138      1.0  0.78550  0.59350  0.19310  1.0000 0.209813111
C   C139      1.0  0.90650  0.28550  0.69310  1.0000 0.209813111
C   C140      1.0  0.09350  0.71450  0.69310  1.0000 0.209813111
C   C141      1.0  0.71450  0.09350  0.30690  1.0000 0.209813111
C   C142      1.0  0.28550  0.90650  0.30690  1.0000 0.209813111
C   C143      1.0  0.40650  0.21450  0.80690  1.0000 0.209813111
C   C144      1.0  0.59350  0.78550  0.80690  1.0000 0.209813111
C   C145      1.0  0.78970  0.65250  0.82650  1.0000 -0.2397925965
C   C146      1.0  0.21030  0.34750  0.82650  1.0000 -0.2397925965
C   C147      1.0  0.15250  0.71030  0.32650  1.0000 -0.2397925965
C   C148      1.0  0.84750  0.28970  0.32650  1.0000 -0.2397925965
C   C149      1.0  0.28970  0.84750  0.67350  1.0000 -0.2397925965
C   C150      1.0  0.71030  0.15250  0.67350  1.0000 -0.2397925965
C   C151      1.0  0.65250  0.78970  0.17350  1.0000 -0.2397925965
C   C152      1.0  0.34750  0.21030  0.17350  1.0000 -0.2397925965
C   C153      1.0  0.21030  0.34750  0.17350  1.0000 -0.2397925965
C   C154      1.0  0.78970  0.65250  0.17350  1.0000 -0.2397925965
C   C155      1.0  0.84750  0.28970  0.67350  1.0000 -0.2397925965
C   C156      1.0  0.15250  0.71030  0.67350  1.0000 -0.2397925965
C   C157      1.0  0.71030  0.15250  0.32650  1.0000 -0.2397925965
C   C158      1.0  0.28970  0.84750  0.32650  1.0000 -0.2397925965
C   C159      1.0  0.34750  0.21030  0.82650  1.0000 -0.2397925965
C   C160      1.0  0.65250  0.78970  0.82650  1.0000 -0.2397925965
C   C161      1.0  0.82530  0.66960  0.88280  1.0000 0.0996257291
C   C162      1.0  0.17470  0.33040  0.88280  1.0000 0.0996257291
C   C163      1.0  0.16960  0.67470  0.38280  1.0000 0.0996257291
C   C164      1.0  0.83040  0.32530  0.38280  1.0000 0.0996257291
C   C165      1.0  0.32530  0.83040  0.61720  1.0000 0.0996257291
C   C166      1.0  0.67470  0.16960  0.61720  1.0000 0.0996257291
C   C167      1.0  0.66960  0.82530  0.11720  1.0000 0.0996257291
C   C168      1.0  0.33040  0.17470  0.11720  1.0000 0.0996257291
C   C169      1.0  0.17470  0.33040  0.11720  1.0000 0.0996257291
C   C170      1.0  0.82530  0.66960  0.11720  1.0000 0.0996257291
C   C171      1.0  0.83040  0.32530  0.61720  1.0000 0.0996257291
C   C172      1.0  0.16960  0.67470  0.61720  1.0000 0.0996257291
C   C173      1.0  0.67470  0.16960  0.38280  1.0000 0.0996257291
C   C174      1.0  0.32530  0.83040  0.38280  1.0000 0.0996257291
C   C175      1.0  0.33040  0.17470  0.88280  1.0000 0.0996257291
C   C176      1.0  0.66960  0.82530  0.88280  1.0000 0.0996257291
C   C177      1.0  0.85470  0.57540  0.90200  1.0000 0.0495465762
C   C178      1.0  0.14530  0.42460  0.90200  1.0000 0.0495465762
C   C179      1.0  0.07540  0.64530  0.40200  1.0000 0.0495465762
C   C180      1.0  0.92460  0.35470  0.40200  1.0000 0.0495465762
C   C181      1.0  0.35470  0.92460  0.59800  1.0000 0.0495465762
C   C182      1.0  0.64530  0.07540  0.59800  1.0000 0.0495465762
C   C183      1.0  0.57540  0.85470  0.09800  1.0000 0.0495465762
C   C184      1.0  0.42460  0.14530  0.09800  1.0000 0.0495465762
C   C185      1.0  0.14530  0.42460  0.09800  1.0000 0.0495465762
C   C186      1.0  0.85470  0.57540  0.09800  1.0000 0.0495465762
C   C187      1.0  0.92460  0.35470  0.59800  1.0000 0.0495465762
C   C188      1.0  0.07540  0.64530  0.59800  1.0000 0.0495465762
C   C189      1.0  0.64530  0.07540  0.40200  1.0000 0.0495465762
C   C190      1.0  0.35470  0.92460  0.40200  1.0000 0.0495465762
C   C191      1.0  0.42460  0.14530  0.90200  1.0000 0.0495465762
C   C192      1.0  0.57540  0.85470  0.90200  1.0000 0.0495465762
C   C193      1.0  0.81890  0.55450  0.84580  1.0000 -0.2305241702
C   C194      1.0  0.18110  0.44550  0.84580  1.0000 -0.2305241702
C   C195      1.0  0.05450  0.68110  0.34580  1.0000 -0.2305241702
C   C196      1.0  0.94550  0.31890  0.34580  1.0000 -0.2305241702
C   C197      1.0  0.31890  0.94550  0.65420  1.0000 -0.2305241702
C   C198      1.0  0.68110  0.05450  0.65420  1.0000 -0.2305241702
C   C199      1.0  0.55450  0.81890  0.15420  1.0000 -0.2305241702
C   C200      1.0  0.44550  0.18110  0.15420  1.0000 -0.2305241702
C   C201      1.0  0.18110  0.44550  0.15420  1.0000 -0.2305241702
C   C202      1.0  0.81890  0.55450  0.15420  1.0000 -0.2305241702
C   C203      1.0  0.94550  0.31890  0.65420  1.0000 -0.2305241702
C   C204      1.0  0.05450  0.68110  0.65420  1.0000 -0.2305241702
C   C205      1.0  0.68110  0.05450  0.34580  1.0000 -0.2305241702
C   C206      1.0  0.31890  0.94550  0.34580  1.0000 -0.2305241702
C   C207      1.0  0.44550  0.18110  0.84580  1.0000 -0.2305241702
C   C208      1.0  0.55450  0.81890  0.84580  1.0000 -0.2305241702
N   N1        1.0  0.80540  0.46490  0.57950  1.0000 -0.209648719
N   N2        1.0  0.19460  0.53510  0.57950  1.0000 -0.209648719
N   N3        1.0  0.96490  0.69460  0.07950  1.0000 -0.209648719
N   N4        1.0  0.03510  0.30540  0.07950  1.0000 -0.209648719
N   N5        1.0  0.30540  0.03510  0.92050  1.0000 -0.209648719
N   N6        1.0  0.69460  0.96490  0.92050  1.0000 -0.209648719
N   N7        1.0  0.46490  0.80540  0.42050  1.0000 -0.209648719
N   N8        1.0  0.53510  0.19460  0.42050  1.0000 -0.209648719
N   N9        1.0  0.19460  0.53510  0.42050  1.0000 -0.209648719
N   N10       1.0  0.80540  0.46490  0.42050  1.0000 -0.209648719
N   N11       1.0  0.03510  0.30540  0.92050  1.0000 -0.209648719
N   N12       1.0  0.96490  0.69460  0.92050  1.0000 -0.209648719
N   N13       1.0  0.69460  0.96490  0.07950  1.0000 -0.209648719
N   N14       1.0  0.30540  0.03510  0.07950  1.0000 -0.209648719
N   N15       1.0  0.53510  0.19460  0.57950  1.0000 -0.209648719
N   N16       1.0  0.46490  0.80540  0.57950  1.0000 -0.209648719
N   N17       1.0  0.74760  0.57450  0.75180  1.0000 -0.195643406
N   N18       1.0  0.25240  0.42550  0.75180  1.0000 -0.195643406
N   N19       1.0  0.07450  0.75240  0.25180  1.0000 -0.1935434658
N   N20       1.0  0.92550  0.24760  0.25180  1.0000 -0.195643406
N   N21       1.0  0.24760  0.92550  0.74820  1.0000 -0.195643406
N   N22       1.0  0.75240  0.07450  0.74820  1.0000 -0.195643406
N   N23       1.0  0.57450  0.74760  0.24820  1.0000 -0.195643406
N   N24       1.0  0.42550  0.25240  0.24820  1.0000 -0.195643406
N   N25       1.0  0.25240  0.42550  0.24820  1.0000 -0.195643406
N   N26       1.0  0.74760  0.57450  0.24820  1.0000 -0.195643406
N   N27       1.0  0.92550  0.24760  0.74820  1.0000 -0.195643406
N   N28       1.0  0.07450  0.75240  0.74820  1.0000 -0.195643406
N   N29       1.0  0.75240  0.07450  0.25180  1.0000 -0.195643406
N   N30       1.0  0.24760  0.92550  0.25180  1.0000 -0.195643406
N   N31       1.0  0.42550  0.25240  0.75180  1.0000 -0.195643406
N   N32       1.0  0.57450  0.74760  0.75180  1.0000 -0.195643406
N   N33       1.0  0.85833  0.63180  0.92080  1.0000 -0.2184223774
N   N34       1.0  0.14167  0.36820  0.92080  1.0000 -0.2184223774
N   N35       1.0  0.13180  0.64167  0.42080  1.0000 -0.2184223774
N   N36       1.0  0.86820  0.35833  0.42080  1.0000 -0.2184223774
N   N37       1.0  0.35833  0.86820  0.57920  1.0000 -0.2184223774
N   N38       1.0  0.64167  0.13180  0.57920  1.0000 -0.2184223774
N   N39       1.0  0.63180  0.85833  0.07920  1.0000 -0.2184223774
N   N40       1.0  0.36820  0.14167  0.07920  1.0000 -0.2184223774
N   N41       1.0  0.14167  0.36820  0.07920  1.0000 -0.2184223774
N   N42       1.0  0.85833  0.63180  0.07920  1.0000 -0.2184223774
N   N43       1.0  0.86820  0.35833  0.57920  1.0000 -0.2184223774
N   N44       1.0  0.13180  0.64167  0.57920  1.0000 -0.2184223774
N   N45       1.0  0.64167  0.13180  0.42080  1.0000 -0.2184223774
N   N46       1.0  0.35833  0.86820  0.42080  1.0000 -0.2184223774
N   N47       1.0  0.36820  0.14167  0.92080  1.0000 -0.2184223774
N   N48       1.0  0.63180  0.85833  0.92080  1.0000 -0.2184223774
F   F1        1.0  0.73970  0.36625  0.50000  1.0000 -0.5721220641
F   F2        1.0  0.26030  0.63375  0.50000  1.0000 -0.5721220641
F   F3        1.0  0.86625  0.76030  0.00000  1.0000 -0.5721220641
F   F4        1.0  0.13375  0.23970  0.00000  1.0000 -0.5721220641
F   F5        1.0  0.23970  0.13375  0.00000  1.0000 -0.5721220641
F   F6        1.0  0.76030  0.86625  0.00000  1.0000 -0.5721220641
F   F7        1.0  0.36625  0.73970  0.50000  1.0000 -0.5721220641
F   F8        1.0  0.63375  0.26030  0.50000  1.0000 -0.5721220641
F   F9        1.0  0.63430  0.36570  0.50000  1.0000 -0.5767301787
F   F10       1.0  0.36570  0.63430  0.50000  1.0000 -0.5767301787
F   F11       1.0  0.86570  0.86570  0.00000  1.0000 -0.5767301787
F   F12       1.0  0.13430  0.13430  0.00000  1.0000 -0.5767301787
F   F13       1.0  0.68653  0.31347  0.59190  1.0000 -0.5572981033
F   F14       1.0  0.31347  0.68653  0.59190  1.0000 -0.5572981033
F   F15       1.0  0.81347  0.81347  0.09190  1.0000 -0.5572981033
F   F16       1.0  0.18653  0.18653  0.09190  1.0000 -0.5572981033
F   F17       1.0  0.18653  0.18653  0.90810  1.0000 -0.5572981033
F   F18       1.0  0.81347  0.81347  0.90810  1.0000 -0.5572981033
F   F19       1.0  0.31347  0.68653  0.40810  1.0000 -0.5572981033
F   F20       1.0  0.68653  0.31347  0.40810  1.0000 -0.5572981033
F   F21       1.0  0.73804  0.26196  0.50000  1.0000 -0.5721220641
F   F22       1.0  0.26196  0.73804  0.50000  1.0000 -0.5721220641
F   F23       1.0  0.76196  0.76196  0.00000  1.0000 -0.5721220641
F   F24       1.0  0.23804  0.23804  0.00000  1.0000 -0.5721220641
