# DDEC6 charges by PACMAN v1.1 (https://github.com/mtap-research/PACMAN-charge/)
data_2023[ZnTi][nan]3[ASR]2
_chemical_formula_sum              "Ti8 Zn6 H246 C384 N30 O72"
_cell_length_a       20.6614
_cell_length_b       20.6614
_cell_length_c       30.6999
_cell_angle_alpha    90
_cell_angle_beta     90
_cell_angle_gamma    120

_symmetry_space_group_name_H-M    "P 1"
_symmetry_Int_Tables_number       1

loop_
  _symmetry_equiv_pos_as_xyz
  'x, y, z'

loop_
  _atom_site_type_symbol
  _atom_site_label
  _atom_site_symmetry_multiplicity
  _atom_site_fract_x
  _atom_site_fract_y
  _atom_site_fract_z
  _atom_site_occupancy
  _atom_site_charge
Ti  Ti1       1.0  0.33333  0.66667  0.72504  1.0000 1.8894270059
Ti  Ti2       1.0  0.66667  0.33333  0.22504  1.0000 1.8894270059
Ti  Ti3       1.0  0.05078  0.56582  0.48428  1.0000 1.9031441804
Ti  Ti4       1.0  0.43418  0.48496  0.48428  1.0000 1.9031441804
Ti  Ti5       1.0  0.51504  0.94922  0.48428  1.0000 1.9031441804
Ti  Ti6       1.0  0.94922  0.43418  0.98428  1.0000 1.9031441804
Ti  Ti7       1.0  0.56582  0.51504  0.98428  1.0000 1.9031441804
Ti  Ti8       1.0  0.48496  0.05078  0.98428  1.0000 1.9031441804
Zn  Zn1       1.0  0.42663  0.26531  0.47296  1.0000 0.741383284
Zn  Zn2       1.0  0.73469  0.16132  0.47296  1.0000 0.741383284
Zn  Zn3       1.0  0.83868  0.57337  0.47296  1.0000 0.741383284
Zn  Zn4       1.0  0.57337  0.73469  0.97296  1.0000 0.741383284
Zn  Zn5       1.0  0.26531  0.83868  0.97296  1.0000 0.741383284
Zn  Zn6       1.0  0.16132  0.42663  0.97296  1.0000 0.741383284
H   H1        1.0  0.17198  0.62925  0.59103  1.0000 0.1303575526
H   H2        1.0  0.37075  0.54273  0.59103  1.0000 0.1303575526
H   H3        1.0  0.45727  0.82802  0.59103  1.0000 0.1303575526
H   H4        1.0  0.82802  0.37075  0.09103  1.0000 0.1303575526
H   H5        1.0  0.62925  0.45727  0.09103  1.0000 0.1303575526
H   H6        1.0  0.54273  0.17198  0.09103  1.0000 0.1303575526
H   H7        1.0  0.18880  0.59014  0.62957  1.0000 0.1303575526
H   H8        1.0  0.40986  0.59866  0.62957  1.0000 0.1303575526
H   H9        1.0  0.40134  0.81120  0.62957  1.0000 0.1303575526
H   H10       1.0  0.81120  0.40986  0.12957  1.0000 0.1303575526
H   H11       1.0  0.59014  0.40134  0.12957  1.0000 0.1303575526
H   H12       1.0  0.59866  0.18880  0.12957  1.0000 0.1303575526
H   H13       1.0  0.50938  0.35144  0.41896  1.0000 0.3159026649
H   H14       1.0  0.64856  0.15794  0.41896  1.0000 0.3159026649
H   H15       1.0  0.84206  0.49062  0.41896  1.0000 0.3159026649
H   H16       1.0  0.49062  0.64856  0.91896  1.0000 0.3159026649
H   H17       1.0  0.35144  0.84206  0.91896  1.0000 0.3159026649
H   H18       1.0  0.15794  0.50938  0.91896  1.0000 0.3159026649
H   H19       1.0  0.55429  0.35675  0.45670  1.0000 0.3061703564
H   H20       1.0  0.64325  0.19754  0.45670  1.0000 0.3061703564
H   H21       1.0  0.80246  0.44571  0.45670  1.0000 0.3061703564
H   H22       1.0  0.44571  0.64325  0.95670  1.0000 0.3061703564
H   H23       1.0  0.35675  0.80246  0.95670  1.0000 0.3061703564
H   H24       1.0  0.19754  0.55429  0.95670  1.0000 0.3061703564
H   H25       1.0  0.51106  0.39474  0.45670  1.0000 0.3061703564
H   H26       1.0  0.60526  0.11632  0.45670  1.0000 0.3061703564
H   H27       1.0  0.88368  0.48894  0.45670  1.0000 0.3061703564
H   H28       1.0  0.48894  0.60526  0.95670  1.0000 0.3061703564
H   H29       1.0  0.39474  0.88368  0.95670  1.0000 0.3061703564
H   H30       1.0  0.11632  0.51106  0.95670  1.0000 0.3061703564
H   H31       1.0  0.09536  0.52228  0.32028  1.0000 0.1205970846
H   H32       1.0  0.47772  0.57308  0.32028  1.0000 0.1205970846
H   H33       1.0  0.42692  0.90464  0.32028  1.0000 0.1205970846
H   H34       1.0  0.90464  0.47772  0.82028  1.0000 0.1205970846
H   H35       1.0  0.52228  0.42692  0.82028  1.0000 0.1205970846
H   H36       1.0  0.57308  0.09536  0.82028  1.0000 0.1205970846
H   H37       1.0  0.26389  0.51487  0.46423  1.0000 0.1303575526
H   H38       1.0  0.48513  0.74902  0.46423  1.0000 0.1303575526
H   H39       1.0  0.25098  0.73611  0.46423  1.0000 0.1303575526
H   H40       1.0  0.73611  0.48513  0.96423  1.0000 0.1303575526
H   H41       1.0  0.51487  0.25098  0.96423  1.0000 0.1303575526
H   H42       1.0  0.74902  0.26389  0.96423  1.0000 0.1303575526
H   H43       1.0  0.18608  0.48474  0.48668  1.0000 0.1303575526
H   H44       1.0  0.51526  0.70134  0.48668  1.0000 0.1303575526
H   H45       1.0  0.29866  0.81392  0.48668  1.0000 0.1303575526
H   H46       1.0  0.81392  0.51526  0.98668  1.0000 0.1303575526
H   H47       1.0  0.48474  0.29866  0.98668  1.0000 0.1303575526
H   H48       1.0  0.70134  0.18608  0.98668  1.0000 0.1303575526
H   H49       1.0  0.18060  0.81037  0.73370  1.0000 0.1205970846
H   H50       1.0  0.18963  0.37023  0.73370  1.0000 0.1205970846
H   H51       1.0  0.62977  0.81940  0.73370  1.0000 0.1205970846
H   H52       1.0  0.81940  0.18963  0.23370  1.0000 0.1205970846
H   H53       1.0  0.81037  0.62977  0.23370  1.0000 0.1205970846
H   H54       1.0  0.37023  0.18060  0.23370  1.0000 0.1205970846
H   H55       1.0  0.46650  0.06362  0.41318  1.0000 0.1482128414
H   H56       1.0  0.93638  0.40288  0.41318  1.0000 0.1482128414
H   H57       1.0  0.59712  0.53350  0.41318  1.0000 0.1482128414
H   H58       1.0  0.53350  0.93638  0.91318  1.0000 0.1482128414
H   H59       1.0  0.06362  0.59712  0.91318  1.0000 0.1482128414
H   H60       1.0  0.40288  0.46650  0.91318  1.0000 0.1482128414
H   H61       1.0  0.12829  0.54532  0.69875  1.0000 0.1205970846
H   H62       1.0  0.45468  0.58297  0.69875  1.0000 0.1205970846
H   H63       1.0  0.41703  0.87171  0.69875  1.0000 0.1205970846
H   H64       1.0  0.87171  0.45468  0.19875  1.0000 0.1205970846
H   H65       1.0  0.54532  0.41703  0.19875  1.0000 0.1205970846
H   H66       1.0  0.58297  0.12829  0.19875  1.0000 0.1205970846
H   H67       1.0  0.31651  0.90160  0.06690  1.0000 0.1303575526
H   H68       1.0  0.09840  0.41491  0.06690  1.0000 0.1303575526
H   H69       1.0  0.58509  0.68349  0.06690  1.0000 0.1303575526
H   H70       1.0  0.68349  0.09840  0.56690  1.0000 0.1205970846
H   H71       1.0  0.90160  0.58509  0.56690  1.0000 0.1205970846
H   H72       1.0  0.41491  0.31651  0.56690  1.0000 0.1205970846
H   H73       1.0  0.26313  0.99259  0.36534  1.0000 0.1303575526
H   H74       1.0  0.00741  0.27054  0.36534  1.0000 0.1303575526
H   H75       1.0  0.72946  0.73687  0.36534  1.0000 0.1303575526
H   H76       1.0  0.73687  0.00741  0.86534  1.0000 0.1303575526
H   H77       1.0  0.99259  0.72946  0.86534  1.0000 0.1303575526
H   H78       1.0  0.27054  0.26313  0.86534  1.0000 0.1303575526
H   H79       1.0  0.22291  0.92720  0.30028  1.0000 0.1137153592
H   H80       1.0  0.07280  0.29571  0.30028  1.0000 0.1137153592
H   H81       1.0  0.70429  0.77709  0.30028  1.0000 0.1137153592
H   H82       1.0  0.77709  0.07280  0.80028  1.0000 0.1137153592
H   H83       1.0  0.92720  0.70429  0.80028  1.0000 0.1137153592
H   H84       1.0  0.29571  0.22291  0.80028  1.0000 0.1137153592
H   H85       1.0  0.43158  0.04373  0.25261  1.0000 0.1205970846
H   H86       1.0  0.95627  0.38785  0.25261  1.0000 0.1205970846
H   H87       1.0  0.61215  0.56842  0.25261  1.0000 0.1205970846
H   H88       1.0  0.56842  0.95627  0.75261  1.0000 0.1205970846
H   H89       1.0  0.04373  0.61215  0.75261  1.0000 0.1205970846
H   H90       1.0  0.38785  0.43158  0.75261  1.0000 0.1205970846
H   H91       1.0  0.47180  0.10912  0.31766  1.0000 0.1482128414
H   H92       1.0  0.89088  0.36268  0.31766  1.0000 0.1482128414
H   H93       1.0  0.63732  0.52820  0.31766  1.0000 0.1482128414
H   H94       1.0  0.52820  0.89088  0.81766  1.0000 0.1482128414
H   H95       1.0  0.10912  0.63732  0.81766  1.0000 0.1482128414
H   H96       1.0  0.36268  0.47180  0.81766  1.0000 0.1482128414
H   H97       1.0  0.87529  0.39347  0.61162  1.0000 0.1137153592
H   H98       1.0  0.60653  0.48182  0.61162  1.0000 0.1137153592
H   H99       1.0  0.51818  0.12471  0.61162  1.0000 0.1137153592
H   H100      1.0  0.12471  0.60653  0.11162  1.0000 0.1137153592
H   H101      1.0  0.39347  0.51818  0.11162  1.0000 0.1137153592
H   H102      1.0  0.48182  0.87529  0.11162  1.0000 0.1137153592
H   H103      1.0  0.08468  0.67288  0.58336  1.0000 0.1205970846
H   H104      1.0  0.32712  0.41180  0.58336  1.0000 0.1205970846
H   H105      1.0  0.58820  0.91532  0.58336  1.0000 0.1205970846
H   H106      1.0  0.91532  0.32712  0.08336  1.0000 0.1205970846
H   H107      1.0  0.67288  0.58820  0.08336  1.0000 0.1205970846
H   H108      1.0  0.41180  0.08468  0.08336  1.0000 0.1205970846
H   H109      1.0  0.35315  0.16599  0.38775  1.0000 0.1303575526
H   H110      1.0  0.83401  0.18716  0.38775  1.0000 0.1303575526
H   H111      1.0  0.81284  0.64685  0.38775  1.0000 0.1303575526
H   H112      1.0  0.64685  0.83401  0.88775  1.0000 0.1303575526
H   H113      1.0  0.16599  0.81284  0.88775  1.0000 0.1303575526
H   H114      1.0  0.18716  0.35315  0.88775  1.0000 0.1303575526
H   H115      1.0  0.02837  0.74286  0.57385  1.0000 0.1137153592
H   H116      1.0  0.25714  0.28551  0.57385  1.0000 0.1205970846
H   H117      1.0  0.71449  0.97163  0.57385  1.0000 0.1205970846
H   H118      1.0  0.97163  0.25714  0.07385  1.0000 0.1137153592
H   H119      1.0  0.74286  0.71449  0.07385  1.0000 0.1205970846
H   H120      1.0  0.28551  0.02837  0.07385  1.0000 0.1205970846
H   H121      1.0  0.49181  0.15443  0.47090  1.0000 0.1362670607
H   H122      1.0  0.84557  0.33738  0.47090  1.0000 0.1362670607
H   H123      1.0  0.66262  0.50819  0.47090  1.0000 0.1362670607
H   H124      1.0  0.50819  0.84557  0.97090  1.0000 0.1362670607
H   H125      1.0  0.15443  0.66262  0.97090  1.0000 0.1362670607
H   H126      1.0  0.33738  0.49181  0.97090  1.0000 0.1362670607
H   H127      1.0  0.29079  0.46699  0.39711  1.0000 0.1205970846
H   H128      1.0  0.53301  0.82380  0.39711  1.0000 0.1205970846
H   H129      1.0  0.17620  0.70921  0.39711  1.0000 0.1205970846
H   H130      1.0  0.70921  0.53301  0.89711  1.0000 0.1205970846
H   H131      1.0  0.46699  0.17620  0.89711  1.0000 0.1205970846
H   H132      1.0  0.82380  0.29079  0.89711  1.0000 0.1205970846
H   H133      1.0  0.17679  0.49691  0.27370  1.0000 0.1205970846
H   H134      1.0  0.50309  0.67988  0.27370  1.0000 0.1205970846
H   H135      1.0  0.32012  0.82321  0.27370  1.0000 0.1205970846
H   H136      1.0  0.82321  0.50309  0.77370  1.0000 0.1205970846
H   H137      1.0  0.49691  0.32012  0.77370  1.0000 0.1205970846
H   H138      1.0  0.67988  0.17679  0.77370  1.0000 0.1205970846
H   H139      1.0  0.19302  0.21506  0.46441  1.0000 0.1205970846
H   H140      1.0  0.78494  0.97796  0.46441  1.0000 0.1205970846
H   H141      1.0  0.02204  0.80698  0.46441  1.0000 0.1205970846
H   H142      1.0  0.80698  0.78494  0.96441  1.0000 0.1205970846
H   H143      1.0  0.21506  0.02204  0.96441  1.0000 0.1205970846
H   H144      1.0  0.97796  0.19302  0.96441  1.0000 0.1205970846
H   H145      1.0  0.06382  0.47540  0.75887  1.0000 0.1303575526
H   H146      1.0  0.52460  0.58842  0.75887  1.0000 0.1303575526
H   H147      1.0  0.41158  0.93618  0.75887  1.0000 0.1303575526
H   H148      1.0  0.93618  0.52460  0.25887  1.0000 0.1303575526
H   H149      1.0  0.47540  0.41158  0.25887  1.0000 0.1303575526
H   H150      1.0  0.58842  0.06382  0.25887  1.0000 0.1303575526
H   H151      1.0  0.32664  0.45334  0.32853  1.0000 0.1137153592
H   H152      1.0  0.54666  0.87330  0.32853  1.0000 0.1137153592
H   H153      1.0  0.12670  0.67336  0.32853  1.0000 0.1137153592
H   H154      1.0  0.67336  0.54666  0.82853  1.0000 0.1137153592
H   H155      1.0  0.45334  0.12670  0.82853  1.0000 0.1137153592
H   H156      1.0  0.87330  0.32664  0.82853  1.0000 0.1137153592
H   H157      1.0  0.06627  0.38228  0.46764  1.0000 0.1205970846
H   H158      1.0  0.61772  0.68399  0.46764  1.0000 0.1205970846
H   H159      1.0  0.31601  0.93373  0.46764  1.0000 0.1205970846
H   H160      1.0  0.93373  0.61772  0.96764  1.0000 0.1205970846
H   H161      1.0  0.38228  0.31601  0.96764  1.0000 0.1205970846
H   H162      1.0  0.68399  0.06627  0.96764  1.0000 0.1205970846
H   H163      1.0  0.95471  0.27365  0.46777  1.0000 0.1022976075
H   H164      1.0  0.72635  0.68106  0.46777  1.0000 0.1022976075
H   H165      1.0  0.31894  0.04529  0.46777  1.0000 0.1022976075
H   H166      1.0  0.04529  0.72635  0.96777  1.0000 0.1022976075
H   H167      1.0  0.27365  0.31894  0.96777  1.0000 0.1022976075
H   H168      1.0  0.68106  0.95471  0.96777  1.0000 0.1022976075
H   H169      1.0  0.27351  0.47352  0.26690  1.0000 0.1137153592
H   H170      1.0  0.52648  0.79999  0.26690  1.0000 0.1137153592
H   H171      1.0  0.20001  0.72649  0.26690  1.0000 0.1137153592
H   H172      1.0  0.72649  0.52648  0.76690  1.0000 0.1137153592
H   H173      1.0  0.47352  0.20001  0.76690  1.0000 0.1137153592
H   H174      1.0  0.79999  0.27351  0.76690  1.0000 0.1137153592
H   H175      1.0  0.09661  0.83698  0.69028  1.0000 0.1205970846
H   H176      1.0  0.16302  0.25963  0.69028  1.0000 0.1205970846
H   H177      1.0  0.74037  0.90339  0.69028  1.0000 0.1205970846
H   H178      1.0  0.90339  0.16302  0.19028  1.0000 0.1205970846
H   H179      1.0  0.83698  0.74037  0.19028  1.0000 0.1205970846
H   H180      1.0  0.25963  0.09661  0.19028  1.0000 0.1205970846
H   H181      1.0  0.93620  0.39072  0.75566  1.0000 0.1205970846
H   H182      1.0  0.60928  0.54548  0.75566  1.0000 0.1205970846
H   H183      1.0  0.45452  0.06380  0.75566  1.0000 0.1205970846
H   H184      1.0  0.06380  0.60928  0.25566  1.0000 0.1205970846
H   H185      1.0  0.39072  0.45452  0.25566  1.0000 0.1205970846
H   H186      1.0  0.54548  0.93620  0.25566  1.0000 0.1205970846
H   H187      1.0  0.87410  0.36900  0.69059  1.0000 0.1137153592
H   H188      1.0  0.63100  0.50510  0.69059  1.0000 0.1137153592
H   H189      1.0  0.49490  0.12590  0.69059  1.0000 0.1137153592
H   H190      1.0  0.12590  0.63100  0.19059  1.0000 0.1137153592
H   H191      1.0  0.36900  0.49490  0.19059  1.0000 0.1137153592
H   H192      1.0  0.50510  0.87410  0.19059  1.0000 0.1137153592
H   H193      1.0  0.03353  0.82426  0.62723  1.0000 0.1137153592
H   H194      1.0  0.17574  0.20927  0.62723  1.0000 0.1137153592
H   H195      1.0  0.79073  0.96647  0.62723  1.0000 0.1137153592
H   H196      1.0  0.96647  0.17574  0.12723  1.0000 0.1137153592
H   H197      1.0  0.82426  0.79073  0.12723  1.0000 0.1137153592
H   H198      1.0  0.20927  0.03353  0.12723  1.0000 0.1137153592
H   H199      1.0  0.18736  0.88765  0.23860  1.0000 0.1137153592
H   H200      1.0  0.11235  0.29971  0.23860  1.0000 0.1137153592
H   H201      1.0  0.70029  0.81264  0.23860  1.0000 0.1137153592
H   H202      1.0  0.81264  0.11235  0.73860  1.0000 0.1137153592
H   H203      1.0  0.88765  0.70029  0.73860  1.0000 0.1137153592
H   H204      1.0  0.29971  0.18736  0.73860  1.0000 0.1137153592
H   H205      1.0  0.14763  0.83035  0.17092  1.0000 0.1303575526
H   H206      1.0  0.16965  0.31728  0.17092  1.0000 0.1303575526
H   H207      1.0  0.68272  0.85237  0.17092  1.0000 0.1303575526
H   H208      1.0  0.85237  0.16965  0.67092  1.0000 0.1303575526
H   H209      1.0  0.83035  0.68272  0.67092  1.0000 0.1303575526
H   H210      1.0  0.31728  0.14763  0.67092  1.0000 0.1303575526
H   H211      1.0  0.11934  0.74557  0.11245  1.0000 0.1362670607
H   H212      1.0  0.25443  0.37377  0.11245  1.0000 0.1362670607
H   H213      1.0  0.62623  0.88066  0.11245  1.0000 0.1362670607
H   H214      1.0  0.88066  0.25443  0.61245  1.0000 0.1303575526
H   H215      1.0  0.74557  0.62623  0.61245  1.0000 0.1303575526
H   H216      1.0  0.37377  0.11934  0.61245  1.0000 0.1303575526
H   H217      1.0  0.12730  0.72436  0.03551  1.0000 0.1303575526
H   H218      1.0  0.27564  0.40294  0.03551  1.0000 0.1303575526
H   H219      1.0  0.59706  0.87270  0.03551  1.0000 0.1303575526
H   H220      1.0  0.87270  0.27564  0.53551  1.0000 0.1303575526
H   H221      1.0  0.72436  0.59706  0.53551  1.0000 0.1303575526
H   H222      1.0  0.40294  0.12730  0.53551  1.0000 0.1303575526
H   H223      1.0  0.36067  0.92376  0.13318  1.0000 0.1303575526
H   H224      1.0  0.07624  0.43691  0.13318  1.0000 0.1303575526
H   H225      1.0  0.56309  0.63933  0.13318  1.0000 0.1303575526
H   H226      1.0  0.63933  0.07624  0.63318  1.0000 0.1303575526
H   H227      1.0  0.92376  0.56309  0.63318  1.0000 0.1303575526
H   H228      1.0  0.43691  0.36067  0.63318  1.0000 0.1303575526
H   H229      1.0  0.94882  0.15825  0.45950  1.0000 0.1205970846
H   H230      1.0  0.84175  0.79057  0.45950  1.0000 0.1205970846
H   H231      1.0  0.20943  0.05118  0.45950  1.0000 0.1205970846
H   H232      1.0  0.05118  0.84175  0.95950  1.0000 0.1205970846
H   H233      1.0  0.15825  0.20943  0.95950  1.0000 0.1205970846
H   H234      1.0  0.79057  0.94882  0.95950  1.0000 0.1205970846
H   H235      1.0  0.05264  0.14941  0.46330  1.0000 0.1205970846
H   H236      1.0  0.85059  0.90323  0.46330  1.0000 0.1205970846
H   H237      1.0  0.09677  0.94736  0.46330  1.0000 0.1205970846
H   H238      1.0  0.94736  0.85059  0.96330  1.0000 0.1205970846
H   H239      1.0  0.14941  0.09677  0.96330  1.0000 0.1205970846
H   H240      1.0  0.90323  0.05264  0.96330  1.0000 0.1205970846
H   H241      1.0  0.39798  0.96691  0.20146  1.0000 0.1137153592
H   H242      1.0  0.03309  0.43107  0.20146  1.0000 0.1137153592
H   H243      1.0  0.56893  0.60202  0.20146  1.0000 0.1137153592
H   H244      1.0  0.60202  0.03309  0.70146  1.0000 0.1137153592
H   H245      1.0  0.96691  0.56893  0.70146  1.0000 0.1137153592
H   H246      1.0  0.43107  0.39798  0.70146  1.0000 0.1137153592
C   C1        1.0  0.16690  0.67160  0.65065  1.0000 -0.0222057609
C   C2        1.0  0.32840  0.49530  0.65065  1.0000 -0.0222057609
C   C3        1.0  0.50470  0.83310  0.65065  1.0000 -0.0222057609
C   C4        1.0  0.83310  0.32840  0.15065  1.0000 -0.0222057609
C   C5        1.0  0.67160  0.50470  0.15065  1.0000 -0.0222057609
C   C6        1.0  0.49530  0.16690  0.15065  1.0000 -0.0222057609
C   C7        1.0  0.03310  0.54450  0.38652  1.0000 0.589865704
C   C8        1.0  0.45550  0.48860  0.38652  1.0000 0.589865704
C   C9        1.0  0.51140  0.96690  0.38652  1.0000 0.589865704
C   C10       1.0  0.96690  0.45550  0.88652  1.0000 0.589865704
C   C11       1.0  0.54450  0.51140  0.88652  1.0000 0.589865704
C   C12       1.0  0.48860  0.03310  0.88652  1.0000 0.589865704
C   C13       1.0  0.21350  0.68790  0.68730  1.0000 0.2508067833
C   C14       1.0  0.31210  0.52560  0.68730  1.0000 0.2508067833
C   C15       1.0  0.47440  0.78650  0.68730  1.0000 0.2508067833
C   C16       1.0  0.78650  0.31210  0.18730  1.0000 0.2508067833
C   C17       1.0  0.68790  0.47440  0.18730  1.0000 0.2508067833
C   C18       1.0  0.52560  0.21350  0.18730  1.0000 0.2508067833
C   C19       1.0  0.33030  0.31830  0.47620  1.0000 0.611672719
C   C20       1.0  0.68170  0.01200  0.47620  1.0000 0.611672719
C   C21       1.0  0.98800  0.66970  0.47620  1.0000 0.611672719
C   C22       1.0  0.66970  0.68170  0.97620  1.0000 0.611672719
C   C23       1.0  0.31830  0.98800  0.97620  1.0000 0.611672719
C   C24       1.0  0.01200  0.33030  0.97620  1.0000 0.611672719
C   C25       1.0  0.91970  0.44910  0.53439  1.0000 0.589865704
C   C26       1.0  0.55090  0.47060  0.53439  1.0000 0.589865704
C   C27       1.0  0.52940  0.08030  0.53439  1.0000 0.589865704
C   C28       1.0  0.08030  0.55090  0.03439  1.0000 0.589865704
C   C29       1.0  0.44910  0.52940  0.03439  1.0000 0.589865704
C   C30       1.0  0.47060  0.91970  0.03439  1.0000 0.589865704
C   C31       1.0  0.15650  0.60900  0.62011  1.0000 -0.2431685779
C   C32       1.0  0.39100  0.54750  0.62011  1.0000 -0.2431685779
C   C33       1.0  0.45250  0.84350  0.62011  1.0000 -0.2431685779
C   C34       1.0  0.84350  0.39100  0.12011  1.0000 -0.2431685779
C   C35       1.0  0.60900  0.45250  0.12011  1.0000 -0.2431685779
C   C36       1.0  0.54750  0.15650  0.12011  1.0000 -0.2431685779
C   C37       1.0  0.17390  0.49850  0.34044  1.0000 0.060236316
C   C38       1.0  0.50150  0.67540  0.34044  1.0000 0.060236316
C   C39       1.0  0.32460  0.82610  0.34044  1.0000 0.060236316
C   C40       1.0  0.82610  0.50150  0.84044  1.0000 0.060236316
C   C41       1.0  0.49850  0.32460  0.84044  1.0000 0.060236316
C   C42       1.0  0.67540  0.17390  0.84044  1.0000 0.060236316
C   C43       1.0  0.18050  0.49220  0.42053  1.0000 -0.0222057609
C   C44       1.0  0.50780  0.68830  0.42053  1.0000 -0.0222057609
C   C45       1.0  0.31170  0.81950  0.42053  1.0000 -0.0222057609
C   C46       1.0  0.81950  0.50780  0.92053  1.0000 -0.0222057609
C   C47       1.0  0.49220  0.31170  0.92053  1.0000 -0.0222057609
C   C48       1.0  0.68830  0.18050  0.92053  1.0000 -0.0222057609
C   C49       1.0  0.96230  0.46890  0.57611  1.0000 -0.1608704304
C   C50       1.0  0.53110  0.49340  0.57611  1.0000 -0.1608704304
C   C51       1.0  0.50660  0.03770  0.57611  1.0000 -0.1608704304
C   C52       1.0  0.03770  0.53110  0.07611  1.0000 -0.1608704304
C   C53       1.0  0.46890  0.50660  0.07611  1.0000 -0.1608704304
C   C54       1.0  0.49340  0.96230  0.07611  1.0000 -0.1608704304
C   C55       1.0  0.12720  0.51470  0.42333  1.0000 0.2508067833
C   C56       1.0  0.48530  0.61250  0.42333  1.0000 0.2508067833
C   C57       1.0  0.38750  0.87280  0.42333  1.0000 0.2508067833
C   C58       1.0  0.87280  0.48530  0.92333  1.0000 0.2508067833
C   C59       1.0  0.51470  0.38750  0.92333  1.0000 0.2508067833
C   C60       1.0  0.61250  0.12720  0.92333  1.0000 0.2508067833
C   C61       1.0  0.26740  0.39610  0.47081  1.0000 0.2604870594
C   C62       1.0  0.60390  0.87130  0.47081  1.0000 0.2604870594
C   C63       1.0  0.12870  0.73260  0.47081  1.0000 0.2604870594
C   C64       1.0  0.73260  0.60390  0.97081  1.0000 0.2604870594
C   C65       1.0  0.39610  0.12870  0.97081  1.0000 0.2604870594
C   C66       1.0  0.87130  0.26740  0.97081  1.0000 0.2604870594
C   C67       1.0  0.13140  0.71340  0.64300  1.0000 0.0403129685
C   C68       1.0  0.28660  0.41800  0.64300  1.0000 0.0403129685
C   C69       1.0  0.58200  0.86860  0.64300  1.0000 0.0403129685
C   C70       1.0  0.86860  0.28660  0.14300  1.0000 0.0403129685
C   C71       1.0  0.71340  0.58200  0.14300  1.0000 0.0403129685
C   C72       1.0  0.41800  0.13140  0.14300  1.0000 0.0403129685
C   C73       1.0  0.26260  0.75490  0.75987  1.0000 0.611672719
C   C74       1.0  0.24510  0.50770  0.75987  1.0000 0.611672719
C   C75       1.0  0.49230  0.73740  0.75987  1.0000 0.611672719
C   C76       1.0  0.73740  0.24510  0.25987  1.0000 0.6046628948
C   C77       1.0  0.75490  0.49230  0.25987  1.0000 0.6046628948
C   C78       1.0  0.50770  0.26260  0.25987  1.0000 0.6046628948
C   C79       1.0  0.20700  0.48650  0.37871  1.0000 0.0483387258
C   C80       1.0  0.51350  0.72050  0.37871  1.0000 0.0483387258
C   C81       1.0  0.27950  0.79300  0.37871  1.0000 0.0483387258
C   C82       1.0  0.79300  0.51350  0.87871  1.0000 0.0483387258
C   C83       1.0  0.48650  0.27950  0.87871  1.0000 0.0483387258
C   C84       1.0  0.72050  0.20700  0.87871  1.0000 0.0483387258
C   C85       1.0  0.21950  0.74070  0.71875  1.0000 -0.1492597685
C   C86       1.0  0.25930  0.47880  0.71875  1.0000 -0.1492597685
C   C87       1.0  0.52120  0.78050  0.71875  1.0000 -0.1492597685
C   C88       1.0  0.78050  0.25930  0.21875  1.0000 -0.1492597685
C   C89       1.0  0.74070  0.52120  0.21875  1.0000 -0.1492597685
C   C90       1.0  0.47880  0.21950  0.21875  1.0000 -0.1492597685
C   C91       1.0  0.20340  0.40140  0.46556  1.0000 -0.0222057609
C   C92       1.0  0.59860  0.80200  0.46556  1.0000 -0.0222057609
C   C93       1.0  0.19800  0.79660  0.46556  1.0000 -0.0222057609
C   C94       1.0  0.79660  0.59860  0.96556  1.0000 -0.0222057609
C   C95       1.0  0.40140  0.19800  0.96556  1.0000 -0.0222057609
C   C96       1.0  0.80200  0.20340  0.96556  1.0000 -0.0222057609
C   C97       1.0  0.03820  0.52650  0.57899  1.0000 0.2403614517
C   C98       1.0  0.47350  0.51170  0.57899  1.0000 0.2403614517
C   C99       1.0  0.48830  0.96180  0.57899  1.0000 0.2403614517
C   C100      1.0  0.96180  0.47350  0.07899  1.0000 0.2403614517
C   C101      1.0  0.52650  0.48830  0.07899  1.0000 0.2403614517
C   C102      1.0  0.51170  0.03820  0.07899  1.0000 0.2403614517
C   C103      1.0  0.09440  0.52620  0.38515  1.0000 -0.1608704304
C   C104      1.0  0.47380  0.56820  0.38515  1.0000 -0.1608704304
C   C105      1.0  0.43180  0.90560  0.38515  1.0000 -0.1608704304
C   C106      1.0  0.90560  0.47380  0.88515  1.0000 -0.1608704304
C   C107      1.0  0.52620  0.43180  0.88515  1.0000 -0.1608704304
C   C108      1.0  0.56820  0.09440  0.88515  1.0000 -0.1608704304
C   C109      1.0  0.11770  0.51660  0.34514  1.0000 -0.1492597685
C   C110      1.0  0.48340  0.60110  0.34514  1.0000 -0.1492597685
C   C111      1.0  0.39890  0.88230  0.34514  1.0000 -0.1492597685
C   C112      1.0  0.88230  0.48340  0.84514  1.0000 -0.1400033028
C   C113      1.0  0.51660  0.39890  0.84514  1.0000 -0.1400033028
C   C114      1.0  0.60110  0.11770  0.84514  1.0000 -0.1400033028
C   C115      1.0  0.21130  0.47770  0.46203  1.0000 -0.249012858
C   C116      1.0  0.52230  0.73360  0.46203  1.0000 -0.249012858
C   C117      1.0  0.26640  0.78870  0.46203  1.0000 -0.249012858
C   C118      1.0  0.78870  0.52230  0.96203  1.0000 -0.249012858
C   C119      1.0  0.47770  0.26640  0.96203  1.0000 -0.249012858
C   C120      1.0  0.73360  0.21130  0.96203  1.0000 -0.249012858
C   C121      1.0  0.26300  0.32480  0.47082  1.0000 -0.1608704304
C   C122      1.0  0.67520  0.93820  0.47082  1.0000 -0.1608704304
C   C123      1.0  0.06180  0.73700  0.47082  1.0000 -0.1608704304
C   C124      1.0  0.73700  0.67520  0.97082  1.0000 -0.1608704304
C   C125      1.0  0.32480  0.06180  0.97082  1.0000 -0.1608704304
C   C126      1.0  0.93820  0.26300  0.97082  1.0000 -0.1608704304
C   C127      1.0  0.96310  0.44540  0.65385  1.0000 0.0483387258
C   C128      1.0  0.55460  0.51770  0.65385  1.0000 0.0483387258
C   C129      1.0  0.48230  0.03690  0.65385  1.0000 0.0483387258
C   C130      1.0  0.03690  0.55460  0.15385  1.0000 0.0483387258
C   C131      1.0  0.44540  0.48230  0.15385  1.0000 0.0483387258
C   C132      1.0  0.51770  0.96310  0.15385  1.0000 0.0483387258
C   C133      1.0  0.03930  0.50000  0.65605  1.0000 0.0403129685
C   C134      1.0  0.50000  0.53930  0.65605  1.0000 0.0403129685
C   C135      1.0  0.46070  0.96070  0.65605  1.0000 0.0403129685
C   C136      1.0  0.96070  0.50000  0.15605  1.0000 0.0403129685
C   C137      1.0  0.50000  0.46070  0.15605  1.0000 0.0403129685
C   C138      1.0  0.53930  0.03930  0.15605  1.0000 0.0403129685
C   C139      1.0  0.07650  0.54440  0.61826  1.0000 -0.0287568411
C   C140      1.0  0.45560  0.53210  0.61826  1.0000 -0.0287568411
C   C141      1.0  0.46790  0.92350  0.61826  1.0000 -0.0287568411
C   C142      1.0  0.92350  0.45560  0.11826  1.0000 -0.0287568411
C   C143      1.0  0.54440  0.46790  0.11826  1.0000 -0.0287568411
C   C144      1.0  0.53210  0.07650  0.11826  1.0000 -0.0287568411
C   C145      1.0  0.17890  0.77750  0.71240  1.0000 -0.1492597685
C   C146      1.0  0.22250  0.40140  0.71240  1.0000 -0.1492597685
C   C147      1.0  0.59860  0.82110  0.71240  1.0000 -0.1492597685
C   C148      1.0  0.82110  0.22250  0.21240  1.0000 -0.1492597685
C   C149      1.0  0.77750  0.59860  0.21240  1.0000 -0.1492597685
C   C150      1.0  0.40140  0.17890  0.21240  1.0000 -0.1492597685
C   C151      1.0  0.44700  0.09550  0.41509  1.0000 -0.0770970102
C   C152      1.0  0.90450  0.35150  0.41509  1.0000 -0.0770970102
C   C153      1.0  0.64850  0.55300  0.41509  1.0000 -0.0770970102
C   C154      1.0  0.55300  0.90450  0.91509  1.0000 -0.0770970102
C   C155      1.0  0.09550  0.64850  0.91509  1.0000 -0.0770970102
C   C156      1.0  0.35150  0.44700  0.91509  1.0000 -0.0770970102
C   C157      1.0  0.07760  0.51060  0.69659  1.0000 -0.1310023018
C   C158      1.0  0.48940  0.56700  0.69659  1.0000 -0.1310023018
C   C159      1.0  0.43300  0.92240  0.69659  1.0000 -0.1310023018
C   C160      1.0  0.92240  0.48940  0.19659  1.0000 -0.1310023018
C   C161      1.0  0.51060  0.43300  0.19659  1.0000 -0.1310023018
C   C162      1.0  0.56700  0.07760  0.19659  1.0000 -0.1310023018
C   C163      1.0  0.26980  0.85860  0.06860  1.0000 0.1303575526
C   C164      1.0  0.14140  0.41120  0.06860  1.0000 0.1303575526
C   C165      1.0  0.58880  0.73020  0.06860  1.0000 0.1303575526
C   C166      1.0  0.73020  0.14140  0.56860  1.0000 0.1303575526
C   C167      1.0  0.85860  0.58880  0.56860  1.0000 0.1303575526
C   C168      1.0  0.41120  0.26980  0.56860  1.0000 0.1303575526
C   C169      1.0  0.37150  0.05730  0.34795  1.0000 0.1574712243
C   C170      1.0  0.94270  0.31420  0.34795  1.0000 0.1574712243
C   C171      1.0  0.68580  0.62850  0.34795  1.0000 0.1574712243
C   C172      1.0  0.62850  0.94270  0.84795  1.0000 0.1574712243
C   C173      1.0  0.05730  0.68580  0.84795  1.0000 0.1574712243
C   C174      1.0  0.31420  0.37150  0.84795  1.0000 0.1574712243
C   C175      1.0  0.29690  0.00280  0.34274  1.0000 -0.1724915359
C   C176      1.0  0.99720  0.29410  0.34274  1.0000 -0.1724915359
C   C177      1.0  0.70590  0.70310  0.34274  1.0000 -0.1724915359
C   C178      1.0  0.70310  0.99720  0.84274  1.0000 -0.1724915359
C   C179      1.0  0.00280  0.70590  0.84274  1.0000 -0.1724915359
C   C180      1.0  0.29410  0.29690  0.84274  1.0000 -0.1724915359
C   C181      1.0  0.27280  0.96370  0.30380  1.0000 -0.1183875381
C   C182      1.0  0.03630  0.30910  0.30380  1.0000 -0.1183875381
C   C183      1.0  0.69090  0.72720  0.30380  1.0000 -0.1183875381
C   C184      1.0  0.72720  0.03630  0.80380  1.0000 -0.1183875381
C   C185      1.0  0.96370  0.69090  0.80380  1.0000 -0.1183875381
C   C186      1.0  0.30910  0.27280  0.80380  1.0000 -0.1183875381
C   C187      1.0  0.32330  0.97900  0.26999  1.0000 0.060236316
C   C188      1.0  0.02100  0.34430  0.26999  1.0000 0.060236316
C   C189      1.0  0.65570  0.67670  0.26999  1.0000 0.060236316
C   C190      1.0  0.67670  0.02100  0.76999  1.0000 0.060236316
C   C191      1.0  0.97900  0.65570  0.76999  1.0000 0.060236316
C   C192      1.0  0.34430  0.32330  0.76999  1.0000 0.060236316
C   C193      1.0  0.39780  0.03350  0.27520  1.0000 -0.1183875381
C   C194      1.0  0.96650  0.36430  0.27520  1.0000 -0.1183875381
C   C195      1.0  0.63570  0.60220  0.27520  1.0000 -0.1183875381
C   C196      1.0  0.60220  0.96650  0.77520  1.0000 -0.1183875381
C   C197      1.0  0.03350  0.63570  0.77520  1.0000 -0.1183875381
C   C198      1.0  0.36430  0.39780  0.77520  1.0000 -0.1183875381
C   C199      1.0  0.42190  0.07270  0.31418  1.0000 -0.1400033028
C   C200      1.0  0.92730  0.34920  0.31418  1.0000 -0.1400033028
C   C201      1.0  0.65080  0.57810  0.31418  1.0000 -0.1400033028
C   C202      1.0  0.57810  0.92730  0.81418  1.0000 -0.1400033028
C   C203      1.0  0.07270  0.65080  0.81418  1.0000 -0.1400033028
C   C204      1.0  0.34920  0.42190  0.81418  1.0000 -0.1400033028
C   C205      1.0  0.92540  0.43010  0.61327  1.0000 -0.1724915359
C   C206      1.0  0.56990  0.49530  0.61327  1.0000 -0.1724915359
C   C207      1.0  0.50470  0.07460  0.61327  1.0000 -0.1724915359
C   C208      1.0  0.07460  0.56990  0.11327  1.0000 -0.1724915359
C   C209      1.0  0.43010  0.50470  0.11327  1.0000 -0.1724915359
C   C210      1.0  0.49530  0.92540  0.11327  1.0000 -0.1724915359
C   C211      1.0  0.13610  0.76630  0.67530  1.0000 0.060236316
C   C212      1.0  0.23370  0.36980  0.67530  1.0000 0.060236316
C   C213      1.0  0.63020  0.86390  0.67530  1.0000 0.060236316
C   C214      1.0  0.86390  0.23370  0.17530  1.0000 0.060236316
C   C215      1.0  0.76630  0.63020  0.17530  1.0000 0.060236316
C   C216      1.0  0.36980  0.13610  0.17530  1.0000 0.060236316
C   C217      1.0  0.08910  0.70640  0.60500  1.0000 -0.1310023018
C   C218      1.0  0.29360  0.38270  0.60500  1.0000 -0.1310023018
C   C219      1.0  0.61730  0.91090  0.60500  1.0000 -0.1310023018
C   C220      1.0  0.91090  0.29360  0.10500  1.0000 -0.1310023018
C   C221      1.0  0.70640  0.61730  0.10500  1.0000 -0.1310023018
C   C222      1.0  0.38270  0.08910  0.10500  1.0000 -0.1310023018
C   C223      1.0  0.38460  0.15210  0.40133  1.0000 0.1022976075
C   C224      1.0  0.84790  0.23250  0.40133  1.0000 0.1022976075
C   C225      1.0  0.76750  0.61540  0.40133  1.0000 0.1022976075
C   C226      1.0  0.61540  0.84790  0.90133  1.0000 0.1022976075
C   C227      1.0  0.15210  0.76750  0.90133  1.0000 0.1022976075
C   C228      1.0  0.23250  0.38460  0.90133  1.0000 0.1022976075
C   C229      1.0  0.29750  0.93950  0.22651  1.0000 0.0711927075
C   C230      1.0  0.06050  0.35800  0.22651  1.0000 0.0711927075
C   C231      1.0  0.64200  0.70250  0.22651  1.0000 0.0711927075
C   C232      1.0  0.70250  0.06050  0.72651  1.0000 0.0711927075
C   C233      1.0  0.93950  0.64200  0.72651  1.0000 0.0711927075
C   C234      1.0  0.35800  0.29750  0.72651  1.0000 0.0711927075
C   C235      1.0  0.05450  0.74780  0.59950  1.0000 -0.1005450004
C   C236      1.0  0.25220  0.30670  0.59950  1.0000 -0.1005450004
C   C237      1.0  0.69330  0.94550  0.59950  1.0000 -0.1005450004
C   C238      1.0  0.94550  0.25220  0.09950  1.0000 -0.1005450004
C   C239      1.0  0.74780  0.69330  0.09950  1.0000 -0.1005450004
C   C240      1.0  0.30670  0.05450  0.09950  1.0000 -0.1005450004
C   C241      1.0  0.46070  0.14550  0.44704  1.0000 -0.0458239345
C   C242      1.0  0.85450  0.31520  0.44704  1.0000 -0.0458239345
C   C243      1.0  0.68480  0.53930  0.44704  1.0000 -0.0458239345
C   C244      1.0  0.53930  0.85450  0.94704  1.0000 -0.0458239345
C   C245      1.0  0.14550  0.68480  0.94704  1.0000 -0.0458239345
C   C246      1.0  0.31520  0.46070  0.94704  1.0000 -0.0458239345
C   C247      1.0  0.13320  0.33500  0.46470  1.0000 0.0483387258
C   C248      1.0  0.66500  0.79820  0.46470  1.0000 0.0483387258
C   C249      1.0  0.20180  0.86680  0.46470  1.0000 0.0483387258
C   C250      1.0  0.86680  0.66500  0.96470  1.0000 0.0483387258
C   C251      1.0  0.33500  0.20180  0.96470  1.0000 0.0483387258
C   C252      1.0  0.79820  0.13320  0.96470  1.0000 0.0483387258
C   C253      1.0  0.26660  0.47200  0.37290  1.0000 -0.1183875381
C   C254      1.0  0.52800  0.79460  0.37290  1.0000 -0.1183875381
C   C255      1.0  0.20540  0.73340  0.37290  1.0000 -0.1183875381
C   C256      1.0  0.73340  0.52800  0.87290  1.0000 -0.1183875381
C   C257      1.0  0.47200  0.20540  0.87290  1.0000 -0.1183875381
C   C258      1.0  0.79460  0.26660  0.87290  1.0000 -0.1183875381
C   C259      1.0  0.19930  0.49130  0.29853  1.0000 -0.1400033028
C   C260      1.0  0.50870  0.70800  0.29853  1.0000 -0.1400033028
C   C261      1.0  0.29200  0.80070  0.29853  1.0000 -0.1400033028
C   C262      1.0  0.80070  0.50870  0.79853  1.0000 -0.1400033028
C   C263      1.0  0.49130  0.29200  0.79853  1.0000 -0.1400033028
C   C264      1.0  0.70800  0.19930  0.79853  1.0000 -0.1400033028
C   C265      1.0  0.25230  0.86700  0.14670  1.0000 0.1482128414
C   C266      1.0  0.13300  0.38530  0.14670  1.0000 0.1482128414
C   C267      1.0  0.61470  0.74770  0.14670  1.0000 0.1482128414
C   C268      1.0  0.74770  0.13300  0.64670  1.0000 0.1482128414
C   C269      1.0  0.86700  0.61470  0.64670  1.0000 0.1482128414
C   C270      1.0  0.38530  0.25230  0.64670  1.0000 0.1482128414
C   C271      1.0  0.19510  0.26100  0.46630  1.0000 -0.1492597685
C   C272      1.0  0.73900  0.93410  0.46630  1.0000 -0.1492597685
C   C273      1.0  0.06590  0.80490  0.46630  1.0000 -0.1492597685
C   C274      1.0  0.80490  0.73900  0.96630  1.0000 -0.1492597685
C   C275      1.0  0.26100  0.06590  0.96630  1.0000 -0.1492597685
C   C276      1.0  0.93410  0.19510  0.96630  1.0000 -0.1492597685
C   C277      1.0  0.03850  0.46870  0.73274  1.0000 -0.0696223878
C   C278      1.0  0.53130  0.56980  0.73274  1.0000 -0.0696223878
C   C279      1.0  0.43020  0.96150  0.73274  1.0000 -0.0696223878
C   C280      1.0  0.96150  0.53130  0.23274  1.0000 -0.0696223878
C   C281      1.0  0.46870  0.43020  0.23274  1.0000 -0.0696223878
C   C282      1.0  0.56980  0.03850  0.23274  1.0000 -0.0696223878
C   C283      1.0  0.28910  0.46540  0.33170  1.0000 -0.089208864
C   C284      1.0  0.53460  0.82370  0.33170  1.0000 -0.089208864
C   C285      1.0  0.17630  0.71090  0.33170  1.0000 -0.089208864
C   C286      1.0  0.71090  0.53460  0.83170  1.0000 -0.089208864
C   C287      1.0  0.46540  0.17630  0.83170  1.0000 -0.089208864
C   C288      1.0  0.82370  0.28910  0.83170  1.0000 -0.089208864
C   C289      1.0  0.06510  0.33680  0.46630  1.0000 -0.1310023018
C   C290      1.0  0.66320  0.72830  0.46630  1.0000 -0.1310023018
C   C291      1.0  0.27170  0.93490  0.46630  1.0000 -0.1310023018
C   C292      1.0  0.93490  0.66320  0.96630  1.0000 -0.1310023018
C   C293      1.0  0.33680  0.27170  0.96630  1.0000 -0.1310023018
C   C294      1.0  0.72830  0.06510  0.96630  1.0000 -0.1310023018
C   C295      1.0  0.99880  0.27200  0.46580  1.0000 -0.1005450004
C   C296      1.0  0.72800  0.72680  0.46580  1.0000 -0.1005450004
C   C297      1.0  0.27320  0.00120  0.46580  1.0000 -0.1005450004
C   C298      1.0  0.00120  0.72800  0.96580  1.0000 -0.1005450004
C   C299      1.0  0.27200  0.27320  0.96580  1.0000 -0.1005450004
C   C300      1.0  0.72680  0.99880  0.96580  1.0000 -0.1005450004
C   C301      1.0  0.25630  0.47640  0.29440  1.0000 -0.107426188
C   C302      1.0  0.52360  0.77990  0.29440  1.0000 -0.107426188
C   C303      1.0  0.22010  0.74370  0.29440  1.0000 -0.107426188
C   C304      1.0  0.74370  0.52360  0.79440  1.0000 -0.107426188
C   C305      1.0  0.47640  0.22010  0.79440  1.0000 -0.107426188
C   C306      1.0  0.77990  0.25630  0.79440  1.0000 -0.107426188
C   C307      1.0  0.09620  0.80530  0.66860  1.0000 -0.1400033028
C   C308      1.0  0.19470  0.29090  0.66860  1.0000 -0.1400033028
C   C309      1.0  0.70910  0.90380  0.66860  1.0000 -0.1400033028
C   C310      1.0  0.90380  0.19470  0.16860  1.0000 -0.1400033028
C   C311      1.0  0.80530  0.70910  0.16860  1.0000 -0.1400033028
C   C312      1.0  0.29090  0.09620  0.16860  1.0000 -0.1400033028
C   C313      1.0  0.96170  0.41660  0.73080  1.0000 -0.1005450004
C   C314      1.0  0.58340  0.54510  0.73080  1.0000 -0.1005450004
C   C315      1.0  0.45490  0.03830  0.73080  1.0000 -0.1005450004
C   C316      1.0  0.03830  0.58340  0.23080  1.0000 -0.1005450004
C   C317      1.0  0.41660  0.45490  0.23080  1.0000 -0.1005450004
C   C318      1.0  0.54510  0.96170  0.23080  1.0000 -0.1005450004
C   C319      1.0  0.92470  0.40430  0.69210  1.0000 -0.1608704304
C   C320      1.0  0.59570  0.52040  0.69210  1.0000 -0.1608704304
C   C321      1.0  0.47960  0.07530  0.69210  1.0000 -0.1608704304
C   C322      1.0  0.07530  0.59570  0.19210  1.0000 -0.1724915359
C   C323      1.0  0.40430  0.47960  0.19210  1.0000 -0.1724915359
C   C324      1.0  0.52040  0.92470  0.19210  1.0000 -0.1724915359
C   C325      1.0  0.05780  0.79700  0.63140  1.0000 -0.1005450004
C   C326      1.0  0.20300  0.26080  0.63140  1.0000 -0.1005450004
C   C327      1.0  0.73920  0.94220  0.63140  1.0000 -0.1005450004
C   C328      1.0  0.94220  0.20300  0.13140  1.0000 -0.1005450004
C   C329      1.0  0.79700  0.73920  0.13140  1.0000 -0.1005450004
C   C330      1.0  0.26080  0.05780  0.13140  1.0000 -0.1005450004
C   C331      1.0  0.22250  0.89440  0.21750  1.0000 -0.1310023018
C   C332      1.0  0.10560  0.32810  0.21750  1.0000 -0.1310023018
C   C333      1.0  0.67190  0.77750  0.21750  1.0000 -0.1310023018
C   C334      1.0  0.77750  0.10560  0.71750  1.0000 -0.1310023018
C   C335      1.0  0.89440  0.67190  0.71750  1.0000 -0.1310023018
C   C336      1.0  0.32810  0.22250  0.71750  1.0000 -0.1310023018
C   C337      1.0  0.19830  0.85880  0.17730  1.0000 -0.1724915359
C   C338      1.0  0.14120  0.33950  0.17730  1.0000 -0.1724915359
C   C339      1.0  0.66050  0.80170  0.17730  1.0000 -0.1724915359
C   C340      1.0  0.80170  0.14120  0.67730  1.0000 -0.1724915359
C   C341      1.0  0.85880  0.66050  0.67730  1.0000 -0.1724915359
C   C342      1.0  0.33950  0.19830  0.67730  1.0000 -0.1724915359
C   C343      1.0  0.12910  0.26360  0.46470  1.0000 0.060236316
C   C344      1.0  0.73640  0.86550  0.46470  1.0000 0.060236316
C   C345      1.0  0.13450  0.87090  0.46470  1.0000 0.060236316
C   C346      1.0  0.87090  0.73640  0.96470  1.0000 0.060236316
C   C347      1.0  0.26360  0.13450  0.96470  1.0000 0.060236316
C   C348      1.0  0.86550  0.12910  0.96470  1.0000 0.060236316
C   C349      1.0  0.16000  0.77260  0.09410  1.0000 -0.1183875381
C   C350      1.0  0.22740  0.38740  0.09410  1.0000 -0.1183875381
C   C351      1.0  0.61260  0.84000  0.09410  1.0000 -0.1183875381
C   C352      1.0  0.84000  0.22740  0.59410  1.0000 -0.1183875381
C   C353      1.0  0.77260  0.61260  0.59410  1.0000 -0.1183875381
C   C354      1.0  0.38740  0.16000  0.59410  1.0000 -0.1183875381
C   C355      1.0  0.16540  0.76200  0.05190  1.0000 -0.0222057609
C   C356      1.0  0.23800  0.40340  0.05190  1.0000 -0.0222057609
C   C357      1.0  0.59660  0.83460  0.05190  1.0000 -0.0222057609
C   C358      1.0  0.83460  0.23800  0.55190  1.0000 -0.0222057609
C   C359      1.0  0.76200  0.59660  0.55190  1.0000 -0.0222057609
C   C360      1.0  0.40340  0.16540  0.55190  1.0000 -0.0222057609
C   C361      1.0  0.32540  0.91290  0.15500  1.0000 -0.1492597685
C   C362      1.0  0.08710  0.41250  0.15500  1.0000 -0.1492597685
C   C363      1.0  0.58750  0.67460  0.15500  1.0000 -0.1492597685
C   C364      1.0  0.67460  0.08710  0.65500  1.0000 -0.1492597685
C   C365      1.0  0.91290  0.58750  0.65500  1.0000 -0.1492597685
C   C366      1.0  0.41250  0.32540  0.65500  1.0000 -0.1492597685
C   C367      1.0  0.99510  0.20140  0.46240  1.0000 -0.1005450004
C   C368      1.0  0.79860  0.79370  0.46240  1.0000 -0.1005450004
C   C369      1.0  0.20630  0.00490  0.46240  1.0000 -0.1005450004
C   C370      1.0  0.00490  0.79860  0.96240  1.0000 -0.1005450004
C   C371      1.0  0.20140  0.20630  0.96240  1.0000 -0.1005450004
C   C372      1.0  0.79370  0.99510  0.96240  1.0000 -0.1005450004
C   C373      1.0  0.05620  0.19610  0.46340  1.0000 -0.1400033028
C   C374      1.0  0.80390  0.86010  0.46340  1.0000 -0.1400033028
C   C375      1.0  0.13990  0.94380  0.46340  1.0000 -0.1400033028
C   C376      1.0  0.94380  0.80390  0.96340  1.0000 -0.1310023018
C   C377      1.0  0.19610  0.13990  0.96340  1.0000 -0.1310023018
C   C378      1.0  0.86010  0.05620  0.96340  1.0000 -0.1310023018
C   C379      1.0  0.34730  0.94280  0.19480  1.0000 -0.1183875381
C   C380      1.0  0.05720  0.40450  0.19480  1.0000 -0.1183875381
C   C381      1.0  0.59550  0.65270  0.19480  1.0000 -0.1183875381
C   C382      1.0  0.65270  0.05720  0.69480  1.0000 -0.1183875381
C   C383      1.0  0.94280  0.59550  0.69480  1.0000 -0.1183875381
C   C384      1.0  0.40450  0.34730  0.69480  1.0000 -0.1183875381
N   N1        1.0  0.42090  0.18120  0.43836  1.0000 -0.2954220179
N   N2        1.0  0.81880  0.23970  0.43836  1.0000 -0.2954220179
N   N3        1.0  0.76030  0.57910  0.43836  1.0000 -0.2954220179
N   N4        1.0  0.57910  0.81880  0.93836  1.0000 -0.2954220179
N   N5        1.0  0.18120  0.76030  0.93836  1.0000 -0.2954220179
N   N6        1.0  0.23970  0.42090  0.93836  1.0000 -0.2954220179
N   N7        1.0  0.39960  0.10000  0.38617  1.0000 0.0171317343
N   N8        1.0  0.90000  0.29960  0.38617  1.0000 0.0171317343
N   N9        1.0  0.70040  0.60040  0.38617  1.0000 0.0171317343
N   N10       1.0  0.60040  0.90000  0.88617  1.0000 0.0171317343
N   N11       1.0  0.10000  0.70040  0.88617  1.0000 0.0171317343
N   N12       1.0  0.29960  0.39960  0.88617  1.0000 0.0171317343
N   N13       1.0  0.51200  0.35420  0.44791  1.0000 -0.7642006878
N   N14       1.0  0.64580  0.15780  0.44791  1.0000 -0.7642006878
N   N15       1.0  0.84220  0.48800  0.44791  1.0000 -0.7642006878
N   N16       1.0  0.48800  0.64580  0.94791  1.0000 -0.7642006878
N   N17       1.0  0.35420  0.84220  0.94791  1.0000 -0.7642006878
N   N18       1.0  0.15780  0.51200  0.94791  1.0000 -0.7642006878
N   N19       1.0  0.23460  0.81400  0.03510  1.0000 -0.2869793478
N   N20       1.0  0.18600  0.42060  0.03510  1.0000 -0.2869793478
N   N21       1.0  0.57940  0.76540  0.03510  1.0000 -0.2869793478
N   N22       1.0  0.76540  0.18600  0.53510  1.0000 -0.2869793478
N   N23       1.0  0.81400  0.57940  0.53510  1.0000 -0.2869793478
N   N24       1.0  0.42060  0.23460  0.53510  1.0000 -0.2869793478
N   N25       1.0  0.22960  0.83380  0.10470  1.0000 0.0125213083
N   N26       1.0  0.16620  0.39580  0.10470  1.0000 0.0125213083
N   N27       1.0  0.60420  0.77040  0.10470  1.0000 0.0125213083
N   N28       1.0  0.77040  0.16620  0.60470  1.0000 0.0125213083
N   N29       1.0  0.83380  0.60420  0.60470  1.0000 0.0125213083
N   N30       1.0  0.39580  0.22960  0.60470  1.0000 0.0125213083
O   O1        1.0  0.95661  0.47227  0.49852  1.0000 -0.6297584776
O   O2        1.0  0.52773  0.48434  0.49852  1.0000 -0.6297584776
O   O3        1.0  0.51566  0.04339  0.49852  1.0000 -0.6297584776
O   O4        1.0  0.04339  0.52773  0.99852  1.0000 -0.6297584776
O   O5        1.0  0.47227  0.51566  0.99852  1.0000 -0.6297584776
O   O6        1.0  0.48434  0.95661  0.99852  1.0000 -0.6297584776
O   O7        1.0  0.00843  0.55047  0.42355  1.0000 -0.6297584776
O   O8        1.0  0.44953  0.45796  0.42355  1.0000 -0.6297584776
O   O9        1.0  0.54204  0.99157  0.42355  1.0000 -0.6297584776
O   O10       1.0  0.99157  0.44953  0.92355  1.0000 -0.6297584776
O   O11       1.0  0.55047  0.54204  0.92355  1.0000 -0.6297584776
O   O12       1.0  0.45796  0.00843  0.92355  1.0000 -0.6297584776
O   O13       1.0  0.38876  0.37101  0.49427  1.0000 -0.6211330719
O   O14       1.0  0.62899  0.01775  0.49427  1.0000 -0.6211330719
O   O15       1.0  0.98225  0.61124  0.49427  1.0000 -0.6211330719
O   O16       1.0  0.61124  0.62899  0.99427  1.0000 -0.6211330719
O   O17       1.0  0.37101  0.98225  0.99427  1.0000 -0.6211330719
O   O18       1.0  0.01775  0.38876  0.99427  1.0000 -0.6211330719
O   O19       1.0  0.33489  0.45859  0.47309  1.0000 -0.6211330719
O   O20       1.0  0.54141  0.87630  0.47309  1.0000 -0.6211330719
O   O21       1.0  0.12370  0.66511  0.47309  1.0000 -0.6211330719
O   O22       1.0  0.66511  0.54141  0.97309  1.0000 -0.6211330719
O   O23       1.0  0.45859  0.12370  0.97309  1.0000 -0.6211330719
O   O24       1.0  0.87630  0.33489  0.97309  1.0000 -0.6211330719
O   O25       1.0  0.10557  0.52376  0.46288  1.0000 -0.6135271096
O   O26       1.0  0.47624  0.58181  0.46288  1.0000 -0.6135271096
O   O27       1.0  0.41819  0.89443  0.46288  1.0000 -0.6135271096
O   O28       1.0  0.89443  0.47624  0.96288  1.0000 -0.6135271096
O   O29       1.0  0.52376  0.41819  0.96288  1.0000 -0.6135271096
O   O30       1.0  0.58181  0.10557  0.96288  1.0000 -0.6135271096
O   O31       1.0  0.25049  0.65101  0.69238  1.0000 -0.5860040191
O   O32       1.0  0.34899  0.59948  0.69238  1.0000 -0.5860040191
O   O33       1.0  0.40052  0.74951  0.69238  1.0000 -0.5860040191
O   O34       1.0  0.74951  0.34899  0.19238  1.0000 -0.5860040191
O   O35       1.0  0.65101  0.40052  0.19238  1.0000 -0.5860040191
O   O36       1.0  0.59948  0.25049  0.19238  1.0000 -0.5860040191
O   O37       1.0  0.07292  0.56645  0.54316  1.0000 -0.6297584776
O   O38       1.0  0.43355  0.50647  0.54316  1.0000 -0.6211330719
O   O39       1.0  0.49353  0.92708  0.54316  1.0000 -0.6211330719
O   O40       1.0  0.92708  0.43355  0.04316  1.0000 -0.6211330719
O   O41       1.0  0.56645  0.49353  0.04316  1.0000 -0.6211330719
O   O42       1.0  0.50647  0.07292  0.04316  1.0000 -0.6211330719
O   O43       1.0  0.30301  0.72452  0.76508  1.0000 -0.6015705072
O   O44       1.0  0.27548  0.57849  0.76508  1.0000 -0.6015705072
O   O45       1.0  0.42151  0.69699  0.76508  1.0000 -0.6015705072
O   O46       1.0  0.69699  0.27548  0.26508  1.0000 -0.6015705072
O   O47       1.0  0.72452  0.42151  0.26508  1.0000 -0.6015705072
O   O48       1.0  0.57849  0.30301  0.26508  1.0000 -0.6015705072
O   O49       1.0  0.00657  0.55070  0.35212  1.0000 -0.5106092662
O   O50       1.0  0.44930  0.45587  0.35212  1.0000 -0.5106092662
O   O51       1.0  0.54413  0.99343  0.35212  1.0000 -0.5106092662
O   O52       1.0  0.99343  0.44930  0.85212  1.0000 -0.5106092662
O   O53       1.0  0.55070  0.54413  0.85212  1.0000 -0.5106092662
O   O54       1.0  0.45587  0.00657  0.85212  1.0000 -0.5106092662
O   O55       1.0  0.32840  0.25900  0.46435  1.0000 -0.5106092662
O   O56       1.0  0.74100  0.06940  0.46435  1.0000 -0.5106092662
O   O57       1.0  0.93060  0.67160  0.46435  1.0000 -0.5106092662
O   O58       1.0  0.67160  0.74100  0.96435  1.0000 -0.5106092662
O   O59       1.0  0.25900  0.93060  0.96435  1.0000 -0.5106092662
O   O60       1.0  0.06940  0.32840  0.96435  1.0000 -0.5106092662
O   O61       1.0  0.85130  0.40800  0.53460  1.0000 -0.5106092662
O   O62       1.0  0.59200  0.44330  0.53460  1.0000 -0.5106092662
O   O63       1.0  0.55670  0.14870  0.53460  1.0000 -0.5106092662
O   O64       1.0  0.14870  0.59200  0.03460  1.0000 -0.5106092662
O   O65       1.0  0.40800  0.55670  0.03460  1.0000 -0.5106092662
O   O66       1.0  0.44330  0.85130  0.03460  1.0000 -0.5106092662
O   O67       1.0  0.25730  0.79330  0.78882  1.0000 -0.5180828277
O   O68       1.0  0.20670  0.46400  0.78882  1.0000 -0.5180828277
O   O69       1.0  0.53600  0.74270  0.78882  1.0000 -0.5180828277
O   O70       1.0  0.74270  0.20670  0.28882  1.0000 -0.5180828277
O   O71       1.0  0.79330  0.53600  0.28882  1.0000 -0.5180828277
O   O72       1.0  0.46400  0.25730  0.28882  1.0000 -0.5180828277
