# DDEC6 charges by PACMAN v1.1 (https://github.com/mtap-research/PACMAN-charge/)
data_2023[Cd][sql]2[ASR]3
_chemical_formula_sum              "Cd4 H32 C56 O16"
_cell_length_a       18.0624
_cell_length_b       6.2332
_cell_length_c       20.9901
_cell_angle_alpha    90
_cell_angle_beta     125.276
_cell_angle_gamma    90

_symmetry_space_group_name_H-M    "P 1"
_symmetry_Int_Tables_number       1

loop_
  _symmetry_equiv_pos_as_xyz
  'x, y, z'

loop_
  _atom_site_type_symbol
  _atom_site_label
  _atom_site_symmetry_multiplicity
  _atom_site_fract_x
  _atom_site_fract_y
  _atom_site_fract_z
  _atom_site_occupancy
  _atom_site_charge
Cd  Cd1       1.0  0.55374  0.85614  0.95083  1.0000 1.0241656251
Cd  Cd2       1.0  0.44626  0.35614  0.54917  1.0000 1.0255405851
Cd  Cd3       1.0  0.44626  0.14386  0.04917  1.0000 1.0255405851
Cd  Cd4       1.0  0.55374  0.64386  0.45083  1.0000 1.0241656251
H   H1        1.0  0.87460  0.78760  0.09570  1.0000 0.1104935225
H   H2        1.0  0.12540  0.28760  0.40430  1.0000 0.1104935225
H   H3        1.0  0.12540  0.21240  0.90430  1.0000 0.1104935225
H   H4        1.0  0.87460  0.71240  0.59570  1.0000 0.1104935225
H   H5        1.0  0.02420  0.88640  0.17160  1.0000 0.1104935225
H   H6        1.0  0.97580  0.38640  0.32840  1.0000 0.1104935225
H   H7        1.0  0.97580  0.11360  0.82840  1.0000 0.1104935225
H   H8        1.0  0.02420  0.61360  0.67160  1.0000 0.1104935225
H   H9        1.0  0.95110  0.49900  0.15150  1.0000 0.1104935225
H   H10       1.0  0.04890  0.99900  0.34850  1.0000 0.1104935225
H   H11       1.0  0.04890  0.50100  0.84850  1.0000 0.1104935225
H   H12       1.0  0.95110  0.00100  0.65150  1.0000 0.1104935225
H   H13       1.0  0.80120  0.39920  0.07500  1.0000 0.1290054269
H   H14       1.0  0.19880  0.89920  0.42500  1.0000 0.1290054269
H   H15       1.0  0.19880  0.60080  0.92500  1.0000 0.1290054269
H   H16       1.0  0.80120  0.10080  0.57500  1.0000 0.1290054269
H   H17       1.0  0.23450  0.67440  0.25620  1.0000 0.1209889896
H   H18       1.0  0.76550  0.17440  0.24380  1.0000 0.1209889896
H   H19       1.0  0.76550  0.32560  0.74380  1.0000 0.1209889896
H   H20       1.0  0.23450  0.82560  0.75620  1.0000 0.1209889896
H   H21       1.0  0.08670  0.56490  0.17520  1.0000 0.1104935225
H   H22       1.0  0.91330  0.06490  0.32480  1.0000 0.1104935225
H   H23       1.0  0.91330  0.43510  0.82480  1.0000 0.1104935225
H   H24       1.0  0.08670  0.93510  0.67520  1.0000 0.1104935225
H   H25       1.0  0.15350  0.99370  0.28080  1.0000 0.1104935225
H   H26       1.0  0.84650  0.49370  0.21920  1.0000 0.1104935225
H   H27       1.0  0.84650  0.00630  0.71920  1.0000 0.1104935225
H   H28       1.0  0.15350  0.50630  0.78080  1.0000 0.1104935225
H   H29       1.0  0.30100  0.10110  0.36280  1.0000 0.1367022119
H   H30       1.0  0.69900  0.60110  0.13720  1.0000 0.1367022119
H   H31       1.0  0.69900  0.89890  0.63720  1.0000 0.1367022119
H   H32       1.0  0.30100  0.39890  0.86280  1.0000 0.1367022119
C   C1        1.0  0.72499  0.01050  0.02893  1.0000 0.5436629005
C   C2        1.0  0.27501  0.51050  0.47107  1.0000 0.5436629005
C   C3        1.0  0.27501  0.98950  0.97107  1.0000 0.5436629005
C   C4        1.0  0.72499  0.48950  0.52893  1.0000 0.5436629005
C   C5        1.0  0.82150  0.08160  0.07650  1.0000 -0.0197962291
C   C6        1.0  0.17850  0.58160  0.42350  1.0000 -0.0197962291
C   C7        1.0  0.17850  0.91840  0.92350  1.0000 -0.0197962291
C   C8        1.0  0.82150  0.41840  0.57650  1.0000 -0.0197962291
C   C9        1.0  0.88950  0.93210  0.10650  1.0000 -0.0961495932
C   C10       1.0  0.11050  0.43210  0.39350  1.0000 -0.0961495932
C   C11       1.0  0.11050  0.06790  0.89350  1.0000 -0.0961495932
C   C12       1.0  0.88950  0.56790  0.60650  1.0000 -0.0961495932
C   C13       1.0  0.97980  0.99180  0.15240  1.0000 -0.1583252452
C   C14       1.0  0.02020  0.49180  0.34760  1.0000 -0.1583252452
C   C15       1.0  0.02020  0.00820  0.84760  1.0000 -0.1583252452
C   C16       1.0  0.97980  0.50820  0.65240  1.0000 -0.1583252452
C   C17       1.0  0.00580  0.20560  0.17060  1.0000 0.0732994233
C   C18       1.0  0.99420  0.70560  0.32940  1.0000 0.0732994233
C   C19       1.0  0.99420  0.79440  0.82940  1.0000 0.0732994233
C   C20       1.0  0.00580  0.29440  0.67060  1.0000 0.0732994233
C   C21       1.0  0.93660  0.35440  0.14050  1.0000 -0.1537199892
C   C22       1.0  0.06340  0.85440  0.35950  1.0000 -0.1537199892
C   C23       1.0  0.06340  0.64560  0.85950  1.0000 -0.1537199892
C   C24       1.0  0.93660  0.14560  0.64050  1.0000 -0.1537199892
C   C25       1.0  0.84600  0.29460  0.09430  1.0000 -0.0917354651
C   C26       1.0  0.15400  0.79460  0.40570  1.0000 -0.0917354651
C   C27       1.0  0.15400  0.70540  0.90570  1.0000 -0.0917354651
C   C28       1.0  0.84600  0.20540  0.59430  1.0000 -0.0917354651
C   C29       1.0  0.38003  0.47580  0.37340  1.0000 0.5728885181
C   C30       1.0  0.61997  0.97580  0.12660  1.0000 0.5728885181
C   C31       1.0  0.61997  0.52420  0.62660  1.0000 0.5728885181
C   C32       1.0  0.38003  0.02420  0.87340  1.0000 0.5728885181
C   C33       1.0  0.28386  0.40120  0.32001  1.0000 -0.0197962291
C   C34       1.0  0.71614  0.90120  0.17999  1.0000 -0.0197962291
C   C35       1.0  0.71614  0.59880  0.67999  1.0000 -0.0197962291
C   C36       1.0  0.28386  0.09880  0.82001  1.0000 -0.0197962291
C   C37       1.0  0.21830  0.53810  0.26210  1.0000 -0.0961495932
C   C38       1.0  0.78170  0.03810  0.23790  1.0000 -0.0961495932
C   C39       1.0  0.78170  0.46190  0.73790  1.0000 -0.0961495932
C   C40       1.0  0.21830  0.96190  0.76210  1.0000 -0.0961495932
C   C41       1.0  0.12960  0.47170  0.21360  1.0000 -0.1537199892
C   C42       1.0  0.87040  0.97170  0.28640  1.0000 -0.1537199892
C   C43       1.0  0.87040  0.52830  0.78640  1.0000 -0.1537199892
C   C44       1.0  0.12960  0.02830  0.71360  1.0000 -0.1537199892
C   C45       1.0  0.10180  0.27040  0.22000  1.0000 0.0732994233
C   C46       1.0  0.89820  0.77040  0.28000  1.0000 0.0732994233
C   C47       1.0  0.89820  0.72960  0.78000  1.0000 0.0732994233
C   C48       1.0  0.10180  0.22960  0.72000  1.0000 0.0732994233
C   C49       1.0  0.16930  0.13220  0.27650  1.0000 -0.1427647523
C   C50       1.0  0.83070  0.63220  0.22350  1.0000 -0.1427647523
C   C51       1.0  0.83070  0.86780  0.72350  1.0000 -0.1427647523
C   C52       1.0  0.16930  0.36780  0.77650  1.0000 -0.1427647523
C   C53       1.0  0.25780  0.19590  0.32550  1.0000 -0.0803885438
C   C54       1.0  0.74220  0.69590  0.17450  1.0000 -0.0803885438
C   C55       1.0  0.74220  0.80410  0.67450  1.0000 -0.0803885438
C   C56       1.0  0.25780  0.30410  0.82550  1.0000 -0.0803885438
O   O1        1.0  0.70842  0.81390  0.01241  1.0000 -0.5546029262
O   O2        1.0  0.29158  0.31390  0.48759  1.0000 -0.5546029262
O   O3        1.0  0.29158  0.18610  0.98759  1.0000 -0.5546029262
O   O4        1.0  0.70842  0.68610  0.51241  1.0000 -0.5546029262
O   O5        1.0  0.66244  0.14300  0.00748  1.0000 -0.5320144348
O   O6        1.0  0.33756  0.64300  0.49252  1.0000 -0.5320144348
O   O7        1.0  0.33756  0.85700  0.99252  1.0000 -0.5320144348
O   O8        1.0  0.66244  0.35700  0.50748  1.0000 -0.5320144348
O   O9        1.0  0.43815  0.35530  0.43011  1.0000 -0.5959901862
O   O10       1.0  0.56185  0.85530  0.06989  1.0000 -0.5959901862
O   O11       1.0  0.56185  0.64470  0.56989  1.0000 -0.5959901862
O   O12       1.0  0.43815  0.14470  0.93011  1.0000 -0.5959901862
O   O13       1.0  0.40153  0.65440  0.36141  1.0000 -0.5320144348
O   O14       1.0  0.59847  0.15440  0.13859  1.0000 -0.5320144348
O   O15       1.0  0.59847  0.34560  0.63859  1.0000 -0.5320144348
O   O16       1.0  0.40153  0.84560  0.86141  1.0000 -0.5320144348
