# DDEC6 charges by PACMAN v1.1 (https://github.com/mtap-research/PACMAN-charge/)
data_2023[Hf][flu]3[ASR]2
_chemical_formula_sum              "Hf6 H42 C74 N4 O24"
_cell_length_a       18.8846
_cell_length_b       18.8846
_cell_length_c       16.4582
_cell_angle_alpha    85.7087
_cell_angle_beta     94.2913
_cell_angle_gamma    46.5852

_symmetry_space_group_name_H-M    "P 1"
_symmetry_Int_Tables_number       1

loop_
  _symmetry_equiv_pos_as_xyz
  'x, y, z'

loop_
  _atom_site_type_symbol
  _atom_site_label
  _atom_site_symmetry_multiplicity
  _atom_site_fract_x
  _atom_site_fract_y
  _atom_site_fract_z
  _atom_site_occupancy
  _atom_site_charge
Hf  Hf1       1.0  0.16472  0.93704  0.98534  1.0000 1.5222869971
Hf  Hf2       1.0  0.93704  0.16472  0.01466  1.0000 1.5222869971
Hf  Hf3       1.0  0.83528  0.06296  0.01466  1.0000 1.5222869971
Hf  Hf4       1.0  0.06296  0.83528  0.98534  1.0000 1.5222869971
Hf  Hf5       1.0  0.94723  0.05277  0.85031  1.0000 1.5103343883
Hf  Hf6       1.0  0.05277  0.94723  0.14969  1.0000 1.5103343883
H   H1        1.0  0.81650  0.43670  0.83230  1.0000 0.1101615661
H   H2        1.0  0.80200  0.30320  0.65950  1.0000 0.1271268213
H   H3        1.0  0.75460  0.56760  0.72890  1.0000 0.1166638716
H   H4        1.0  0.74010  0.43410  0.55610  1.0000 0.1101615661
H   H5        1.0  0.79280  0.61420  0.61040  1.0000 0.1166638716
H   H6        1.0  0.68250  0.95710  0.32000  1.0000 0.1166638716
H   H7        1.0  0.95300  0.80320  0.45550  1.0000 0.1166638716
H   H8        1.0  0.71260  0.02540  0.22090  1.0000 0.1046051913
H   H9        1.0  0.98300  0.87140  0.35630  1.0000 0.1271268213
H   H10       1.0  0.72480  0.80660  0.38230  1.0000 0.3007165351
H   H11       1.0  0.43670  0.81650  0.16770  1.0000 0.1101615661
H   H12       1.0  0.30320  0.80200  0.34050  1.0000 0.1271268213
H   H13       1.0  0.56760  0.75460  0.27110  1.0000 0.1166638716
H   H14       1.0  0.43410  0.74010  0.44390  1.0000 0.1101615661
H   H15       1.0  0.61420  0.79280  0.38960  1.0000 0.1166638716
H   H16       1.0  0.95710  0.68250  0.68000  1.0000 0.1166638716
H   H17       1.0  0.80320  0.95300  0.54450  1.0000 0.1166638716
H   H18       1.0  0.02540  0.71260  0.77910  1.0000 0.1046051913
H   H19       1.0  0.87140  0.98300  0.64370  1.0000 0.1271268213
H   H20       1.0  0.80660  0.72480  0.61770  1.0000 0.3007165351
H   H21       1.0  0.18350  0.56330  0.16770  1.0000 0.1101615661
H   H22       1.0  0.19800  0.69680  0.34050  1.0000 0.1271268213
H   H23       1.0  0.24540  0.43240  0.27110  1.0000 0.1166638716
H   H24       1.0  0.25990  0.56590  0.44390  1.0000 0.1101615661
H   H25       1.0  0.20720  0.38580  0.38960  1.0000 0.1166638716
H   H26       1.0  0.31750  0.04290  0.68000  1.0000 0.1166638716
H   H27       1.0  0.04700  0.19680  0.54450  1.0000 0.1166638716
H   H28       1.0  0.28740  0.97460  0.77910  1.0000 0.1046051913
H   H29       1.0  0.01700  0.12860  0.64370  1.0000 0.1271268213
H   H30       1.0  0.27520  0.19340  0.61770  1.0000 0.3007165351
H   H31       1.0  0.56330  0.18350  0.83230  1.0000 0.1101615661
H   H32       1.0  0.69680  0.19800  0.65950  1.0000 0.1271268213
H   H33       1.0  0.43240  0.24540  0.72890  1.0000 0.1166638716
H   H34       1.0  0.56590  0.25990  0.55610  1.0000 0.1101615661
H   H35       1.0  0.38580  0.20720  0.61040  1.0000 0.1166638716
H   H36       1.0  0.04290  0.31750  0.32000  1.0000 0.1166638716
H   H37       1.0  0.19680  0.04700  0.45550  1.0000 0.1166638716
H   H38       1.0  0.97460  0.28740  0.22090  1.0000 0.1046051913
H   H39       1.0  0.12860  0.01700  0.35630  1.0000 0.1271268213
H   H40       1.0  0.19340  0.27520  0.38230  1.0000 0.3007165351
H   H41       1.0  0.60260  0.60260  0.50000  1.0000 0.1166638716
H   H42       1.0  0.39740  0.39740  0.50000  1.0000 0.1166638716
C   C1        1.0  0.85400  0.27200  0.82070  1.0000 0.5756759802
C   C2        1.0  0.81504  0.35764  0.75560  1.0000 -0.0224405947
C   C3        1.0  0.80097  0.43617  0.77620  1.0000 -0.080323898
C   C4        1.0  0.79240  0.35680  0.67360  1.0000 -0.0961390427
C   C5        1.0  0.76416  0.51396  0.71480  1.0000 -0.1671421221
C   C6        1.0  0.75559  0.43459  0.61220  1.0000 -0.1671421221
C   C7        1.0  0.74152  0.51312  0.63280  1.0000 0.0735207358
C   C8        1.0  0.70460  0.59420  0.56480  1.0000 0.0930148372
C   C9        1.0  0.74360  0.63600  0.56560  1.0000 -0.2158080331
C   C10       1.0  0.79860  0.82640  0.45740  1.0000 0.0374160697
C   C11       1.0  0.81493  0.87373  0.39710  1.0000 0.0584345319
C   C12       1.0  0.74353  0.93973  0.32740  1.0000 -0.180770523
C   C13       1.0  0.90422  0.84822  0.40790  1.0000 -0.180770523
C   C14       1.0  0.76132  0.98032  0.26850  1.0000 -0.080323898
C   C15       1.0  0.92201  0.88881  0.34900  1.0000 -0.080323898
C   C16       1.0  0.85061  0.95481  0.27930  1.0000 -0.0224405947
C   C17       1.0  0.87350  0.99370  0.21350  1.0000 0.5721145728
C   C18       1.0  0.27200  0.85400  0.17930  1.0000 0.5756759802
C   C19       1.0  0.35764  0.81504  0.24440  1.0000 -0.0224405947
C   C20       1.0  0.43617  0.80097  0.22380  1.0000 -0.0853044978
C   C21       1.0  0.35680  0.79240  0.32640  1.0000 -0.0961390427
C   C22       1.0  0.51396  0.76416  0.28520  1.0000 -0.1671421221
C   C23       1.0  0.43459  0.75559  0.38780  1.0000 -0.1671421221
C   C24       1.0  0.51312  0.74152  0.36720  1.0000 0.0735207358
C   C25       1.0  0.59420  0.70460  0.43520  1.0000 0.0930148372
C   C26       1.0  0.63600  0.74360  0.43440  1.0000 -0.2158080331
C   C27       1.0  0.82640  0.79860  0.54260  1.0000 0.0374160697
C   C28       1.0  0.87373  0.81493  0.60290  1.0000 0.0584345319
C   C29       1.0  0.93973  0.74353  0.67260  1.0000 -0.180770523
C   C30       1.0  0.84822  0.90422  0.59210  1.0000 -0.180770523
C   C31       1.0  0.98032  0.76132  0.73150  1.0000 -0.080323898
C   C32       1.0  0.88881  0.92201  0.65100  1.0000 -0.080323898
C   C33       1.0  0.95481  0.85061  0.72070  1.0000 -0.0224405947
C   C34       1.0  0.99370  0.87350  0.78650  1.0000 0.5721145728
C   C35       1.0  0.14600  0.72800  0.17930  1.0000 0.5756759802
C   C36       1.0  0.18496  0.64236  0.24440  1.0000 -0.0224405947
C   C37       1.0  0.19903  0.56383  0.22380  1.0000 -0.0853044978
C   C38       1.0  0.20760  0.64320  0.32640  1.0000 -0.0961390427
C   C39       1.0  0.23584  0.48604  0.28520  1.0000 -0.1671421221
C   C40       1.0  0.24441  0.56541  0.38780  1.0000 -0.1671421221
C   C41       1.0  0.25848  0.48688  0.36720  1.0000 0.0735207358
C   C42       1.0  0.29540  0.40580  0.43520  1.0000 0.0930148372
C   C43       1.0  0.25640  0.36400  0.43440  1.0000 -0.2158080331
C   C44       1.0  0.20140  0.17360  0.54260  1.0000 0.0374160697
C   C45       1.0  0.18507  0.12627  0.60290  1.0000 0.0584345319
C   C46       1.0  0.25647  0.06027  0.67260  1.0000 -0.180770523
C   C47       1.0  0.09578  0.15178  0.59210  1.0000 -0.180770523
C   C48       1.0  0.23868  0.01968  0.73150  1.0000 -0.080323898
C   C49       1.0  0.07799  0.11119  0.65100  1.0000 -0.080323898
C   C50       1.0  0.14939  0.04519  0.72070  1.0000 -0.0224405947
C   C51       1.0  0.12650  0.00630  0.78650  1.0000 0.5721145728
C   C52       1.0  0.72800  0.14600  0.82070  1.0000 0.5756759802
C   C53       1.0  0.64236  0.18496  0.75560  1.0000 -0.0224405947
C   C54       1.0  0.56383  0.19903  0.77620  1.0000 -0.080323898
C   C55       1.0  0.64320  0.20760  0.67360  1.0000 -0.0961390427
C   C56       1.0  0.48604  0.23584  0.71480  1.0000 -0.1671421221
C   C57       1.0  0.56541  0.24441  0.61220  1.0000 -0.1671421221
C   C58       1.0  0.48688  0.25848  0.63280  1.0000 0.0735207358
C   C59       1.0  0.40580  0.29540  0.56480  1.0000 0.0930148372
C   C60       1.0  0.36400  0.25640  0.56560  1.0000 -0.2158080331
C   C61       1.0  0.17360  0.20140  0.45740  1.0000 0.0374160697
C   C62       1.0  0.12627  0.18507  0.39710  1.0000 0.0584345319
C   C63       1.0  0.06027  0.25647  0.32740  1.0000 -0.180770523
C   C64       1.0  0.15178  0.09578  0.40790  1.0000 -0.180770523
C   C65       1.0  0.01968  0.23868  0.26850  1.0000 -0.080323898
C   C66       1.0  0.11119  0.07799  0.34900  1.0000 -0.080323898
C   C67       1.0  0.04519  0.14939  0.27930  1.0000 -0.0224405947
C   C68       1.0  0.00630  0.12650  0.21350  1.0000 0.5721145728
C   C69       1.0  0.63000  0.63000  0.50000  1.0000 -0.1942080399
C   C70       1.0  0.71000  0.71000  0.50000  1.0000 0.0096227079
C   C71       1.0  0.75190  0.75190  0.50000  1.0000 0.1459239283
C   C72       1.0  0.37000  0.37000  0.50000  1.0000 -0.1942080399
C   C73       1.0  0.29000  0.29000  0.50000  1.0000 0.0096227079
C   C74       1.0  0.24810  0.24810  0.50000  1.0000 0.1459239283
N   N1        1.0  0.75113  0.79693  0.43330  1.0000 -0.2883806518
N   N2        1.0  0.79693  0.75113  0.56670  1.0000 -0.2883806518
N   N3        1.0  0.24887  0.20307  0.56670  1.0000 -0.2883806518
N   N4        1.0  0.20307  0.24887  0.43330  1.0000 -0.2883806518
O   O1        1.0  0.87581  0.19941  0.79180  1.0000 -0.4900992132
O   O2        1.0  0.02470  0.07730  0.92790  1.0000 -0.7225918811
O   O3        1.0  0.95424  0.96884  0.23050  1.0000 -0.4900992132
O   O4        1.0  0.86821  0.27541  0.89520  1.0000 -0.5297697774
O   O5        1.0  0.81573  0.03873  0.14530  1.0000 -0.5297697774
O   O6        1.0  0.19941  0.87581  0.20820  1.0000 -0.4900992132
O   O7        1.0  0.07730  0.02470  0.07210  1.0000 -0.7225918811
O   O8        1.0  0.96884  0.95424  0.76950  1.0000 -0.4900992132
O   O9        1.0  0.27541  0.86821  0.10480  1.0000 -0.5297697774
O   O10       1.0  0.03873  0.81573  0.85470  1.0000 -0.5297697774
O   O11       1.0  0.12419  0.80059  0.20820  1.0000 -0.4900992132
O   O12       1.0  0.97530  0.92270  0.07210  1.0000 -0.7225918811
O   O13       1.0  0.04576  0.03116  0.76950  1.0000 -0.4900992132
O   O14       1.0  0.13179  0.72459  0.10480  1.0000 -0.5297697774
O   O15       1.0  0.18427  0.96127  0.85470  1.0000 -0.5297697774
O   O16       1.0  0.80059  0.12419  0.79180  1.0000 -0.4900992132
O   O17       1.0  0.92270  0.97530  0.92790  1.0000 -0.7225918811
O   O18       1.0  0.03116  0.04576  0.23050  1.0000 -0.4900992132
O   O19       1.0  0.72459  0.13179  0.89520  1.0000 -0.5297697774
O   O20       1.0  0.96127  0.18427  0.14530  1.0000 -0.5297697774
O   O21       1.0  0.08430  0.91570  0.91360  1.0000 -0.7301282725
O   O22       1.0  0.85920  0.14080  0.94190  1.0000 -0.7225918811
O   O23       1.0  0.91570  0.08430  0.08640  1.0000 -0.7301282725
O   O24       1.0  0.14080  0.85920  0.05810  1.0000 -0.7225918811
