# DDEC6 charges by PACMAN v1.1 (https://github.com/mtap-research/PACMAN-charge/)
data_2023[Fe][ant]3[ASR]1
_chemical_formula_sum              "Fe12 H120 C216 O52"
_cell_length_a       18.4274
_cell_length_b       18.4274
_cell_length_c       29.801
_cell_angle_alpha    77.5572
_cell_angle_beta     102.443
_cell_angle_gamma    92.0624

_symmetry_space_group_name_H-M    "P 1"
_symmetry_Int_Tables_number       1

loop_
  _symmetry_equiv_pos_as_xyz
  'x, y, z'

loop_
  _atom_site_type_symbol
  _atom_site_label
  _atom_site_symmetry_multiplicity
  _atom_site_fract_x
  _atom_site_fract_y
  _atom_site_fract_z
  _atom_site_occupancy
  _atom_site_charge
Fe  Fe1       1.0  0.72277  0.84563  0.86930  1.0000 1.1995564366
Fe  Fe2       1.0  0.15437  0.27723  0.36930  1.0000 1.2106458012
Fe  Fe3       1.0  0.81253  0.97513  0.91863  1.0000 1.1913915301
Fe  Fe4       1.0  0.02487  0.18747  0.41863  1.0000 1.1913915301
Fe  Fe5       1.0  0.68428  0.87918  0.96567  1.0000 1.1842753554
Fe  Fe6       1.0  0.12082  0.31572  0.46567  1.0000 1.1842753554
Fe  Fe7       1.0  0.84563  0.72277  0.63070  1.0000 1.2106458012
Fe  Fe8       1.0  0.27723  0.15437  0.13070  1.0000 1.2106458012
Fe  Fe9       1.0  0.97513  0.81253  0.58137  1.0000 1.1913915301
Fe  Fe10      1.0  0.18747  0.02487  0.08137  1.0000 1.1913915301
Fe  Fe11      1.0  0.87918  0.68428  0.53433  1.0000 1.1913915301
Fe  Fe12      1.0  0.31572  0.12082  0.03433  1.0000 1.1842753554
H   H1        1.0  0.77308  0.19350  0.61796  1.0000 0.1110378543
H   H2        1.0  0.80650  0.22692  0.11796  1.0000 0.1110378543
H   H3        1.0  0.62935  0.27533  0.49894  1.0000 0.1110378543
H   H4        1.0  0.72467  0.37065  0.99894  1.0000 0.1110378543
H   H5        1.0  0.55617  0.18020  0.61529  1.0000 0.1200675473
H   H6        1.0  0.81979  0.44383  0.11529  1.0000 0.1200675473
H   H7        1.0  0.60843  0.05847  0.66450  1.0000 0.1200675473
H   H8        1.0  0.94153  0.39157  0.16450  1.0000 0.1200675473
H   H9        1.0  0.63867  0.98315  0.73918  1.0000 0.1309636519
H   H10       1.0  0.01685  0.36133  0.23918  1.0000 0.1309636519
H   H11       1.0  0.79164  0.13042  0.77797  1.0000 0.1200675473
H   H12       1.0  0.86958  0.20836  0.27797  1.0000 0.1200675473
H   H13       1.0  0.76273  0.20315  0.70282  1.0000 0.1200675473
H   H14       1.0  0.79685  0.23727  0.20282  1.0000 0.1200675473
H   H15       1.0  0.84499  0.29243  0.58075  1.0000 0.1110378543
H   H16       1.0  0.70757  0.15501  0.08075  1.0000 0.1110378543
H   H17       1.0  0.94232  0.31622  0.54139  1.0000 0.1200675473
H   H18       1.0  0.68378  0.05768  0.04139  1.0000 0.1200675473
H   H19       1.0  0.81991  0.24793  0.43180  1.0000 0.1309636519
H   H20       1.0  0.75207  0.18009  0.93180  1.0000 0.1309636519
H   H21       1.0  0.72190  0.22602  0.46810  1.0000 0.1200675473
H   H22       1.0  0.77398  0.27810  0.96810  1.0000 0.1200675473
H   H23       1.0  0.51360  0.22608  0.46501  1.0000 0.1200675473
H   H24       1.0  0.77392  0.48640  0.96501  1.0000 0.1200675473
H   H25       1.0  0.39287  0.24753  0.42648  1.0000 0.1309636519
H   H26       1.0  0.75247  0.60713  0.92648  1.0000 0.1309636519
H   H27       1.0  0.33981  0.29639  0.53770  1.0000 0.1379340479
H   H28       1.0  0.70361  0.66019  0.03770  1.0000 0.1379340479
H   H29       1.0  0.45941  0.27379  0.57828  1.0000 0.1200675473
H   H30       1.0  0.72621  0.54059  0.07828  1.0000 0.1200675473
H   H31       1.0  0.02720  0.93439  0.21872  1.0000 0.1200675473
H   H32       1.0  0.06562  0.97279  0.71872  1.0000 0.1200675473
H   H33       1.0  0.10467  0.78323  0.33758  1.0000 0.1110378543
H   H34       1.0  0.21677  0.89533  0.83758  1.0000 0.1110378543
H   H35       1.0  0.01942  0.71672  0.21858  1.0000 0.1200675473
H   H36       1.0  0.28328  0.98058  0.71858  1.0000 0.1200675473
H   H37       1.0  0.01756  0.94294  0.13911  1.0000 0.1200675473
H   H38       1.0  0.05706  0.98244  0.63911  1.0000 0.1200675473
H   H39       1.0  0.94822  0.96564  0.06431  1.0000 0.1309636519
H   H40       1.0  0.03436  0.05178  0.56431  1.0000 0.1309636519
H   H41       1.0  0.83433  0.78217  0.09399  1.0000 0.1309636519
H   H42       1.0  0.21783  0.16567  0.59399  1.0000 0.1309636519
H   H43       1.0  0.90781  0.75325  0.16796  1.0000 0.1200675473
H   H44       1.0  0.24675  0.09219  0.66796  1.0000 0.1200675473
H   H45       1.0  0.13208  0.99996  0.25859  1.0000 0.1200675473
H   H46       1.0  0.00004  0.86792  0.75859  1.0000 0.1200675473
H   H47       1.0  0.15717  0.09661  0.29676  1.0000 0.1200675473
H   H48       1.0  0.90339  0.84283  0.79676  1.0000 0.1200675473
H   H49       1.0  0.08699  0.97301  0.40721  1.0000 0.1200675473
H   H50       1.0  0.02699  0.91301  0.90721  1.0000 0.1200675473
H   H51       1.0  0.06717  0.87556  0.37047  1.0000 0.1200675473
H   H52       1.0  0.12444  0.93284  0.87047  1.0000 0.1200675473
H   H53       1.0  0.05142  0.66724  0.36723  1.0000 0.1110378543
H   H54       1.0  0.33276  0.94858  0.86723  1.0000 0.1110378543
H   H55       1.0  0.07665  0.54553  0.40702  1.0000 0.1309636519
H   H56       1.0  0.45447  0.92335  0.90702  1.0000 0.1309636519
H   H57       1.0  0.13586  0.49998  0.29527  1.0000 0.1309636519
H   H58       1.0  0.50002  0.86414  0.79527  1.0000 0.1309636519
H   H59       1.0  0.11730  0.62174  0.25639  1.0000 0.1200675473
H   H60       1.0  0.37826  0.88270  0.75639  1.0000 0.1200675473
H   H61       1.0  0.19350  0.77308  0.88204  1.0000 0.1110378543
H   H62       1.0  0.22692  0.80650  0.38204  1.0000 0.1110378543
H   H63       1.0  0.27533  0.62935  0.00106  1.0000 0.1110378543
H   H64       1.0  0.37065  0.72467  0.50106  1.0000 0.1110378543
H   H65       1.0  0.18020  0.55617  0.88471  1.0000 0.1200675473
H   H66       1.0  0.44383  0.81980  0.38471  1.0000 0.1200675473
H   H67       1.0  0.05847  0.60843  0.83550  1.0000 0.1200675473
H   H68       1.0  0.39157  0.94153  0.33550  1.0000 0.1200675473
H   H69       1.0  0.98315  0.63867  0.76082  1.0000 0.1309636519
H   H70       1.0  0.36133  0.01685  0.26082  1.0000 0.1309636519
H   H71       1.0  0.13042  0.79164  0.72203  1.0000 0.1200675473
H   H72       1.0  0.20836  0.86958  0.22203  1.0000 0.1200675473
H   H73       1.0  0.20315  0.76273  0.79718  1.0000 0.1200675473
H   H74       1.0  0.23727  0.79685  0.29718  1.0000 0.1200675473
H   H75       1.0  0.29243  0.84499  0.91925  1.0000 0.1110378543
H   H76       1.0  0.15501  0.70757  0.41925  1.0000 0.1110378543
H   H77       1.0  0.31622  0.94232  0.95861  1.0000 0.1200675473
H   H78       1.0  0.05768  0.68378  0.45861  1.0000 0.1200675473
H   H79       1.0  0.24793  0.81991  0.06820  1.0000 0.1309636519
H   H80       1.0  0.18009  0.75207  0.56820  1.0000 0.1309636519
H   H81       1.0  0.22602  0.72190  0.03190  1.0000 0.1200675473
H   H82       1.0  0.27810  0.77398  0.53190  1.0000 0.1200675473
H   H83       1.0  0.22608  0.51360  0.03499  1.0000 0.1200675473
H   H84       1.0  0.48640  0.77392  0.53499  1.0000 0.1200675473
H   H85       1.0  0.24753  0.39287  0.07352  1.0000 0.1309636519
H   H86       1.0  0.60713  0.75247  0.57352  1.0000 0.1309636519
H   H87       1.0  0.29639  0.33981  0.96230  1.0000 0.1379340479
H   H88       1.0  0.66019  0.70361  0.46230  1.0000 0.1379340479
H   H89       1.0  0.27379  0.45941  0.92172  1.0000 0.1200675473
H   H90       1.0  0.54059  0.72621  0.42172  1.0000 0.1200675473
H   H91       1.0  0.93438  0.02721  0.28128  1.0000 0.1200675473
H   H92       1.0  0.97279  0.06561  0.78128  1.0000 0.1200675473
H   H93       1.0  0.78323  0.10467  0.16242  1.0000 0.1110378543
H   H94       1.0  0.89533  0.21677  0.66242  1.0000 0.1110378543
H   H95       1.0  0.71672  0.01942  0.28142  1.0000 0.1200675473
H   H96       1.0  0.98058  0.28328  0.78142  1.0000 0.1200675473
H   H97       1.0  0.94294  0.01756  0.36089  1.0000 0.1200675473
H   H98       1.0  0.98244  0.05706  0.86089  1.0000 0.1200675473
H   H99       1.0  0.96564  0.94822  0.43569  1.0000 0.1309636519
H   H100      1.0  0.05178  0.03436  0.93569  1.0000 0.1309636519
H   H101      1.0  0.78217  0.83433  0.40601  1.0000 0.1309636519
H   H102      1.0  0.16567  0.21783  0.90601  1.0000 0.1309636519
H   H103      1.0  0.75325  0.90781  0.33204  1.0000 0.1200675473
H   H104      1.0  0.09219  0.24675  0.83204  1.0000 0.1200675473
H   H105      1.0  0.99996  0.13208  0.24141  1.0000 0.1200675473
H   H106      1.0  0.86792  0.00004  0.74141  1.0000 0.1200675473
H   H107      1.0  0.09661  0.15717  0.20324  1.0000 0.1200675473
H   H108      1.0  0.84283  0.90339  0.70324  1.0000 0.1200675473
H   H109      1.0  0.97301  0.08699  0.09279  1.0000 0.1200675473
H   H110      1.0  0.91301  0.02699  0.59279  1.0000 0.1200675473
H   H111      1.0  0.87555  0.06717  0.12953  1.0000 0.1200675473
H   H112      1.0  0.93283  0.12444  0.62953  1.0000 0.1200675473
H   H113      1.0  0.66724  0.05142  0.13277  1.0000 0.1110378543
H   H114      1.0  0.94858  0.33276  0.63277  1.0000 0.1110378543
H   H115      1.0  0.54553  0.07665  0.09298  1.0000 0.1309636519
H   H116      1.0  0.92335  0.45447  0.59298  1.0000 0.1309636519
H   H117      1.0  0.49998  0.13586  0.20473  1.0000 0.1309636519
H   H118      1.0  0.86414  0.50002  0.70473  1.0000 0.1309636519
H   H119      1.0  0.62174  0.11730  0.24361  1.0000 0.1200675473
H   H120      1.0  0.88270  0.37826  0.74361  1.0000 0.1200675473
C   C1        1.0  0.66760  0.18080  0.62456  1.0000 0.0877272908
C   C2        1.0  0.81920  0.33240  0.12456  1.0000 0.0877272908
C   C3        1.0  0.72420  0.20260  0.60156  1.0000 -0.1902934692
C   C4        1.0  0.79740  0.27580  0.10156  1.0000 -0.1902934692
C   C5        1.0  0.71022  0.23802  0.55426  1.0000 0.0783273375
C   C6        1.0  0.76198  0.28978  0.05426  1.0000 0.0783273375
C   C7        1.0  0.63899  0.25221  0.53064  1.0000 -0.1902934692
C   C8        1.0  0.74779  0.36101  0.03064  1.0000 -0.1902934692
C   C9        1.0  0.57910  0.23250  0.55353  1.0000 0.0877272908
C   C10       1.0  0.76750  0.42090  0.05353  1.0000 0.0877272908
C   C11       1.0  0.59490  0.19550  0.60010  1.0000 -0.1983848526
C   C12       1.0  0.80450  0.40510  0.10010  1.0000 -0.1983848526
C   C13       1.0  0.68350  0.13710  0.67441  1.0000 0.0714138227
C   C14       1.0  0.86290  0.31650  0.17441  1.0000 0.0714138227
C   C15       1.0  0.64640  0.07280  0.68690  1.0000 -0.148460049
C   C16       1.0  0.92720  0.35360  0.18690  1.0000 -0.148460049
C   C17       1.0  0.66340  0.02760  0.73198  1.0000 -0.0988357994
C   C18       1.0  0.97240  0.33660  0.23198  1.0000 -0.0988357994
C   C19       1.0  0.71841  0.05099  0.76611  1.0000 -0.0297393841
C   C20       1.0  0.94901  0.28159  0.26611  1.0000 -0.0297393841
C   C21       1.0  0.75500  0.11540  0.75517  1.0000 -0.0908967271
C   C22       1.0  0.88460  0.24500  0.25517  1.0000 -0.0908967271
C   C23       1.0  0.73780  0.15880  0.70983  1.0000 -0.1574805836
C   C24       1.0  0.84120  0.26220  0.20983  1.0000 -0.1574805836
C   C25       1.0  0.73633  0.99807  0.81393  1.0000 0.5998224458
C   C26       1.0  0.00193  0.26367  0.31393  1.0000 0.5998224458
C   C27       1.0  0.77170  0.25610  0.52951  1.0000 0.0783273375
C   C28       1.0  0.74390  0.22830  0.02951  1.0000 0.0783273375
C   C29       1.0  0.83910  0.28310  0.55071  1.0000 -0.1574805836
C   C30       1.0  0.71690  0.16090  0.05071  1.0000 -0.1574805836
C   C31       1.0  0.89850  0.29650  0.52706  1.0000 -0.0908967271
C   C32       1.0  0.70350  0.10150  0.02706  1.0000 -0.0908967271
C   C33       1.0  0.89290  0.28130  0.48375  1.0000 -0.0434260962
C   C34       1.0  0.71870  0.10710  0.98375  1.0000 -0.0434260962
C   C35       1.0  0.82530  0.25630  0.46204  1.0000 -0.0908967271
C   C36       1.0  0.74370  0.17470  0.96204  1.0000 -0.0908967271
C   C37       1.0  0.76620  0.24340  0.48368  1.0000 -0.148460049
C   C38       1.0  0.75660  0.23380  0.98368  1.0000 -0.148460049
C   C39       1.0  0.95734  0.28726  0.46121  1.0000 0.5998224458
C   C40       1.0  0.71274  0.04266  0.96121  1.0000 0.5998224458
C   C41       1.0  0.50080  0.24860  0.52540  1.0000 0.0714138227
C   C42       1.0  0.75140  0.49920  0.02540  1.0000 0.0714138227
C   C43       1.0  0.47920  0.24040  0.48027  1.0000 -0.148460049
C   C44       1.0  0.75960  0.52080  0.98027  1.0000 -0.148460049
C   C45       1.0  0.40660  0.25340  0.45740  1.0000 -0.0988357994
C   C46       1.0  0.74660  0.59340  0.95740  1.0000 -0.0908967271
C   C47       1.0  0.35398  0.27418  0.47732  1.0000 -0.0297393841
C   C48       1.0  0.72582  0.64602  0.97732  1.0000 -0.0297393841
C   C49       1.0  0.37490  0.28210  0.52301  1.0000 -0.0988357994
C   C50       1.0  0.71790  0.62510  0.02301  1.0000 -0.0988357994
C   C51       1.0  0.44640  0.26900  0.54711  1.0000 -0.1419627564
C   C52       1.0  0.73100  0.55360  0.04711  1.0000 -0.1419627564
C   C53       1.0  0.27418  0.28746  0.45065  1.0000 0.6059399254
C   C54       1.0  0.71254  0.72582  0.95065  1.0000 0.6059399254
C   C55       1.0  0.01553  0.82947  0.21165  1.0000 0.0877272908
C   C56       1.0  0.17053  0.98447  0.71165  1.0000 0.0877272908
C   C57       1.0  0.03643  0.88521  0.23455  1.0000 -0.1902934692
C   C58       1.0  0.11479  0.96357  0.73455  1.0000 -0.1902934692
C   C59       1.0  0.07226  0.86864  0.28251  1.0000 0.0877272908
C   C60       1.0  0.13136  0.92774  0.78251  1.0000 0.0877272908
C   C61       1.0  0.08419  0.79437  0.30548  1.0000 -0.1983848526
C   C62       1.0  0.20563  0.91581  0.80548  1.0000 -0.1983848526
C   C63       1.0  0.06660  0.73666  0.28216  1.0000 0.0783273375
C   C64       1.0  0.26334  0.93340  0.78216  1.0000 0.0783273375
C   C65       1.0  0.03202  0.75442  0.23509  1.0000 -0.2054080738
C   C66       1.0  0.24558  0.96798  0.73509  1.0000 -0.2054080738
C   C67       1.0  0.97177  0.84583  0.16130  1.0000 0.0783273375
C   C68       1.0  0.15417  0.02823  0.66130  1.0000 0.0783273375
C   C69       1.0  0.98171  0.90909  0.13007  1.0000 -0.1419627564
C   C70       1.0  0.09091  0.01829  0.63007  1.0000 -0.1419627564
C   C71       1.0  0.93900  0.92300  0.08543  1.0000 -0.0908967271
C   C72       1.0  0.07700  0.06100  0.58543  1.0000 -0.0988357994
C   C73       1.0  0.88400  0.87720  0.07067  1.0000 -0.0236923544
C   C74       1.0  0.12280  0.11600  0.57067  1.0000 -0.0236923544
C   C75       1.0  0.87250  0.81390  0.10282  1.0000 -0.0988357994
C   C76       1.0  0.18610  0.12750  0.60282  1.0000 -0.0988357994
C   C77       1.0  0.91570  0.79690  0.14725  1.0000 -0.148460049
C   C78       1.0  0.20310  0.08430  0.64725  1.0000 -0.148460049
C   C79       1.0  0.83281  0.89479  0.02270  1.0000 0.5998224458
C   C80       1.0  0.10521  0.16719  0.52270  1.0000 0.5998224458
C   C81       1.0  0.09283  0.92899  0.30878  1.0000 0.0714138227
C   C82       1.0  0.07101  0.90717  0.80878  1.0000 0.0714138227
C   C83       1.0  0.12206  0.99490  0.28839  1.0000 -0.1419627564
C   C84       1.0  0.00510  0.87794  0.78839  1.0000 -0.1419627564
C   C85       1.0  0.13670  0.05310  0.31089  1.0000 -0.0988357994
C   C86       1.0  0.94690  0.86330  0.81089  1.0000 -0.0988357994
C   C87       1.0  0.12008  0.04596  0.35622  1.0000 -0.0297393841
C   C88       1.0  0.95404  0.87992  0.85622  1.0000 -0.0297393841
C   C89       1.0  0.09536  0.97904  0.37695  1.0000 -0.0988357994
C   C90       1.0  0.02096  0.90464  0.87695  1.0000 -0.0988357994
C   C91       1.0  0.08264  0.92080  0.35490  1.0000 -0.148460049
C   C92       1.0  0.07920  0.91736  0.85490  1.0000 -0.148460049
C   C93       1.0  0.12285  0.11255  0.37777  1.0000 0.5998224458
C   C94       1.0  0.88745  0.87715  0.87777  1.0000 0.5998224458
C   C95       1.0  0.08241  0.65915  0.30724  1.0000 0.0714138227
C   C96       1.0  0.34085  0.91759  0.80724  1.0000 0.0714138227
C   C97       1.0  0.06970  0.63410  0.35271  1.0000 -0.1574805836
C   C98       1.0  0.36590  0.93030  0.85271  1.0000 -0.1574805836
C   C99       1.0  0.08390  0.56090  0.37649  1.0000 -0.0908967271
C   C100      1.0  0.43910  0.91610  0.87649  1.0000 -0.0908967271
C   C101      1.0  0.10886  0.51108  0.35449  1.0000 -0.0297393841
C   C102      1.0  0.48892  0.89114  0.85449  1.0000 -0.0297393841
C   C103      1.0  0.11990  0.53410  0.31007  1.0000 -0.0908967271
C   C104      1.0  0.46590  0.88010  0.81007  1.0000 -0.0908967271
C   C105      1.0  0.10810  0.60710  0.28650  1.0000 -0.148460049
C   C106      1.0  0.39290  0.89190  0.78650  1.0000 -0.148460049
C   C107      1.0  0.12408  0.43172  0.38052  1.0000 0.6059399254
C   C108      1.0  0.56828  0.87592  0.88052  1.0000 0.6059399254
C   C109      1.0  0.18080  0.66760  0.87544  1.0000 0.0877272908
C   C110      1.0  0.33240  0.81920  0.37544  1.0000 0.0877272908
C   C111      1.0  0.20260  0.72420  0.89844  1.0000 -0.1902934692
C   C112      1.0  0.27580  0.79740  0.39844  1.0000 -0.1902934692
C   C113      1.0  0.23802  0.71022  0.94574  1.0000 0.0783273375
C   C114      1.0  0.28978  0.76198  0.44574  1.0000 0.0783273375
C   C115      1.0  0.25221  0.63899  0.96936  1.0000 -0.1902934692
C   C116      1.0  0.36101  0.74779  0.46936  1.0000 -0.1902934692
C   C117      1.0  0.23250  0.57910  0.94647  1.0000 0.0877272908
C   C118      1.0  0.42090  0.76750  0.44647  1.0000 0.0877272908
C   C119      1.0  0.19550  0.59490  0.89990  1.0000 -0.1983848526
C   C120      1.0  0.40510  0.80450  0.39990  1.0000 -0.1902934692
C   C121      1.0  0.13710  0.68350  0.82559  1.0000 0.0714138227
C   C122      1.0  0.31650  0.86290  0.32559  1.0000 0.0714138227
C   C123      1.0  0.07280  0.64640  0.81310  1.0000 -0.148460049
C   C124      1.0  0.35360  0.92720  0.31310  1.0000 -0.148460049
C   C125      1.0  0.02760  0.66340  0.76802  1.0000 -0.0988357994
C   C126      1.0  0.33660  0.97240  0.26802  1.0000 -0.0988357994
C   C127      1.0  0.05099  0.71841  0.73389  1.0000 -0.0297393841
C   C128      1.0  0.28159  0.94901  0.23389  1.0000 -0.0297393841
C   C129      1.0  0.11540  0.75500  0.74483  1.0000 -0.0988357994
C   C130      1.0  0.24500  0.88460  0.24483  1.0000 -0.0908967271
C   C131      1.0  0.15880  0.73780  0.79017  1.0000 -0.1574805836
C   C132      1.0  0.26220  0.84120  0.29017  1.0000 -0.1574805836
C   C133      1.0  0.99807  0.73633  0.68607  1.0000 0.5998224458
C   C134      1.0  0.26367  0.00193  0.18607  1.0000 0.5998224458
C   C135      1.0  0.25610  0.77170  0.97049  1.0000 0.0783273375
C   C136      1.0  0.22830  0.74390  0.47049  1.0000 0.0783273375
C   C137      1.0  0.28310  0.83910  0.94929  1.0000 -0.1574805836
C   C138      1.0  0.16090  0.71690  0.44929  1.0000 -0.1574805836
C   C139      1.0  0.29650  0.89850  0.97294  1.0000 -0.0908967271
C   C140      1.0  0.10150  0.70350  0.47294  1.0000 -0.0908967271
C   C141      1.0  0.28130  0.89290  0.01625  1.0000 -0.0434260962
C   C142      1.0  0.10710  0.71870  0.51625  1.0000 -0.0434260962
C   C143      1.0  0.25630  0.82530  0.03796  1.0000 -0.0908967271
C   C144      1.0  0.17470  0.74370  0.53796  1.0000 -0.0908967271
C   C145      1.0  0.24340  0.76620  0.01632  1.0000 -0.148460049
C   C146      1.0  0.23380  0.75660  0.51632  1.0000 -0.148460049
C   C147      1.0  0.28726  0.95734  0.03879  1.0000 0.5998224458
C   C148      1.0  0.04266  0.71274  0.53879  1.0000 0.5998224458
C   C149      1.0  0.24860  0.50080  0.97460  1.0000 0.0714138227
C   C150      1.0  0.49920  0.75140  0.47460  1.0000 0.0714138227
C   C151      1.0  0.24040  0.47920  0.01973  1.0000 -0.148460049
C   C152      1.0  0.52080  0.75960  0.51973  1.0000 -0.1419627564
C   C153      1.0  0.25340  0.40660  0.04260  1.0000 -0.0988357994
C   C154      1.0  0.59340  0.74660  0.54260  1.0000 -0.0988357994
C   C155      1.0  0.27418  0.35398  0.02268  1.0000 -0.0297393841
C   C156      1.0  0.64602  0.72582  0.52268  1.0000 -0.0297393841
C   C157      1.0  0.28210  0.37490  0.97699  1.0000 -0.0988357994
C   C158      1.0  0.62510  0.71790  0.47699  1.0000 -0.0988357994
C   C159      1.0  0.26900  0.44640  0.95289  1.0000 -0.1419627564
C   C160      1.0  0.55360  0.73100  0.45289  1.0000 -0.1419627564
C   C161      1.0  0.28746  0.27418  0.04935  1.0000 0.5998224458
C   C162      1.0  0.72582  0.71254  0.54935  1.0000 0.6059399254
C   C163      1.0  0.82947  0.01553  0.28835  1.0000 0.0877272908
C   C164      1.0  0.98447  0.17053  0.78835  1.0000 0.0877272908
C   C165      1.0  0.88521  0.03643  0.26545  1.0000 -0.1902934692
C   C166      1.0  0.96357  0.11479  0.76545  1.0000 -0.1902934692
C   C167      1.0  0.86864  0.07226  0.21749  1.0000 0.0877272908
C   C168      1.0  0.92774  0.13136  0.71749  1.0000 0.0877272908
C   C169      1.0  0.79437  0.08419  0.19452  1.0000 -0.1983848526
C   C170      1.0  0.91581  0.20563  0.69452  1.0000 -0.1983848526
C   C171      1.0  0.73666  0.06660  0.21784  1.0000 0.0783273375
C   C172      1.0  0.93340  0.26334  0.71784  1.0000 0.0783273375
C   C173      1.0  0.75442  0.03202  0.26491  1.0000 -0.2054080738
C   C174      1.0  0.96798  0.24558  0.76491  1.0000 -0.2054080738
C   C175      1.0  0.84583  0.97177  0.33870  1.0000 0.0783273375
C   C176      1.0  0.02823  0.15417  0.83870  1.0000 0.0783273375
C   C177      1.0  0.90909  0.98171  0.36993  1.0000 -0.1419627564
C   C178      1.0  0.01829  0.09091  0.86993  1.0000 -0.1419627564
C   C179      1.0  0.92300  0.93900  0.41457  1.0000 -0.0908967271
C   C180      1.0  0.06100  0.07700  0.91457  1.0000 -0.0988357994
C   C181      1.0  0.87720  0.88400  0.42933  1.0000 -0.0236923544
C   C182      1.0  0.11600  0.12280  0.92933  1.0000 -0.0236923544
C   C183      1.0  0.81390  0.87250  0.39718  1.0000 -0.0988357994
C   C184      1.0  0.12750  0.18610  0.89718  1.0000 -0.0988357994
C   C185      1.0  0.79690  0.91570  0.35275  1.0000 -0.148460049
C   C186      1.0  0.08430  0.20310  0.85275  1.0000 -0.148460049
C   C187      1.0  0.89479  0.83281  0.47730  1.0000 0.5998224458
C   C188      1.0  0.16719  0.10521  0.97730  1.0000 0.5998224458
C   C189      1.0  0.92899  0.09283  0.19122  1.0000 0.0714138227
C   C190      1.0  0.90717  0.07101  0.69122  1.0000 0.0714138227
C   C191      1.0  0.99490  0.12206  0.21161  1.0000 -0.1419627564
C   C192      1.0  0.87794  0.00510  0.71161  1.0000 -0.1419627564
C   C193      1.0  0.05310  0.13670  0.18911  1.0000 -0.0988357994
C   C194      1.0  0.86330  0.94690  0.68911  1.0000 -0.0988357994
C   C195      1.0  0.04596  0.12008  0.14378  1.0000 -0.0297393841
C   C196      1.0  0.87992  0.95404  0.64378  1.0000 -0.0297393841
C   C197      1.0  0.97904  0.09536  0.12305  1.0000 -0.0988357994
C   C198      1.0  0.90464  0.02096  0.62305  1.0000 -0.0988357994
C   C199      1.0  0.92080  0.08264  0.14510  1.0000 -0.148460049
C   C200      1.0  0.91736  0.07920  0.64510  1.0000 -0.148460049
C   C201      1.0  0.11255  0.12285  0.12223  1.0000 0.5998224458
C   C202      1.0  0.87715  0.88745  0.62223  1.0000 0.5998224458
C   C203      1.0  0.65915  0.08241  0.19276  1.0000 0.0714138227
C   C204      1.0  0.91759  0.34085  0.69276  1.0000 0.0714138227
C   C205      1.0  0.63410  0.06970  0.14729  1.0000 -0.1574805836
C   C206      1.0  0.93030  0.36590  0.64729  1.0000 -0.1574805836
C   C207      1.0  0.56090  0.08390  0.12351  1.0000 -0.0908967271
C   C208      1.0  0.91610  0.43910  0.62351  1.0000 -0.0908967271
C   C209      1.0  0.51108  0.10886  0.14551  1.0000 -0.0297393841
C   C210      1.0  0.89114  0.48892  0.64551  1.0000 -0.0297393841
C   C211      1.0  0.53410  0.11990  0.18993  1.0000 -0.0908967271
C   C212      1.0  0.88010  0.46590  0.68993  1.0000 -0.0908967271
C   C213      1.0  0.60710  0.10810  0.21350  1.0000 -0.148460049
C   C214      1.0  0.89190  0.39290  0.71350  1.0000 -0.148460049
C   C215      1.0  0.43172  0.12408  0.11948  1.0000 0.6059399254
C   C216      1.0  0.87592  0.56828  0.61948  1.0000 0.6059399254
O   O1        1.0  0.73955  0.89807  0.91815  1.0000 -0.9062391853
O   O2        1.0  0.10193  0.26045  0.41815  1.0000 -0.9062391853
O   O3        1.0  0.70566  0.93738  0.81813  1.0000 -0.5272704697
O   O4        1.0  0.06262  0.29434  0.31813  1.0000 -0.5272704697
O   O5        1.0  0.78562  0.02000  0.84581  1.0000 -0.5842671132
O   O6        1.0  0.98000  0.21438  0.34581  1.0000 -0.5842671132
O   O7        1.0  0.94993  0.26099  0.42474  1.0000 -0.5495659049
O   O8        1.0  0.73901  0.05007  0.92474  1.0000 -0.5495659049
O   O9        1.0  0.01577  0.31723  0.47923  1.0000 -0.5495659049
O   O10       1.0  0.68277  0.98423  0.97923  1.0000 -0.5495659049
O   O11       1.0  0.25436  0.26490  0.41299  1.0000 -0.5401711052
O   O12       1.0  0.73510  0.74564  0.91299  1.0000 -0.5401711052
O   O13       1.0  0.23265  0.31981  0.46942  1.0000 -0.5605832424
O   O14       1.0  0.68019  0.76735  0.96942  1.0000 -0.5605832424
O   O15       1.0  0.85178  0.94450  0.99192  1.0000 -0.5605832424
O   O16       1.0  0.05550  0.14822  0.49192  1.0000 -0.5605832424
O   O17       1.0  0.77425  0.85759  0.01770  1.0000 -0.5401711052
O   O18       1.0  0.14241  0.22575  0.51770  1.0000 -0.5401711052
O   O19       1.0  0.15576  0.16952  0.36132  1.0000 -0.5605832424
O   O20       1.0  0.83048  0.84424  0.86132  1.0000 -0.5605832424
O   O21       1.0  0.08753  0.10697  0.40971  1.0000 -0.5495659049
O   O22       1.0  0.89303  0.91247  0.90971  1.0000 -0.5495659049
O   O23       1.0  0.10348  0.41328  0.41930  1.0000 -0.5401711052
O   O24       1.0  0.58672  0.89652  0.91930  1.0000 -0.5401711052
O   O25       1.0  0.15503  0.39009  0.36234  1.0000 -0.5401711052
O   O26       1.0  0.60991  0.84497  0.86234  1.0000 -0.5401711052
O   O27       1.0  0.89807  0.73955  0.58185  1.0000 -0.9062391853
O   O28       1.0  0.26045  0.10193  0.08185  1.0000 -0.9062391853
O   O29       1.0  0.93738  0.70566  0.68187  1.0000 -0.5272704697
O   O30       1.0  0.29434  0.06262  0.18187  1.0000 -0.5272704697
O   O31       1.0  0.02000  0.78562  0.65419  1.0000 -0.5842671132
O   O32       1.0  0.21438  0.98000  0.15419  1.0000 -0.5842671132
O   O33       1.0  0.26099  0.94993  0.07526  1.0000 -0.5495659049
O   O34       1.0  0.05007  0.73901  0.57526  1.0000 -0.5495659049
O   O35       1.0  0.31723  0.01577  0.02077  1.0000 -0.5495659049
O   O36       1.0  0.98423  0.68277  0.52077  1.0000 -0.5495659049
O   O37       1.0  0.26490  0.25436  0.08701  1.0000 -0.5401711052
O   O38       1.0  0.74564  0.73510  0.58701  1.0000 -0.5401711052
O   O39       1.0  0.31981  0.23265  0.03058  1.0000 -0.5605832424
O   O40       1.0  0.76735  0.68019  0.53058  1.0000 -0.5605832424
O   O41       1.0  0.94450  0.85178  0.50808  1.0000 -0.5605832424
O   O42       1.0  0.14822  0.05550  0.00808  1.0000 -0.5605832424
O   O43       1.0  0.85759  0.77425  0.48230  1.0000 -0.5401711052
O   O44       1.0  0.22575  0.14241  0.98230  1.0000 -0.5401711052
O   O45       1.0  0.16952  0.15576  0.13868  1.0000 -0.5605832424
O   O46       1.0  0.84424  0.83048  0.63868  1.0000 -0.5605832424
O   O47       1.0  0.10697  0.08753  0.09029  1.0000 -0.5495659049
O   O48       1.0  0.91247  0.89303  0.59029  1.0000 -0.5495659049
O   O49       1.0  0.41328  0.10348  0.08070  1.0000 -0.5401711052
O   O50       1.0  0.89652  0.58672  0.58070  1.0000 -0.5401711052
O   O51       1.0  0.39009  0.15503  0.13766  1.0000 -0.5401711052
O   O52       1.0  0.84497  0.60991  0.63766  1.0000 -0.5401711052
