# DDEC6 charges by PACMAN v1.1 (https://github.com/mtap-research/PACMAN-charge/)
data_2023[Ni][nan]3[ASR]2
_chemical_formula_sum              "Ni6 H6 C24 O18"
_cell_length_a       15.0339
_cell_length_b       15.0339
_cell_length_c       15.0339
_cell_angle_alpha    117.793
_cell_angle_beta     117.793
_cell_angle_gamma    117.793

_symmetry_space_group_name_H-M    "P 1"
_symmetry_Int_Tables_number       1

loop_
  _symmetry_equiv_pos_as_xyz
  'x, y, z'

loop_
  _atom_site_type_symbol
  _atom_site_label
  _atom_site_symmetry_multiplicity
  _atom_site_fract_x
  _atom_site_fract_y
  _atom_site_fract_z
  _atom_site_occupancy
  _atom_site_charge
Ni  Ni1       1.0  0.52471  0.79377  0.11630  1.0000 0.9088014715
Ni  Ni2       1.0  0.79377  0.11630  0.52471  1.0000 0.9088014715
Ni  Ni3       1.0  0.11630  0.52471  0.79377  1.0000 0.9088014715
Ni  Ni4       1.0  0.47529  0.20623  0.88370  1.0000 0.9088014715
Ni  Ni5       1.0  0.20623  0.88370  0.47529  1.0000 0.9088014715
Ni  Ni6       1.0  0.88370  0.47529  0.20623  1.0000 0.9088014715
H   H1        1.0  0.20342  0.64976  0.66996  1.0000 0.1479882501
H   H2        1.0  0.64976  0.66996  0.20342  1.0000 0.1479882501
H   H3        1.0  0.66996  0.20342  0.64976  1.0000 0.1479882501
H   H4        1.0  0.79658  0.35024  0.33004  1.0000 0.1479882501
H   H5        1.0  0.35024  0.33004  0.79658  1.0000 0.1479882501
H   H6        1.0  0.33004  0.79658  0.35024  1.0000 0.1479882501
C   C1        1.0  0.75310  0.18460  0.35940  1.0000 0.6239680303
C   C2        1.0  0.18460  0.35940  0.75310  1.0000 0.6239680303
C   C3        1.0  0.35940  0.75310  0.18460  1.0000 0.6239680303
C   C4        1.0  0.24690  0.81540  0.64060  1.0000 0.6239680303
C   C5        1.0  0.81540  0.64060  0.24690  1.0000 0.6239680303
C   C6        1.0  0.64060  0.24690  0.81540  1.0000 0.6239680303
C   C7        1.0  0.61820  0.08180  0.16900  1.0000 -0.1308587588
C   C8        1.0  0.08180  0.16900  0.61820  1.0000 -0.1308587588
C   C9        1.0  0.16900  0.61820  0.08180  1.0000 -0.1308587588
C   C10       1.0  0.38180  0.91820  0.83100  1.0000 -0.1308587588
C   C11       1.0  0.91820  0.83100  0.38180  1.0000 -0.1308587588
C   C12       1.0  0.83100  0.38180  0.91820  1.0000 -0.1308587588
C   C13       1.0  0.43440  0.86530  0.96660  1.0000 0.288482413
C   C14       1.0  0.86530  0.96660  0.43440  1.0000 0.288482413
C   C15       1.0  0.96660  0.43440  0.86530  1.0000 0.288482413
C   C16       1.0  0.56560  0.13470  0.03340  1.0000 0.288482413
C   C17       1.0  0.13470  0.03340  0.56560  1.0000 0.288482413
C   C18       1.0  0.03340  0.56560  0.13470  1.0000 0.288482413
C   C19       1.0  0.32260  0.79040  0.80320  1.0000 -0.2032993458
C   C20       1.0  0.79040  0.80320  0.32260  1.0000 -0.2032993458
C   C21       1.0  0.80320  0.32260  0.79040  1.0000 -0.2032993458
C   C22       1.0  0.67740  0.20960  0.19680  1.0000 -0.2032993458
C   C23       1.0  0.20960  0.19680  0.67740  1.0000 -0.2032993458
C   C24       1.0  0.19680  0.67740  0.20960  1.0000 -0.2032993458
O   O1        1.0  0.90891  0.37399  0.53200  1.0000 -0.4942269472
O   O2        1.0  0.37399  0.53200  0.90891  1.0000 -0.4942269472
O   O3        1.0  0.53200  0.90891  0.37399  1.0000 -0.4942269472
O   O4        1.0  0.09109  0.62601  0.46800  1.0000 -0.4942269472
O   O5        1.0  0.62601  0.46800  0.09109  1.0000 -0.4942269472
O   O6        1.0  0.46800  0.09109  0.62601  1.0000 -0.4942269472
O   O7        1.0  0.70269  0.07181  0.33780  1.0000 -0.5547845013
O   O8        1.0  0.07181  0.33780  0.70269  1.0000 -0.5547845013
O   O9        1.0  0.33780  0.70269  0.07181  1.0000 -0.5547845013
O   O10       1.0  0.29731  0.92819  0.66220  1.0000 -0.5547845013
O   O11       1.0  0.92819  0.66220  0.29731  1.0000 -0.5547845013
O   O12       1.0  0.66220  0.29731  0.92819  1.0000 -0.5547845013
O   O13       1.0  0.36061  0.72602  0.91897  1.0000 -0.5864526041
O   O14       1.0  0.72602  0.91897  0.36061  1.0000 -0.5864526041
O   O15       1.0  0.91897  0.36061  0.72602  1.0000 -0.5841606505
O   O16       1.0  0.63939  0.27398  0.08103  1.0000 -0.5864526041
O   O17       1.0  0.27398  0.08103  0.63939  1.0000 -0.5864526041
O   O18       1.0  0.08103  0.63939  0.27398  1.0000 -0.5864526041
