# DDEC6 charges by PACMAN v1.1 (https://github.com/mtap-research/PACMAN-charge/)
data_2023[Th][ftw]3[ASR]1
_chemical_formula_sum              "Th24 H196 C324 N12 O140"
_cell_length_a       37.7663
_cell_length_b       37.7663
_cell_length_c       37.7663
_cell_angle_alpha    34.4642
_cell_angle_beta     34.4642
_cell_angle_gamma    34.4642

_symmetry_space_group_name_H-M    "P 1"
_symmetry_Int_Tables_number       1

loop_
  _symmetry_equiv_pos_as_xyz
  'x, y, z'

loop_
  _atom_site_type_symbol
  _atom_site_label
  _atom_site_symmetry_multiplicity
  _atom_site_fract_x
  _atom_site_fract_y
  _atom_site_fract_z
  _atom_site_occupancy
  _atom_site_charge
Th  Th1       1.0  0.17414  0.13422  0.97490  1.0000 2.2379492634
Th  Th2       1.0  0.13422  0.97490  0.17414  1.0000 2.2343673494
Th  Th3       1.0  0.97490  0.17414  0.13422  1.0000 2.2379492634
Th  Th4       1.0  0.32586  0.52510  0.36578  1.0000 2.2379492634
Th  Th5       1.0  0.52510  0.36578  0.32586  1.0000 2.2379492634
Th  Th6       1.0  0.36578  0.32586  0.52510  1.0000 2.2379492634
Th  Th7       1.0  0.82586  0.86578  0.02510  1.0000 2.2379492634
Th  Th8       1.0  0.86578  0.02510  0.82586  1.0000 2.2379492634
Th  Th9       1.0  0.02510  0.82586  0.86578  1.0000 2.2379492634
Th  Th10      1.0  0.67414  0.47490  0.63422  1.0000 2.2379492634
Th  Th11      1.0  0.47490  0.63422  0.67414  1.0000 2.2379492634
Th  Th12      1.0  0.63422  0.67414  0.47490  1.0000 2.2379492634
Th  Th13      1.0  0.24085  0.04738  0.08401  1.0000 2.3275879409
Th  Th14      1.0  0.04738  0.08401  0.24085  1.0000 2.3275879409
Th  Th15      1.0  0.08401  0.24085  0.04738  1.0000 2.3275879409
Th  Th16      1.0  0.25915  0.41599  0.45262  1.0000 2.3275879409
Th  Th17      1.0  0.41599  0.45262  0.25915  1.0000 2.3275879409
Th  Th18      1.0  0.45262  0.25915  0.41599  1.0000 2.3275879409
Th  Th19      1.0  0.75915  0.95262  0.91599  1.0000 2.3275879409
Th  Th20      1.0  0.95262  0.91599  0.75915  1.0000 2.3275879409
Th  Th21      1.0  0.91599  0.75915  0.95262  1.0000 2.3275879409
Th  Th22      1.0  0.74085  0.58401  0.54738  1.0000 2.3275879409
Th  Th23      1.0  0.58401  0.54738  0.74085  1.0000 2.3275879409
Th  Th24      1.0  0.54738  0.74085  0.58401  1.0000 2.3275879409
H   H1        1.0  0.26090  0.98630  0.05220  1.0000 0.3760680865
H   H2        1.0  0.98630  0.05220  0.26090  1.0000 0.3760680865
H   H3        1.0  0.05220  0.26090  0.98630  1.0000 0.3760680865
H   H4        1.0  0.23910  0.44780  0.51370  1.0000 0.3760680865
H   H5        1.0  0.44780  0.51370  0.23910  1.0000 0.3760680865
H   H6        1.0  0.51370  0.23910  0.44780  1.0000 0.3760680865
H   H7        1.0  0.73910  0.01370  0.94780  1.0000 0.3760680865
H   H8        1.0  0.01370  0.94780  0.73910  1.0000 0.3760680865
H   H9        1.0  0.94780  0.73910  0.01370  1.0000 0.3760680865
H   H10       1.0  0.76090  0.55220  0.48630  1.0000 0.3760680865
H   H11       1.0  0.55220  0.48630  0.76090  1.0000 0.3760680865
H   H12       1.0  0.48630  0.76090  0.55220  1.0000 0.3760680865
H   H13       1.0  0.22880  0.00390  0.01120  1.0000 0.3734193232
H   H14       1.0  0.00390  0.01120  0.22880  1.0000 0.3734193232
H   H15       1.0  0.01120  0.22880  0.00390  1.0000 0.3734193232
H   H16       1.0  0.27120  0.48880  0.49610  1.0000 0.3734193232
H   H17       1.0  0.48880  0.49610  0.27120  1.0000 0.3734193232
H   H18       1.0  0.49610  0.27120  0.48880  1.0000 0.3734193232
H   H19       1.0  0.77120  0.99610  0.98880  1.0000 0.3734193232
H   H20       1.0  0.99610  0.98880  0.77120  1.0000 0.3734193232
H   H21       1.0  0.98880  0.77120  0.99610  1.0000 0.3734193232
H   H22       1.0  0.72880  0.51120  0.50390  1.0000 0.3734193232
H   H23       1.0  0.51120  0.50390  0.72880  1.0000 0.3734193232
H   H24       1.0  0.50390  0.72880  0.51120  1.0000 0.3734193232
H   H25       1.0  0.20960  0.06850  0.93040  1.0000 0.3880634468
H   H26       1.0  0.06850  0.93040  0.20960  1.0000 0.3880634468
H   H27       1.0  0.93040  0.20960  0.06850  1.0000 0.3880634468
H   H28       1.0  0.29040  0.56960  0.43150  1.0000 0.3880634468
H   H29       1.0  0.56960  0.43150  0.29040  1.0000 0.3880634468
H   H30       1.0  0.43150  0.29040  0.56960  1.0000 0.3880634468
H   H31       1.0  0.79040  0.93150  0.06960  1.0000 0.3880634468
H   H32       1.0  0.93150  0.06960  0.79040  1.0000 0.3880634468
H   H33       1.0  0.06960  0.79040  0.93150  1.0000 0.3880634468
H   H34       1.0  0.70960  0.43040  0.56850  1.0000 0.3880634468
H   H35       1.0  0.43040  0.56850  0.70960  1.0000 0.3880634468
H   H36       1.0  0.56850  0.70960  0.43040  1.0000 0.3880634468
H   H37       1.0  0.02060  0.26680  0.88990  1.0000 0.1183000363
H   H38       1.0  0.26680  0.88990  0.02060  1.0000 0.1183000363
H   H39       1.0  0.88990  0.02060  0.26680  1.0000 0.1183000363
H   H40       1.0  0.47940  0.61010  0.23320  1.0000 0.1183000363
H   H41       1.0  0.61010  0.23320  0.47940  1.0000 0.1183000363
H   H42       1.0  0.23320  0.47940  0.61010  1.0000 0.1183000363
H   H43       1.0  0.97940  0.73320  0.11010  1.0000 0.1183000363
H   H44       1.0  0.73320  0.11010  0.97940  1.0000 0.1183000363
H   H45       1.0  0.11010  0.97940  0.73320  1.0000 0.1183000363
H   H46       1.0  0.52060  0.38990  0.76680  1.0000 0.1183000363
H   H47       1.0  0.38990  0.76680  0.52060  1.0000 0.1183000363
H   H48       1.0  0.76680  0.52060  0.38990  1.0000 0.1183000363
H   H49       1.0  0.91200  0.35740  0.90310  1.0000 0.1183000363
H   H50       1.0  0.35740  0.90310  0.91200  1.0000 0.1183000363
H   H51       1.0  0.90310  0.91200  0.35740  1.0000 0.1183000363
H   H52       1.0  0.58800  0.59690  0.14260  1.0000 0.1183000363
H   H53       1.0  0.59690  0.14260  0.58800  1.0000 0.1183000363
H   H54       1.0  0.14260  0.58800  0.59690  1.0000 0.1183000363
H   H55       1.0  0.08800  0.64260  0.09690  1.0000 0.1183000363
H   H56       1.0  0.64260  0.09690  0.08800  1.0000 0.1183000363
H   H57       1.0  0.09690  0.08800  0.64260  1.0000 0.1183000363
H   H58       1.0  0.41200  0.40310  0.85740  1.0000 0.1183000363
H   H59       1.0  0.40310  0.85740  0.41200  1.0000 0.1183000363
H   H60       1.0  0.85740  0.41200  0.40310  1.0000 0.1183000363
H   H61       1.0  0.21000  0.25870  0.73860  1.0000 0.1380850783
H   H62       1.0  0.25870  0.73860  0.21000  1.0000 0.1380850783
H   H63       1.0  0.73860  0.21000  0.25870  1.0000 0.1380850783
H   H64       1.0  0.29000  0.76140  0.24130  1.0000 0.1380850783
H   H65       1.0  0.76140  0.24130  0.29000  1.0000 0.1380850783
H   H66       1.0  0.24130  0.29000  0.76140  1.0000 0.1380850783
H   H67       1.0  0.79000  0.74130  0.26140  1.0000 0.1380850783
H   H68       1.0  0.74130  0.26140  0.79000  1.0000 0.1380850783
H   H69       1.0  0.26140  0.79000  0.74130  1.0000 0.1380850783
H   H70       1.0  0.71000  0.23860  0.75870  1.0000 0.1380850783
H   H71       1.0  0.23860  0.75870  0.71000  1.0000 0.1380850783
H   H72       1.0  0.75870  0.71000  0.23860  1.0000 0.1380850783
H   H73       1.0  0.96900  0.38020  0.73900  1.0000 0.1183000363
H   H74       1.0  0.38020  0.73900  0.96900  1.0000 0.1183000363
H   H75       1.0  0.73900  0.96900  0.38020  1.0000 0.1183000363
H   H76       1.0  0.53100  0.76100  0.11980  1.0000 0.1183000363
H   H77       1.0  0.76100  0.11980  0.53100  1.0000 0.1183000363
H   H78       1.0  0.11980  0.53100  0.76100  1.0000 0.1183000363
H   H79       1.0  0.03100  0.61980  0.26100  1.0000 0.1183000363
H   H80       1.0  0.61980  0.26100  0.03100  1.0000 0.1183000363
H   H81       1.0  0.26100  0.03100  0.61980  1.0000 0.1183000363
H   H82       1.0  0.46900  0.23900  0.88020  1.0000 0.1183000363
H   H83       1.0  0.23900  0.88020  0.46900  1.0000 0.1183000363
H   H84       1.0  0.88020  0.46900  0.23900  1.0000 0.1183000363
H   H85       1.0  0.06330  0.38200  0.68940  1.0000 0.1183000363
H   H86       1.0  0.38200  0.68940  0.06330  1.0000 0.1183000363
H   H87       1.0  0.68940  0.06330  0.38200  1.0000 0.1183000363
H   H88       1.0  0.43670  0.81060  0.11800  1.0000 0.1183000363
H   H89       1.0  0.81060  0.11800  0.43670  1.0000 0.1183000363
H   H90       1.0  0.11800  0.43670  0.81060  1.0000 0.1183000363
H   H91       1.0  0.93670  0.61800  0.31060  1.0000 0.1183000363
H   H92       1.0  0.61800  0.31060  0.93670  1.0000 0.1183000363
H   H93       1.0  0.31060  0.93670  0.61800  1.0000 0.1183000363
H   H94       1.0  0.56330  0.18940  0.88200  1.0000 0.1183000363
H   H95       1.0  0.18940  0.88200  0.56330  1.0000 0.1183000363
H   H96       1.0  0.88200  0.56330  0.18940  1.0000 0.1183000363
H   H97       1.0  0.91920  0.43540  0.68170  1.0000 0.1183000363
H   H98       1.0  0.43540  0.68170  0.91920  1.0000 0.1183000363
H   H99       1.0  0.68170  0.91920  0.43540  1.0000 0.1183000363
H   H100      1.0  0.58080  0.81830  0.06460  1.0000 0.1183000363
H   H101      1.0  0.81830  0.06460  0.58080  1.0000 0.1183000363
H   H102      1.0  0.06460  0.58080  0.81830  1.0000 0.1183000363
H   H103      1.0  0.08080  0.56460  0.31830  1.0000 0.1183000363
H   H104      1.0  0.56460  0.31830  0.08080  1.0000 0.1183000363
H   H105      1.0  0.31830  0.08080  0.56460  1.0000 0.1183000363
H   H106      1.0  0.41920  0.18170  0.93540  1.0000 0.1183000363
H   H107      1.0  0.18170  0.93540  0.41920  1.0000 0.1183000363
H   H108      1.0  0.93540  0.41920  0.18170  1.0000 0.1183000363
H   H109      1.0  0.74930  0.42670  0.86030  1.0000 0.1183000363
H   H110      1.0  0.42670  0.86030  0.74930  1.0000 0.1183000363
H   H111      1.0  0.86030  0.74930  0.42670  1.0000 0.1183000363
H   H112      1.0  0.75070  0.63970  0.07330  1.0000 0.1183000363
H   H113      1.0  0.63970  0.07330  0.75070  1.0000 0.1183000363
H   H114      1.0  0.07330  0.75070  0.63970  1.0000 0.1183000363
H   H115      1.0  0.25070  0.57330  0.13970  1.0000 0.1183000363
H   H116      1.0  0.57330  0.13970  0.25070  1.0000 0.1183000363
H   H117      1.0  0.13970  0.25070  0.57330  1.0000 0.1183000363
H   H118      1.0  0.24930  0.36030  0.92670  1.0000 0.1183000363
H   H119      1.0  0.36030  0.92670  0.24930  1.0000 0.1183000363
H   H120      1.0  0.92670  0.24930  0.36030  1.0000 0.1183000363
H   H121      1.0  0.69930  0.46560  0.94130  1.0000 0.1183000363
H   H122      1.0  0.46560  0.94130  0.69930  1.0000 0.1183000363
H   H123      1.0  0.94130  0.69930  0.46560  1.0000 0.1183000363
H   H124      1.0  0.80070  0.55870  0.03440  1.0000 0.1183000363
H   H125      1.0  0.55870  0.03440  0.80070  1.0000 0.1183000363
H   H126      1.0  0.03440  0.80070  0.55870  1.0000 0.1183000363
H   H127      1.0  0.30070  0.53440  0.05870  1.0000 0.1183000363
H   H128      1.0  0.53440  0.05870  0.30070  1.0000 0.1183000363
H   H129      1.0  0.05870  0.30070  0.53440  1.0000 0.1183000363
H   H130      1.0  0.19930  0.44130  0.96560  1.0000 0.1183000363
H   H131      1.0  0.44130  0.96560  0.19930  1.0000 0.1183000363
H   H132      1.0  0.96560  0.19930  0.44130  1.0000 0.1183000363
H   H133      1.0  0.82270  0.35070  0.01230  1.0000 0.1183000363
H   H134      1.0  0.35070  0.01230  0.82270  1.0000 0.1183000363
H   H135      1.0  0.01230  0.82270  0.35070  1.0000 0.1183000363
H   H136      1.0  0.67730  0.48770  0.14930  1.0000 0.1183000363
H   H137      1.0  0.48770  0.14930  0.67730  1.0000 0.1183000363
H   H138      1.0  0.14930  0.67730  0.48770  1.0000 0.1183000363
H   H139      1.0  0.17730  0.64930  0.98770  1.0000 0.1183000363
H   H140      1.0  0.64930  0.98770  0.17730  1.0000 0.1183000363
H   H141      1.0  0.98770  0.17730  0.64930  1.0000 0.1183000363
H   H142      1.0  0.32270  0.51230  0.85070  1.0000 0.1183000363
H   H143      1.0  0.51230  0.85070  0.32270  1.0000 0.1183000363
H   H144      1.0  0.85070  0.32270  0.51230  1.0000 0.1183000363
H   H145      1.0  0.86530  0.48380  0.63320  1.0000 0.1282856984
H   H146      1.0  0.48380  0.63320  0.86530  1.0000 0.1282856984
H   H147      1.0  0.63320  0.86530  0.48380  1.0000 0.1282856984
H   H148      1.0  0.63470  0.86680  0.01620  1.0000 0.1282856984
H   H149      1.0  0.86680  0.01620  0.63470  1.0000 0.1282856984
H   H150      1.0  0.01620  0.63470  0.86680  1.0000 0.1282856984
H   H151      1.0  0.13470  0.51620  0.36680  1.0000 0.1282856984
H   H152      1.0  0.51620  0.36680  0.13470  1.0000 0.1282856984
H   H153      1.0  0.36680  0.13470  0.51620  1.0000 0.1282856984
H   H154      1.0  0.36530  0.13320  0.98380  1.0000 0.1282856984
H   H155      1.0  0.13320  0.98380  0.36530  1.0000 0.1282856984
H   H156      1.0  0.98380  0.36530  0.13320  1.0000 0.1282856984
H   H157      1.0  0.60190  0.47430  0.04470  1.0000 0.1282856984
H   H158      1.0  0.47430  0.04470  0.60190  1.0000 0.1282856984
H   H159      1.0  0.04470  0.60190  0.47430  1.0000 0.1282856984
H   H160      1.0  0.89810  0.45530  0.02570  1.0000 0.1282856984
H   H161      1.0  0.45530  0.02570  0.89810  1.0000 0.1282856984
H   H162      1.0  0.02570  0.89810  0.45530  1.0000 0.1282856984
H   H163      1.0  0.39810  0.52570  0.95530  1.0000 0.1282856984
H   H164      1.0  0.52570  0.95530  0.39810  1.0000 0.1282856984
H   H165      1.0  0.95530  0.39810  0.52570  1.0000 0.1282856984
H   H166      1.0  0.10190  0.54470  0.97430  1.0000 0.1282856984
H   H167      1.0  0.54470  0.97430  0.10190  1.0000 0.1282856984
H   H168      1.0  0.97430  0.10190  0.54470  1.0000 0.1282856984
H   H169      1.0  0.70190  0.45770  0.81850  1.0000 0.1282856984
H   H170      1.0  0.45770  0.81850  0.70190  1.0000 0.1282856984
H   H171      1.0  0.81850  0.70190  0.45770  1.0000 0.1282856984
H   H172      1.0  0.79810  0.68150  0.04230  1.0000 0.1282856984
H   H173      1.0  0.68150  0.04230  0.79810  1.0000 0.1282856984
H   H174      1.0  0.04230  0.79810  0.68150  1.0000 0.1282856984
H   H175      1.0  0.29810  0.54230  0.18150  1.0000 0.1282856984
H   H176      1.0  0.54230  0.18150  0.29810  1.0000 0.1282856984
H   H177      1.0  0.18150  0.29810  0.54230  1.0000 0.1282856984
H   H178      1.0  0.20190  0.31850  0.95770  1.0000 0.1282856984
H   H179      1.0  0.31850  0.95770  0.20190  1.0000 0.1282856984
H   H180      1.0  0.95770  0.20190  0.31850  1.0000 0.1282856984
H   H181      1.0  0.72520  0.36380  0.11320  1.0000 0.1380850783
H   H182      1.0  0.36380  0.11320  0.72520  1.0000 0.1380850783
H   H183      1.0  0.11320  0.72520  0.36380  1.0000 0.1380850783
H   H184      1.0  0.77480  0.38680  0.13620  1.0000 0.1380850783
H   H185      1.0  0.38680  0.13620  0.77480  1.0000 0.1380850783
H   H186      1.0  0.13620  0.77480  0.38680  1.0000 0.1380850783
H   H187      1.0  0.27480  0.63620  0.88680  1.0000 0.1380850783
H   H188      1.0  0.63620  0.88680  0.27480  1.0000 0.1380850783
H   H189      1.0  0.88680  0.27480  0.63620  1.0000 0.1380850783
H   H190      1.0  0.22520  0.61320  0.86380  1.0000 0.1380850783
H   H191      1.0  0.61320  0.86380  0.22520  1.0000 0.1380850783
H   H192      1.0  0.86380  0.22520  0.61320  1.0000 0.1380850783
H   H193      1.0  0.07950  0.07950  0.07950  1.0000 0.3880634468
H   H194      1.0  0.42050  0.42050  0.42050  1.0000 0.3880634468
H   H195      1.0  0.92050  0.92050  0.92050  1.0000 0.3880634468
H   H196      1.0  0.57950  0.57950  0.57950  1.0000 0.3880634468
C   C1        1.0  0.05189  0.28129  0.84229  1.0000 -0.1491446945
C   C2        1.0  0.28129  0.84229  0.05189  1.0000 -0.1491446945
C   C3        1.0  0.84229  0.05189  0.28129  1.0000 -0.1491446945
C   C4        1.0  0.44811  0.65771  0.21871  1.0000 -0.1491446945
C   C5        1.0  0.65771  0.21871  0.44811  1.0000 -0.1491446945
C   C6        1.0  0.21871  0.44811  0.65771  1.0000 -0.1491446945
C   C7        1.0  0.94811  0.71871  0.15771  1.0000 -0.1491446945
C   C8        1.0  0.71871  0.15771  0.94811  1.0000 -0.1491446945
C   C9        1.0  0.15771  0.94811  0.71871  1.0000 -0.1491446945
C   C10       1.0  0.55189  0.34229  0.78129  1.0000 -0.1491446945
C   C11       1.0  0.34229  0.78129  0.55189  1.0000 -0.1491446945
C   C12       1.0  0.78129  0.55189  0.34229  1.0000 -0.1491446945
C   C13       1.0  0.95401  0.36311  0.81611  1.0000 0.1183000363
C   C14       1.0  0.36311  0.81611  0.95401  1.0000 0.1183000363
C   C15       1.0  0.81611  0.95401  0.36311  1.0000 0.1183000363
C   C16       1.0  0.54599  0.68389  0.13689  1.0000 0.1183000363
C   C17       1.0  0.68389  0.13689  0.54599  1.0000 0.1183000363
C   C18       1.0  0.13689  0.54599  0.68389  1.0000 0.1145196047
C   C19       1.0  0.04599  0.63689  0.18389  1.0000 0.1183000363
C   C20       1.0  0.63689  0.18389  0.04599  1.0000 0.1183000363
C   C21       1.0  0.18389  0.04599  0.63689  1.0000 0.1183000363
C   C22       1.0  0.45401  0.31611  0.86311  1.0000 0.1183000363
C   C23       1.0  0.31611  0.86311  0.45401  1.0000 0.1183000363
C   C24       1.0  0.86311  0.45401  0.31611  1.0000 0.1183000363
C   C25       1.0  0.90110  0.37010  0.87790  1.0000 -0.2587628527
C   C26       1.0  0.37010  0.87790  0.90110  1.0000 -0.2587628527
C   C27       1.0  0.87790  0.90110  0.37010  1.0000 -0.2587628527
C   C28       1.0  0.59890  0.62210  0.12990  1.0000 -0.2587628527
C   C29       1.0  0.62210  0.12990  0.59890  1.0000 -0.2587628527
C   C30       1.0  0.12990  0.59890  0.62210  1.0000 -0.2587628527
C   C31       1.0  0.09890  0.62990  0.12210  1.0000 -0.2587628527
C   C32       1.0  0.62990  0.12210  0.09890  1.0000 -0.2587628527
C   C33       1.0  0.12210  0.09890  0.62990  1.0000 -0.2587628527
C   C34       1.0  0.40110  0.37790  0.87010  1.0000 -0.2587628527
C   C35       1.0  0.37790  0.87010  0.40110  1.0000 -0.2587628527
C   C36       1.0  0.87010  0.40110  0.37790  1.0000 -0.2587628527
C   C37       1.0  0.83298  0.39608  0.90078  1.0000 0.2102654004
C   C38       1.0  0.39608  0.90078  0.83298  1.0000 0.2102654004
C   C39       1.0  0.90078  0.83298  0.39608  1.0000 0.2102654004
C   C40       1.0  0.66702  0.59922  0.10392  1.0000 0.2102654004
C   C41       1.0  0.59922  0.10392  0.66702  1.0000 0.2102654004
C   C42       1.0  0.10392  0.66702  0.59922  1.0000 0.2102654004
C   C43       1.0  0.16702  0.60392  0.09922  1.0000 0.2102654004
C   C44       1.0  0.60392  0.09922  0.16702  1.0000 0.2102654004
C   C45       1.0  0.09922  0.16702  0.60392  1.0000 0.2102654004
C   C46       1.0  0.33298  0.40078  0.89608  1.0000 0.2102654004
C   C47       1.0  0.40078  0.89608  0.33298  1.0000 0.2102654004
C   C48       1.0  0.89608  0.33298  0.40078  1.0000 0.2102654004
C   C49       1.0  0.11959  0.25309  0.82259  1.0000 -0.0199482306
C   C50       1.0  0.25309  0.82259  0.11959  1.0000 -0.0199482306
C   C51       1.0  0.82259  0.11959  0.25309  1.0000 -0.0199482306
C   C52       1.0  0.38041  0.67741  0.24691  1.0000 -0.0199482306
C   C53       1.0  0.67741  0.24691  0.38041  1.0000 -0.0199482306
C   C54       1.0  0.24691  0.38041  0.67741  1.0000 -0.0199482306
C   C55       1.0  0.88041  0.74691  0.17741  1.0000 -0.0199482306
C   C56       1.0  0.74691  0.17741  0.88041  1.0000 -0.0199482306
C   C57       1.0  0.17741  0.88041  0.74691  1.0000 -0.0199482306
C   C58       1.0  0.61959  0.32259  0.75309  1.0000 -0.0199482306
C   C59       1.0  0.32259  0.75309  0.61959  1.0000 -0.0199482306
C   C60       1.0  0.75309  0.61959  0.32259  1.0000 -0.0199482306
C   C61       1.0  0.14236  0.20216  0.87556  1.0000 0.5547752466
C   C62       1.0  0.20216  0.87556  0.14236  1.0000 0.5547752466
C   C63       1.0  0.87556  0.14236  0.20216  1.0000 0.5547752466
C   C64       1.0  0.35764  0.62444  0.29784  1.0000 0.5547752466
C   C65       1.0  0.62444  0.29784  0.35764  1.0000 0.5547752466
C   C66       1.0  0.29784  0.35764  0.62444  1.0000 0.5547752466
C   C67       1.0  0.85764  0.79784  0.12444  1.0000 0.5547752466
C   C68       1.0  0.79784  0.12444  0.85764  1.0000 0.5547752466
C   C69       1.0  0.12444  0.85764  0.79784  1.0000 0.5547752466
C   C70       1.0  0.64236  0.37556  0.70216  1.0000 0.5547752466
C   C71       1.0  0.37556  0.70216  0.64236  1.0000 0.5547752466
C   C72       1.0  0.70216  0.64236  0.37556  1.0000 0.5547752466
C   C73       1.0  0.16471  0.27601  0.75251  1.0000 -0.1133805919
C   C74       1.0  0.27601  0.75251  0.16471  1.0000 -0.1133805919
C   C75       1.0  0.75251  0.16471  0.27601  1.0000 -0.1133805919
C   C76       1.0  0.33529  0.74749  0.22399  1.0000 -0.1133805919
C   C77       1.0  0.74749  0.22399  0.33529  1.0000 -0.1133805919
C   C78       1.0  0.22399  0.33529  0.74749  1.0000 -0.1133805919
C   C79       1.0  0.83529  0.72399  0.24749  1.0000 -0.1133805919
C   C80       1.0  0.72399  0.24749  0.83529  1.0000 -0.1133805919
C   C81       1.0  0.24749  0.83529  0.72399  1.0000 -0.1133805919
C   C82       1.0  0.66471  0.25251  0.77601  1.0000 -0.1133805919
C   C83       1.0  0.25251  0.77601  0.66471  1.0000 -0.1133805919
C   C84       1.0  0.77601  0.66471  0.25251  1.0000 -0.1133805919
C   C85       1.0  0.02863  0.33073  0.79373  1.0000 0.0501990708
C   C86       1.0  0.33073  0.79373  0.02863  1.0000 0.0501990708
C   C87       1.0  0.79373  0.02863  0.33073  1.0000 0.0553272713
C   C88       1.0  0.47137  0.70627  0.16927  1.0000 0.0501990708
C   C89       1.0  0.70627  0.16927  0.47137  1.0000 0.0553272713
C   C90       1.0  0.16927  0.47137  0.70627  1.0000 0.0553272713
C   C91       1.0  0.97137  0.66927  0.20627  1.0000 0.0553272713
C   C92       1.0  0.66927  0.20627  0.97137  1.0000 0.0553272713
C   C93       1.0  0.20627  0.97137  0.66927  1.0000 0.0553272713
C   C94       1.0  0.52863  0.29373  0.83073  1.0000 0.0501990708
C   C95       1.0  0.29373  0.83073  0.52863  1.0000 0.0553272713
C   C96       1.0  0.83073  0.52863  0.29373  1.0000 0.0501990708
C   C97       1.0  0.93518  0.38328  0.78078  1.0000 -0.244076765
C   C98       1.0  0.38328  0.78078  0.93518  1.0000 -0.244076765
C   C99       1.0  0.78078  0.93518  0.38328  1.0000 -0.2454176609
C   C100      1.0  0.56482  0.71922  0.11672  1.0000 -0.244076765
C   C101      1.0  0.71922  0.11672  0.56482  1.0000 -0.244076765
C   C102      1.0  0.11672  0.56482  0.71922  1.0000 -0.244076765
C   C103      1.0  0.06482  0.61672  0.21922  1.0000 -0.244076765
C   C104      1.0  0.61672  0.21922  0.06482  1.0000 -0.244076765
C   C105      1.0  0.21922  0.06482  0.61672  1.0000 -0.244076765
C   C106      1.0  0.43518  0.28078  0.88328  1.0000 -0.244076765
C   C107      1.0  0.28078  0.88328  0.43518  1.0000 -0.244076765
C   C108      1.0  0.88328  0.43518  0.28078  1.0000 -0.244076765
C   C109      1.0  0.86559  0.40859  0.80679  1.0000 0.2102654004
C   C110      1.0  0.40859  0.80679  0.86559  1.0000 0.2102654004
C   C111      1.0  0.80679  0.86559  0.40859  1.0000 0.2102654004
C   C112      1.0  0.63441  0.69321  0.09141  1.0000 0.2102654004
C   C113      1.0  0.69321  0.09141  0.63441  1.0000 0.2102654004
C   C114      1.0  0.09141  0.63441  0.69321  1.0000 0.2102654004
C   C115      1.0  0.13441  0.59141  0.19321  1.0000 0.2102654004
C   C116      1.0  0.59141  0.19321  0.13441  1.0000 0.2102654004
C   C117      1.0  0.19321  0.13441  0.59141  1.0000 0.2102654004
C   C118      1.0  0.36559  0.30679  0.90859  1.0000 0.2102654004
C   C119      1.0  0.30679  0.90859  0.36559  1.0000 0.2102654004
C   C120      1.0  0.90859  0.36559  0.30679  1.0000 0.2102654004
C   C121      1.0  0.14449  0.32449  0.70199  1.0000 -0.0199482306
C   C122      1.0  0.32449  0.70199  0.14449  1.0000 -0.0199482306
C   C123      1.0  0.70199  0.14449  0.32449  1.0000 -0.0199482306
C   C124      1.0  0.35551  0.79801  0.17551  1.0000 -0.0199482306
C   C125      1.0  0.79801  0.17551  0.35551  1.0000 -0.0199482306
C   C126      1.0  0.17551  0.35551  0.79801  1.0000 -0.0199482306
C   C127      1.0  0.85551  0.67551  0.29801  1.0000 -0.0199482306
C   C128      1.0  0.67551  0.29801  0.85551  1.0000 -0.0199482306
C   C129      1.0  0.29801  0.85551  0.67551  1.0000 -0.0199482306
C   C130      1.0  0.64449  0.20199  0.82449  1.0000 -0.0199482306
C   C131      1.0  0.20199  0.82449  0.64449  1.0000 -0.0199482306
C   C132      1.0  0.82449  0.64449  0.20199  1.0000 -0.0199482306
C   C133      1.0  0.07686  0.35066  0.72296  1.0000 -0.1491446945
C   C134      1.0  0.35066  0.72296  0.07686  1.0000 -0.1491446945
C   C135      1.0  0.72296  0.07686  0.35066  1.0000 -0.1491446945
C   C136      1.0  0.42314  0.77704  0.14934  1.0000 -0.1491446945
C   C137      1.0  0.77704  0.14934  0.42314  1.0000 -0.1491446945
C   C138      1.0  0.14934  0.42314  0.77704  1.0000 -0.1491446945
C   C139      1.0  0.92314  0.64934  0.27704  1.0000 -0.1491446945
C   C140      1.0  0.64934  0.27704  0.92314  1.0000 -0.1491446945
C   C141      1.0  0.27704  0.92314  0.64934  1.0000 -0.1491446945
C   C142      1.0  0.57686  0.22296  0.85066  1.0000 -0.1491446945
C   C143      1.0  0.22296  0.85066  0.57686  1.0000 -0.1491446945
C   C144      1.0  0.85066  0.57686  0.22296  1.0000 -0.1491446945
C   C145      1.0  0.59034  0.42234  0.15784  1.0000 0.6183999589
C   C146      1.0  0.42234  0.15784  0.59034  1.0000 0.6183999589
C   C147      1.0  0.15784  0.59034  0.42234  1.0000 0.6183999589
C   C148      1.0  0.90966  0.34216  0.07766  1.0000 0.6183999589
C   C149      1.0  0.34216  0.07766  0.90966  1.0000 0.6183999589
C   C150      1.0  0.07766  0.90966  0.34216  1.0000 0.6183999589
C   C151      1.0  0.40966  0.57766  0.84216  1.0000 0.6183999589
C   C152      1.0  0.57766  0.84216  0.40966  1.0000 0.6183999589
C   C153      1.0  0.84216  0.40966  0.57766  1.0000 0.6183999589
C   C154      1.0  0.09034  0.65784  0.92234  1.0000 0.6183999589
C   C155      1.0  0.65784  0.92234  0.09034  1.0000 0.6183999589
C   C156      1.0  0.92234  0.09034  0.65784  1.0000 0.6183999589
C   C157      1.0  0.74359  0.50199  0.69229  1.0000 0.6183999589
C   C158      1.0  0.50199  0.69229  0.74359  1.0000 0.6183999589
C   C159      1.0  0.69229  0.74359  0.50199  1.0000 0.6183999589
C   C160      1.0  0.75641  0.80771  0.99801  1.0000 0.6183999589
C   C161      1.0  0.80771  0.99801  0.75641  1.0000 0.6183999589
C   C162      1.0  0.99801  0.75641  0.80771  1.0000 0.6183999589
C   C163      1.0  0.25641  0.49801  0.30771  1.0000 0.6183999589
C   C164      1.0  0.49801  0.30771  0.25641  1.0000 0.6183999589
C   C165      1.0  0.30771  0.25641  0.49801  1.0000 0.6183999589
C   C166      1.0  0.24359  0.19229  0.00199  1.0000 0.6183999589
C   C167      1.0  0.19229  0.00199  0.24359  1.0000 0.6183999589
C   C168      1.0  0.00199  0.24359  0.19229  1.0000 0.6183999589
C   C169      1.0  0.83859  0.43109  0.77409  1.0000 0.0501990708
C   C170      1.0  0.43109  0.77409  0.83859  1.0000 0.0501990708
C   C171      1.0  0.77409  0.83859  0.43109  1.0000 0.0501990708
C   C172      1.0  0.66141  0.72591  0.06891  1.0000 0.0501990708
C   C173      1.0  0.72591  0.06891  0.66141  1.0000 0.0501990708
C   C174      1.0  0.06891  0.66141  0.72591  1.0000 0.0501990708
C   C175      1.0  0.16141  0.56891  0.22591  1.0000 0.0501990708
C   C176      1.0  0.56891  0.22591  0.16141  1.0000 0.0501990708
C   C177      1.0  0.22591  0.16141  0.56891  1.0000 0.0501990708
C   C178      1.0  0.33859  0.27409  0.93109  1.0000 0.0501990708
C   C179      1.0  0.27409  0.93109  0.33859  1.0000 0.0501990708
C   C180      1.0  0.93109  0.33859  0.27409  1.0000 0.0501990708
C   C181      1.0  0.77208  0.40458  0.96668  1.0000 0.0501990708
C   C182      1.0  0.40458  0.96668  0.77208  1.0000 0.0501990708
C   C183      1.0  0.96668  0.77208  0.40458  1.0000 0.0501990708
C   C184      1.0  0.72792  0.53332  0.09542  1.0000 0.0501990708
C   C185      1.0  0.53332  0.09542  0.72792  1.0000 0.0501990708
C   C186      1.0  0.09542  0.72792  0.53332  1.0000 0.0501990708
C   C187      1.0  0.22792  0.59542  0.03332  1.0000 0.0501990708
C   C188      1.0  0.59542  0.03332  0.22792  1.0000 0.0501990708
C   C189      1.0  0.03332  0.22792  0.59542  1.0000 0.0501990708
C   C190      1.0  0.27208  0.46668  0.90458  1.0000 0.0501990708
C   C191      1.0  0.46668  0.90458  0.27208  1.0000 0.0501990708
C   C192      1.0  0.90458  0.27208  0.46668  1.0000 0.0501990708
C   C193      1.0  0.87296  0.44396  0.70906  1.0000 -0.1623996709
C   C194      1.0  0.44396  0.70906  0.87296  1.0000 -0.1623996709
C   C195      1.0  0.70906  0.87296  0.44396  1.0000 -0.1623996709
C   C196      1.0  0.62704  0.79094  0.05604  1.0000 -0.1623996709
C   C197      1.0  0.79094  0.05604  0.62704  1.0000 -0.1623996709
C   C198      1.0  0.05604  0.62704  0.79094  1.0000 -0.1623996709
C   C199      1.0  0.12704  0.55604  0.29094  1.0000 -0.1623996709
C   C200      1.0  0.55604  0.29094  0.12704  1.0000 -0.1623996709
C   C201      1.0  0.29094  0.12704  0.55604  1.0000 -0.1623996709
C   C202      1.0  0.37296  0.20906  0.94396  1.0000 -0.1623996709
C   C203      1.0  0.20906  0.94396  0.37296  1.0000 -0.1623996709
C   C204      1.0  0.94396  0.37296  0.20906  1.0000 -0.1623996709
C   C205      1.0  0.77436  0.43676  0.81396  1.0000 -0.1491446945
C   C206      1.0  0.43676  0.81396  0.77436  1.0000 -0.1491446945
C   C207      1.0  0.81396  0.77436  0.43676  1.0000 -0.1491446945
C   C208      1.0  0.72564  0.68604  0.06324  1.0000 -0.1491446945
C   C209      1.0  0.68604  0.06324  0.72564  1.0000 -0.1491446945
C   C210      1.0  0.06324  0.72564  0.68604  1.0000 -0.1491446945
C   C211      1.0  0.22564  0.56324  0.18604  1.0000 -0.1491446945
C   C212      1.0  0.56324  0.18604  0.22564  1.0000 -0.1491446945
C   C213      1.0  0.18604  0.22564  0.56324  1.0000 -0.1491446945
C   C214      1.0  0.27436  0.31396  0.93676  1.0000 -0.1491446945
C   C215      1.0  0.31396  0.93676  0.27436  1.0000 -0.1491446945
C   C216      1.0  0.93676  0.27436  0.31396  1.0000 -0.1491446945
C   C217      1.0  0.70493  0.44323  0.97673  1.0000 -0.1300358668
C   C218      1.0  0.44323  0.97673  0.70493  1.0000 -0.1300358668
C   C219      1.0  0.97673  0.70493  0.44323  1.0000 -0.1300358668
C   C220      1.0  0.79507  0.52327  0.05677  1.0000 -0.1300358668
C   C221      1.0  0.52327  0.05677  0.79507  1.0000 -0.1300358668
C   C222      1.0  0.05677  0.79507  0.52327  1.0000 -0.1300358668
C   C223      1.0  0.29507  0.55677  0.02327  1.0000 -0.1300358668
C   C224      1.0  0.55677  0.02327  0.29507  1.0000 -0.1300358668
C   C225      1.0  0.02327  0.29507  0.55677  1.0000 -0.1300358668
C   C226      1.0  0.20493  0.47673  0.94323  1.0000 -0.1300358668
C   C227      1.0  0.47673  0.94323  0.20493  1.0000 -0.1300358668
C   C228      1.0  0.94323  0.20493  0.47673  1.0000 -0.1300358668
C   C229      1.0  0.77835  0.37565  0.01835  1.0000 -0.144735745
C   C230      1.0  0.37565  0.01835  0.77835  1.0000 -0.1491446945
C   C231      1.0  0.01835  0.77835  0.37565  1.0000 -0.1491446945
C   C232      1.0  0.72165  0.48165  0.12435  1.0000 -0.144735745
C   C233      1.0  0.48165  0.12435  0.72165  1.0000 -0.1491446945
C   C234      1.0  0.12435  0.72165  0.48165  1.0000 -0.1491446945
C   C235      1.0  0.22165  0.62435  0.98165  1.0000 -0.144735745
C   C236      1.0  0.62435  0.98165  0.22165  1.0000 -0.144735745
C   C237      1.0  0.98165  0.22165  0.62435  1.0000 -0.144735745
C   C238      1.0  0.27835  0.51835  0.87565  1.0000 -0.1491446945
C   C239      1.0  0.51835  0.87565  0.27835  1.0000 -0.144735745
C   C240      1.0  0.87565  0.27835  0.51835  1.0000 -0.1491446945
C   C241      1.0  0.84157  0.46997  0.68057  1.0000 -0.0880691767
C   C242      1.0  0.46997  0.68057  0.84157  1.0000 -0.0880691767
C   C243      1.0  0.68057  0.84157  0.46997  1.0000 -0.0880691767
C   C244      1.0  0.65843  0.81943  0.03003  1.0000 -0.0880691767
C   C245      1.0  0.81943  0.03003  0.65843  1.0000 -0.0880691767
C   C246      1.0  0.03003  0.65843  0.81943  1.0000 -0.0880691767
C   C247      1.0  0.15843  0.53003  0.31943  1.0000 -0.0880691767
C   C248      1.0  0.53003  0.31943  0.15843  1.0000 -0.0880691767
C   C249      1.0  0.31943  0.15843  0.53003  1.0000 -0.0880691767
C   C250      1.0  0.34157  0.18057  0.96997  1.0000 -0.0880691767
C   C251      1.0  0.18057  0.96997  0.34157  1.0000 -0.0880691767
C   C252      1.0  0.96997  0.34157  0.18057  1.0000 -0.0880691767
C   C253      1.0  0.64633  0.44923  0.03833  1.0000 -0.0984352341
C   C254      1.0  0.44923  0.03833  0.64633  1.0000 -0.0984352341
C   C255      1.0  0.03833  0.64633  0.44923  1.0000 -0.0984352341
C   C256      1.0  0.85367  0.46167  0.05077  1.0000 -0.0984352341
C   C257      1.0  0.46167  0.05077  0.85367  1.0000 -0.0984352341
C   C258      1.0  0.05077  0.85367  0.46167  1.0000 -0.0984352341
C   C259      1.0  0.35367  0.55077  0.96167  1.0000 -0.0984352341
C   C260      1.0  0.55077  0.96167  0.35367  1.0000 -0.0984352341
C   C261      1.0  0.96167  0.35367  0.55077  1.0000 -0.0984352341
C   C262      1.0  0.14633  0.53833  0.94923  1.0000 -0.0984352341
C   C263      1.0  0.53833  0.94923  0.14633  1.0000 -0.0984352341
C   C264      1.0  0.94923  0.14633  0.53833  1.0000 -0.0984352341
C   C265      1.0  0.74487  0.45677  0.78867  1.0000 -0.0880691767
C   C266      1.0  0.45677  0.78867  0.74487  1.0000 -0.0880691767
C   C267      1.0  0.78867  0.74487  0.45677  1.0000 -0.0880691767
C   C268      1.0  0.75513  0.71133  0.04323  1.0000 -0.0880691767
C   C269      1.0  0.71133  0.04323  0.75513  1.0000 -0.0880691767
C   C270      1.0  0.04323  0.75513  0.71133  1.0000 -0.0880691767
C   C271      1.0  0.25513  0.54323  0.21133  1.0000 -0.0880691767
C   C272      1.0  0.54323  0.21133  0.25513  1.0000 -0.0880691767
C   C273      1.0  0.21133  0.25513  0.54323  1.0000 -0.0880691767
C   C274      1.0  0.24487  0.28867  0.95677  1.0000 -0.0880691767
C   C275      1.0  0.28867  0.95677  0.24487  1.0000 -0.0880691767
C   C276      1.0  0.95677  0.24487  0.28867  1.0000 -0.0880691767
C   C277      1.0  0.71978  0.38298  0.07928  1.0000 -0.0984352341
C   C278      1.0  0.38298  0.07928  0.71978  1.0000 -0.0984352341
C   C279      1.0  0.07928  0.71978  0.38298  1.0000 -0.0984352341
C   C280      1.0  0.78022  0.42072  0.11702  1.0000 -0.0984352341
C   C281      1.0  0.42072  0.11702  0.78022  1.0000 -0.0984352341
C   C282      1.0  0.11702  0.78022  0.42072  1.0000 -0.0984352341
C   C283      1.0  0.28022  0.61702  0.92072  1.0000 -0.0984352341
C   C284      1.0  0.61702  0.92072  0.28022  1.0000 -0.0984352341
C   C285      1.0  0.92072  0.28022  0.61702  1.0000 -0.0984352341
C   C286      1.0  0.21978  0.57928  0.88298  1.0000 -0.0984352341
C   C287      1.0  0.57928  0.88298  0.21978  1.0000 -0.0984352341
C   C288      1.0  0.88298  0.21978  0.57928  1.0000 -0.0984352341
C   C289      1.0  0.77847  0.47537  0.71997  1.0000 -0.0436702527
C   C290      1.0  0.47537  0.71997  0.77847  1.0000 -0.0436702527
C   C291      1.0  0.71997  0.77847  0.47537  1.0000 -0.0436702527
C   C292      1.0  0.72153  0.78003  0.02463  1.0000 -0.0436702527
C   C293      1.0  0.78003  0.02463  0.72153  1.0000 -0.0436702527
C   C294      1.0  0.02463  0.72153  0.78003  1.0000 -0.0436702527
C   C295      1.0  0.22153  0.52463  0.28003  1.0000 -0.0436702527
C   C296      1.0  0.52463  0.28003  0.22153  1.0000 -0.0436702527
C   C297      1.0  0.28003  0.22153  0.52463  1.0000 -0.0436702527
C   C298      1.0  0.27847  0.21997  0.97537  1.0000 -0.0436702527
C   C299      1.0  0.21997  0.97537  0.27847  1.0000 -0.0436702527
C   C300      1.0  0.97537  0.27847  0.21997  1.0000 -0.0436702527
C   C301      1.0  0.65454  0.41744  0.09074  1.0000 -0.0264967557
C   C302      1.0  0.41744  0.09074  0.65454  1.0000 -0.0264967557
C   C303      1.0  0.09074  0.65454  0.41744  1.0000 -0.0264967557
C   C304      1.0  0.84546  0.40926  0.08256  1.0000 -0.0264967557
C   C305      1.0  0.40926  0.08256  0.84546  1.0000 -0.0264967557
C   C306      1.0  0.08256  0.84546  0.40926  1.0000 -0.0264967557
C   C307      1.0  0.34546  0.58256  0.90926  1.0000 -0.0264967557
C   C308      1.0  0.58256  0.90926  0.34546  1.0000 -0.0264967557
C   C309      1.0  0.90926  0.34546  0.58256  1.0000 -0.0264967557
C   C310      1.0  0.15454  0.59074  0.91744  1.0000 -0.0264967557
C   C311      1.0  0.59074  0.91744  0.15454  1.0000 -0.0264967557
C   C312      1.0  0.91744  0.15454  0.59074  1.0000 -0.0264967557
C   C313      1.0  0.19713  0.34583  0.62603  1.0000 0.6113340245
C   C314      1.0  0.34583  0.62603  0.19713  1.0000 0.6113340245
C   C315      1.0  0.62603  0.19713  0.34583  1.0000 0.6113340245
C   C316      1.0  0.30287  0.87397  0.15417  1.0000 0.6113340245
C   C317      1.0  0.87397  0.15417  0.30287  1.0000 0.6113340245
C   C318      1.0  0.15417  0.30287  0.87397  1.0000 0.6113340245
C   C319      1.0  0.80287  0.65417  0.37397  1.0000 0.6113340245
C   C320      1.0  0.65417  0.37397  0.80287  1.0000 0.6113340245
C   C321      1.0  0.37397  0.80287  0.65417  1.0000 0.6113340245
C   C322      1.0  0.69713  0.12603  0.84583  1.0000 0.6113340245
C   C323      1.0  0.12603  0.84583  0.69713  1.0000 0.6113340245
C   C324      1.0  0.84583  0.69713  0.12603  1.0000 0.6113340245
N   N1        1.0  0.81477  0.41477  0.86637  1.0000 -0.3300470475
N   N2        1.0  0.41477  0.86637  0.81477  1.0000 -0.3300470475
N   N3        1.0  0.86637  0.81477  0.41477  1.0000 -0.3300470475
N   N4        1.0  0.68523  0.63363  0.08523  1.0000 -0.3300470475
N   N5        1.0  0.63363  0.08523  0.68523  1.0000 -0.3300470475
N   N6        1.0  0.08523  0.68523  0.63363  1.0000 -0.3300470475
N   N7        1.0  0.18523  0.58523  0.13363  1.0000 -0.3300470475
N   N8        1.0  0.58523  0.13363  0.18523  1.0000 -0.3300470475
N   N9        1.0  0.13363  0.18523  0.58523  1.0000 -0.3300470475
N   N10       1.0  0.31477  0.36637  0.91477  1.0000 -0.3300470475
N   N11       1.0  0.36637  0.91477  0.31477  1.0000 -0.3300470475
N   N12       1.0  0.91477  0.31477  0.36637  1.0000 -0.3300470475
O   O1        1.0  0.08666  0.08666  0.08666  1.0000 -0.9097953353
O   O2        1.0  0.41334  0.41334  0.41334  1.0000 -0.9097953353
O   O3        1.0  0.91334  0.91334  0.91334  1.0000 -0.9097953353
O   O4        1.0  0.58666  0.58666  0.58666  1.0000 -0.9097953353
O   O5        1.0  0.09787  0.18794  0.93991  1.0000 -0.6056904012
O   O6        1.0  0.18794  0.93991  0.09787  1.0000 -0.6056904012
O   O7        1.0  0.93991  0.09787  0.18794  1.0000 -0.6056904012
O   O8        1.0  0.40213  0.56009  0.31206  1.0000 -0.6056904012
O   O9        1.0  0.56009  0.31206  0.40213  1.0000 -0.6056904012
O   O10       1.0  0.31206  0.40213  0.56009  1.0000 -0.6056904012
O   O11       1.0  0.90213  0.81206  0.06009  1.0000 -0.6056904012
O   O12       1.0  0.81206  0.06009  0.90213  1.0000 -0.6056904012
O   O13       1.0  0.06009  0.90213  0.81206  1.0000 -0.6056904012
O   O14       1.0  0.59787  0.43991  0.68794  1.0000 -0.6056904012
O   O15       1.0  0.43991  0.68794  0.59787  1.0000 -0.6056904012
O   O16       1.0  0.68794  0.59787  0.43991  1.0000 -0.6056904012
O   O17       1.0  0.13343  0.13343  0.13343  1.0000 -0.9866542035
O   O18       1.0  0.36657  0.36657  0.36657  1.0000 -0.9791392896
O   O19       1.0  0.86657  0.86657  0.86657  1.0000 -0.9866542035
O   O20       1.0  0.63343  0.63343  0.63343  1.0000 -0.9866542035
O   O21       1.0  0.22077  0.02135  0.05893  1.0000 -0.9489349538
O   O22       1.0  0.02135  0.05893  0.22077  1.0000 -0.9489349538
O   O23       1.0  0.05893  0.22077  0.02135  1.0000 -0.9489349538
O   O24       1.0  0.27923  0.44107  0.47865  1.0000 -0.9489349538
O   O25       1.0  0.44107  0.47865  0.27923  1.0000 -0.9489349538
O   O26       1.0  0.47865  0.27923  0.44107  1.0000 -0.9489349538
O   O27       1.0  0.77923  0.97865  0.94107  1.0000 -0.9489349538
O   O28       1.0  0.97865  0.94107  0.77923  1.0000 -0.9489349538
O   O29       1.0  0.94107  0.77923  0.97865  1.0000 -0.9489349538
O   O30       1.0  0.72077  0.55893  0.52135  1.0000 -0.9489349538
O   O31       1.0  0.55893  0.52135  0.72077  1.0000 -0.9489349538
O   O32       1.0  0.52135  0.72077  0.55893  1.0000 -0.9489349538
O   O33       1.0  0.17873  0.14773  0.01923  1.0000 -1.0973212633
O   O34       1.0  0.14773  0.01923  0.17873  1.0000 -1.0973212633
O   O35       1.0  0.01923  0.17873  0.14773  1.0000 -1.0973212633
O   O36       1.0  0.32127  0.48077  0.35227  1.0000 -1.0973212633
O   O37       1.0  0.48077  0.35227  0.32127  1.0000 -1.0973212633
O   O38       1.0  0.35227  0.32127  0.48077  1.0000 -1.0973212633
O   O39       1.0  0.82127  0.85227  0.98077  1.0000 -1.0973212633
O   O40       1.0  0.85227  0.98077  0.82127  1.0000 -1.0973212633
O   O41       1.0  0.98077  0.82127  0.85227  1.0000 -1.0973212633
O   O42       1.0  0.67873  0.51923  0.64773  1.0000 -1.0973212633
O   O43       1.0  0.51923  0.64773  0.67873  1.0000 -1.0973212633
O   O44       1.0  0.64773  0.67873  0.51923  1.0000 -1.0973212633
O   O45       1.0  0.22492  0.03702  0.96633  1.0000 -0.7841170792
O   O46       1.0  0.03702  0.96633  0.22492  1.0000 -0.7841170792
O   O47       1.0  0.96633  0.22492  0.03702  1.0000 -0.7841170792
O   O48       1.0  0.27508  0.53367  0.46298  1.0000 -0.7841170792
O   O49       1.0  0.53367  0.46298  0.27508  1.0000 -0.7841170792
O   O50       1.0  0.46298  0.27508  0.53367  1.0000 -0.7841170792
O   O51       1.0  0.77508  0.96298  0.03367  1.0000 -0.7841170792
O   O52       1.0  0.96298  0.03367  0.77508  1.0000 -0.7841170792
O   O53       1.0  0.03367  0.77508  0.96298  1.0000 -0.7841170792
O   O54       1.0  0.72492  0.46633  0.53702  1.0000 -0.7841170792
O   O55       1.0  0.46633  0.53702  0.72492  1.0000 -0.7841170792
O   O56       1.0  0.53702  0.72492  0.46633  1.0000 -0.7841170792
O   O57       1.0  0.20547  0.17392  0.85611  1.0000 -0.5448030446
O   O58       1.0  0.17392  0.85611  0.20547  1.0000 -0.5448030446
O   O59       1.0  0.85611  0.20547  0.17392  1.0000 -0.5454249594
O   O60       1.0  0.29453  0.64389  0.32608  1.0000 -0.5448030446
O   O61       1.0  0.64389  0.32608  0.29453  1.0000 -0.5448030446
O   O62       1.0  0.32608  0.29453  0.64389  1.0000 -0.5448030446
O   O63       1.0  0.79453  0.82608  0.14389  1.0000 -0.5448030446
O   O64       1.0  0.82608  0.14389  0.79453  1.0000 -0.5448030446
O   O65       1.0  0.14389  0.79453  0.82608  1.0000 -0.5454249594
O   O66       1.0  0.70547  0.35611  0.67392  1.0000 -0.5448030446
O   O67       1.0  0.35611  0.67392  0.70547  1.0000 -0.5448030446
O   O68       1.0  0.67392  0.70547  0.35611  1.0000 -0.5448030446
O   O69       1.0  0.18246  0.38262  0.58006  1.0000 -0.6194636587
O   O70       1.0  0.38262  0.58006  0.18246  1.0000 -0.6194636587
O   O71       1.0  0.58006  0.18246  0.38262  1.0000 -0.6194636587
O   O72       1.0  0.31754  0.91994  0.11738  1.0000 -0.6194636587
O   O73       1.0  0.91994  0.11738  0.31754  1.0000 -0.6194636587
O   O74       1.0  0.11738  0.31754  0.91994  1.0000 -0.6194636587
O   O75       1.0  0.81754  0.61738  0.41994  1.0000 -0.6194636587
O   O76       1.0  0.61738  0.41994  0.81754  1.0000 -0.6194636587
O   O77       1.0  0.41994  0.81754  0.61738  1.0000 -0.6194636587
O   O78       1.0  0.68246  0.08006  0.88262  1.0000 -0.6194636587
O   O79       1.0  0.08006  0.88262  0.68246  1.0000 -0.6194636587
O   O80       1.0  0.88262  0.68246  0.08006  1.0000 -0.6194636587
O   O81       1.0  0.59823  0.39746  0.20234  1.0000 -0.5823081895
O   O82       1.0  0.39746  0.20234  0.59823  1.0000 -0.5823081895
O   O83       1.0  0.20234  0.59823  0.39746  1.0000 -0.5823081895
O   O84       1.0  0.90177  0.29766  0.10254  1.0000 -0.5823081895
O   O85       1.0  0.29766  0.10254  0.90177  1.0000 -0.5823081895
O   O86       1.0  0.10254  0.90177  0.29766  1.0000 -0.5823081895
O   O87       1.0  0.40177  0.60254  0.79766  1.0000 -0.5823081895
O   O88       1.0  0.60254  0.79766  0.40177  1.0000 -0.5823081895
O   O89       1.0  0.79766  0.40177  0.60254  1.0000 -0.5823081895
O   O90       1.0  0.09823  0.70234  0.89746  1.0000 -0.5823081895
O   O91       1.0  0.70234  0.89746  0.09823  1.0000 -0.5823081895
O   O92       1.0  0.89746  0.09823  0.70234  1.0000 -0.5823081895
O   O93       1.0  0.53289  0.45019  0.16539  1.0000 -0.6194636587
O   O94       1.0  0.45019  0.16539  0.53289  1.0000 -0.6194636587
O   O95       1.0  0.16539  0.53289  0.45019  1.0000 -0.6194636587
O   O96       1.0  0.96711  0.33461  0.04981  1.0000 -0.6194636587
O   O97       1.0  0.33461  0.04981  0.96711  1.0000 -0.6194636587
O   O98       1.0  0.04981  0.96711  0.33461  1.0000 -0.6194636587
O   O99       1.0  0.46711  0.54981  0.83461  1.0000 -0.6194636587
O   O100      1.0  0.54981  0.83461  0.46711  1.0000 -0.6194636587
O   O101      1.0  0.83461  0.46711  0.54981  1.0000 -0.6194636587
O   O102      1.0  0.03289  0.66539  0.95019  1.0000 -0.6194636587
O   O103      1.0  0.66539  0.95019  0.03289  1.0000 -0.6194636587
O   O104      1.0  0.95019  0.03289  0.66539  1.0000 -0.6194636587
O   O105      1.0  0.25359  0.32424  0.61393  1.0000 -0.60114321
O   O106      1.0  0.32424  0.61393  0.25359  1.0000 -0.60114321
O   O107      1.0  0.61393  0.25359  0.32424  1.0000 -0.60114321
O   O108      1.0  0.24641  0.88607  0.17576  1.0000 -0.60114321
O   O109      1.0  0.88607  0.17576  0.24641  1.0000 -0.60114321
O   O110      1.0  0.17576  0.24641  0.88607  1.0000 -0.60114321
O   O111      1.0  0.74641  0.67576  0.38607  1.0000 -0.60114321
O   O112      1.0  0.67576  0.38607  0.74641  1.0000 -0.60114321
O   O113      1.0  0.38607  0.74641  0.67576  1.0000 -0.60114321
O   O114      1.0  0.75359  0.11393  0.82424  1.0000 -0.60114321
O   O115      1.0  0.11393  0.82424  0.75359  1.0000 -0.60114321
O   O116      1.0  0.82424  0.75359  0.11393  1.0000 -0.60114321
O   O117      1.0  0.77301  0.52341  0.62831  1.0000 -0.5823081895
O   O118      1.0  0.52341  0.62831  0.77301  1.0000 -0.5823081895
O   O119      1.0  0.62831  0.77301  0.52341  1.0000 -0.5823081895
O   O120      1.0  0.72699  0.87169  0.97659  1.0000 -0.5823081895
O   O121      1.0  0.87169  0.97659  0.72699  1.0000 -0.5823081895
O   O122      1.0  0.97659  0.72699  0.87169  1.0000 -0.5823081895
O   O123      1.0  0.22699  0.47659  0.37169  1.0000 -0.5823081895
O   O124      1.0  0.47659  0.37169  0.22699  1.0000 -0.5823081895
O   O125      1.0  0.37169  0.22699  0.47659  1.0000 -0.5823081895
O   O126      1.0  0.27301  0.12831  0.02341  1.0000 -0.5823081895
O   O127      1.0  0.12831  0.02341  0.27301  1.0000 -0.5823081895
O   O128      1.0  0.02341  0.27301  0.12831  1.0000 -0.5823081895
O   O129      1.0  0.68548  0.50058  0.73618  1.0000 -0.60114321
O   O130      1.0  0.50058  0.73618  0.68548  1.0000 -0.60114321
O   O131      1.0  0.73618  0.68548  0.50058  1.0000 -0.60114321
O   O132      1.0  0.81452  0.76382  0.99942  1.0000 -0.60114321
O   O133      1.0  0.76382  0.99942  0.81452  1.0000 -0.60114321
O   O134      1.0  0.99942  0.81452  0.76382  1.0000 -0.60114321
O   O135      1.0  0.31452  0.49942  0.26382  1.0000 -0.60114321
O   O136      1.0  0.49942  0.26382  0.31452  1.0000 -0.60114321
O   O137      1.0  0.26382  0.31452  0.49942  1.0000 -0.60114321
O   O138      1.0  0.18548  0.23618  0.00058  1.0000 -0.60114321
O   O139      1.0  0.23618  0.00058  0.18548  1.0000 -0.60114321
O   O140      1.0  0.00058  0.18548  0.23618  1.0000 -0.60114321
