# DDEC6 charges by PACMAN v1.1 (https://github.com/mtap-research/PACMAN-charge/)
data_2023[Cu][nan]3[ASR]1
_chemical_formula_sum              "Cu6 H312 C372 N24"
_cell_length_a       25.3227
_cell_length_b       25.3227
_cell_length_c       18.3253
_cell_angle_alpha    90
_cell_angle_beta     90
_cell_angle_gamma    120

_symmetry_space_group_name_H-M    "P 1"
_symmetry_Int_Tables_number       1

loop_
  _symmetry_equiv_pos_as_xyz
  'x, y, z'

loop_
  _atom_site_type_symbol
  _atom_site_label
  _atom_site_symmetry_multiplicity
  _atom_site_fract_x
  _atom_site_fract_y
  _atom_site_fract_z
  _atom_site_occupancy
  _atom_site_charge
Cu  Cu1       1.0  0.00000  0.33014  0.00000  1.0000 0.1920151099
Cu  Cu2       1.0  0.66986  0.66986  0.00000  1.0000 0.1920151099
Cu  Cu3       1.0  0.33014  0.00000  0.00000  1.0000 0.1920151099
Cu  Cu4       1.0  0.00000  0.66986  0.00000  1.0000 0.1920151099
Cu  Cu5       1.0  0.33014  0.33014  0.00000  1.0000 0.1920151099
Cu  Cu6       1.0  0.66986  0.00000  0.00000  1.0000 0.1920151099
H   H1        1.0  0.06400  0.75030  0.46750  1.0000 0.1102977852
H   H2        1.0  0.24970  0.31370  0.46750  1.0000 0.1102977852
H   H3        1.0  0.68630  0.93600  0.46750  1.0000 0.1102977852
H   H4        1.0  0.93600  0.24970  0.46750  1.0000 0.1102977852
H   H5        1.0  0.75030  0.68630  0.46750  1.0000 0.1102977852
H   H6        1.0  0.31370  0.06400  0.46750  1.0000 0.1102977852
H   H7        1.0  0.75030  0.06400  0.53250  1.0000 0.1102977852
H   H8        1.0  0.31370  0.24970  0.53250  1.0000 0.1102977852
H   H9        1.0  0.93600  0.68630  0.53250  1.0000 0.1102977852
H   H10       1.0  0.24970  0.93600  0.53250  1.0000 0.1102977852
H   H11       1.0  0.68630  0.75030  0.53250  1.0000 0.1102977852
H   H12       1.0  0.06400  0.31370  0.53250  1.0000 0.1102977852
H   H13       1.0  0.08790  0.72330  0.53020  1.0000 0.0920719508
H   H14       1.0  0.27670  0.36460  0.53020  1.0000 0.0920719508
H   H15       1.0  0.63540  0.91210  0.53020  1.0000 0.0920719508
H   H16       1.0  0.91210  0.27670  0.53020  1.0000 0.0920719508
H   H17       1.0  0.72330  0.63540  0.53020  1.0000 0.0920719508
H   H18       1.0  0.36460  0.08790  0.53020  1.0000 0.0920719508
H   H19       1.0  0.72330  0.08790  0.46980  1.0000 0.0920719508
H   H20       1.0  0.36460  0.27670  0.46980  1.0000 0.0920719508
H   H21       1.0  0.91210  0.63540  0.46980  1.0000 0.0920719508
H   H22       1.0  0.27670  0.91210  0.46980  1.0000 0.0920719508
H   H23       1.0  0.63540  0.72330  0.46980  1.0000 0.0920719508
H   H24       1.0  0.08790  0.36460  0.46980  1.0000 0.0920719508
H   H25       1.0  0.20150  0.75400  0.53100  1.0000 0.0986176727
H   H26       1.0  0.24600  0.44750  0.53100  1.0000 0.0986176727
H   H27       1.0  0.55250  0.79850  0.53100  1.0000 0.0986176727
H   H28       1.0  0.79850  0.24600  0.53100  1.0000 0.0986176727
H   H29       1.0  0.75400  0.55250  0.53100  1.0000 0.0986176727
H   H30       1.0  0.44750  0.20150  0.53100  1.0000 0.0986176727
H   H31       1.0  0.75400  0.20150  0.46900  1.0000 0.0986176727
H   H32       1.0  0.44750  0.24600  0.46900  1.0000 0.0986176727
H   H33       1.0  0.79850  0.55250  0.46900  1.0000 0.0986176727
H   H34       1.0  0.24600  0.79850  0.46900  1.0000 0.0986176727
H   H35       1.0  0.55250  0.75400  0.46900  1.0000 0.0986176727
H   H36       1.0  0.20150  0.44750  0.46900  1.0000 0.0986176727
H   H37       1.0  0.20510  0.84040  0.37220  1.0000 0.0920719508
H   H38       1.0  0.15960  0.36470  0.37220  1.0000 0.0920719508
H   H39       1.0  0.63530  0.79490  0.37220  1.0000 0.0920719508
H   H40       1.0  0.79490  0.15960  0.37220  1.0000 0.0920719508
H   H41       1.0  0.84040  0.63530  0.37220  1.0000 0.0920719508
H   H42       1.0  0.36470  0.20510  0.37220  1.0000 0.0920719508
H   H43       1.0  0.84040  0.20510  0.62780  1.0000 0.0920719508
H   H44       1.0  0.36470  0.15960  0.62780  1.0000 0.0920719508
H   H45       1.0  0.79490  0.63530  0.62780  1.0000 0.0920719508
H   H46       1.0  0.15960  0.79490  0.62780  1.0000 0.0920719508
H   H47       1.0  0.63530  0.84040  0.62780  1.0000 0.0920719508
H   H48       1.0  0.20510  0.36470  0.62780  1.0000 0.0920719508
H   H49       1.0  0.13440  0.82070  0.37320  1.0000 0.0986176727
H   H50       1.0  0.17930  0.31370  0.37320  1.0000 0.0986176727
H   H51       1.0  0.68630  0.86560  0.37320  1.0000 0.0986176727
H   H52       1.0  0.86560  0.17930  0.37320  1.0000 0.0986176727
H   H53       1.0  0.82070  0.68630  0.37320  1.0000 0.0986176727
H   H54       1.0  0.31370  0.13440  0.37320  1.0000 0.0986176727
H   H55       1.0  0.82070  0.13440  0.62680  1.0000 0.0986176727
H   H56       1.0  0.31370  0.17930  0.62680  1.0000 0.0986176727
H   H57       1.0  0.86560  0.68630  0.62680  1.0000 0.0986176727
H   H58       1.0  0.17930  0.86560  0.62680  1.0000 0.0986176727
H   H59       1.0  0.68630  0.82070  0.62680  1.0000 0.0986176727
H   H60       1.0  0.13440  0.31370  0.62680  1.0000 0.0986176727
H   H61       1.0  0.09410  0.86120  0.46910  1.0000 0.0986176727
H   H62       1.0  0.13880  0.23290  0.46910  1.0000 0.0986176727
H   H63       1.0  0.76710  0.90590  0.46910  1.0000 0.0986176727
H   H64       1.0  0.90590  0.13880  0.46910  1.0000 0.0986176727
H   H65       1.0  0.86120  0.76710  0.46910  1.0000 0.0986176727
H   H66       1.0  0.23290  0.09410  0.46910  1.0000 0.0986176727
H   H67       1.0  0.86120  0.09410  0.53090  1.0000 0.0986176727
H   H68       1.0  0.23290  0.13880  0.53090  1.0000 0.0986176727
H   H69       1.0  0.90590  0.76710  0.53090  1.0000 0.0986176727
H   H70       1.0  0.13880  0.90590  0.53090  1.0000 0.0986176727
H   H71       1.0  0.76710  0.86120  0.53090  1.0000 0.0986176727
H   H72       1.0  0.09410  0.23290  0.53090  1.0000 0.0986176727
H   H73       1.0  0.04380  0.86870  0.57270  1.0000 0.1102977852
H   H74       1.0  0.13130  0.17510  0.57270  1.0000 0.1102977852
H   H75       1.0  0.82490  0.95620  0.57270  1.0000 0.1102977852
H   H76       1.0  0.95620  0.13130  0.57270  1.0000 0.1102977852
H   H77       1.0  0.86870  0.82490  0.57270  1.0000 0.1102977852
H   H78       1.0  0.17510  0.04380  0.57270  1.0000 0.1102977852
H   H79       1.0  0.86870  0.04380  0.42730  1.0000 0.1102977852
H   H80       1.0  0.17510  0.13130  0.42730  1.0000 0.1102977852
H   H81       1.0  0.95620  0.82490  0.42730  1.0000 0.1102977852
H   H82       1.0  0.13130  0.95620  0.42730  1.0000 0.1102977852
H   H83       1.0  0.82490  0.86870  0.42730  1.0000 0.1102977852
H   H84       1.0  0.04380  0.17510  0.42730  1.0000 0.1102977852
H   H85       1.0  0.96660  0.84340  0.65990  1.0000 0.1183671739
H   H86       1.0  0.15660  0.12320  0.65990  1.0000 0.1183671739
H   H87       1.0  0.87680  0.03340  0.65990  1.0000 0.1183671739
H   H88       1.0  0.03340  0.15660  0.65990  1.0000 0.1183671739
H   H89       1.0  0.84340  0.87680  0.65990  1.0000 0.1183671739
H   H90       1.0  0.12320  0.96660  0.65990  1.0000 0.1183671739
H   H91       1.0  0.84340  0.96660  0.34010  1.0000 0.1183671739
H   H92       1.0  0.12320  0.15660  0.34010  1.0000 0.1183671739
H   H93       1.0  0.03340  0.87680  0.34010  1.0000 0.1183671739
H   H94       1.0  0.15660  0.03340  0.34010  1.0000 0.1183671739
H   H95       1.0  0.87680  0.84340  0.34010  1.0000 0.1183671739
H   H96       1.0  0.96660  0.12320  0.34010  1.0000 0.1183671739
H   H97       1.0  0.98070  0.70000  0.72570  1.0000 0.1102977852
H   H98       1.0  0.30000  0.28070  0.72570  1.0000 0.1102977852
H   H99       1.0  0.71930  0.01930  0.72570  1.0000 0.1102977852
H   H100      1.0  0.01930  0.30000  0.72570  1.0000 0.1102977852
H   H101      1.0  0.70000  0.71930  0.72570  1.0000 0.1102977852
H   H102      1.0  0.28070  0.98070  0.72570  1.0000 0.1102977852
H   H103      1.0  0.70000  0.98070  0.27430  1.0000 0.1102977852
H   H104      1.0  0.28070  0.30000  0.27430  1.0000 0.1102977852
H   H105      1.0  0.01930  0.71930  0.27430  1.0000 0.1102977852
H   H106      1.0  0.30000  0.01930  0.27430  1.0000 0.1102977852
H   H107      1.0  0.71930  0.70000  0.27430  1.0000 0.1102977852
H   H108      1.0  0.98070  0.28070  0.27430  1.0000 0.1102977852
H   H109      1.0  0.06060  0.72570  0.64960  1.0000 0.1102977852
H   H110      1.0  0.27430  0.33490  0.64960  1.0000 0.1102977852
H   H111      1.0  0.66510  0.93940  0.64960  1.0000 0.1102977852
H   H112      1.0  0.93940  0.27430  0.64960  1.0000 0.1102977852
H   H113      1.0  0.72570  0.66510  0.64960  1.0000 0.1102977852
H   H114      1.0  0.33490  0.06060  0.64960  1.0000 0.1102977852
H   H115      1.0  0.72570  0.06060  0.35040  1.0000 0.1102977852
H   H116      1.0  0.33490  0.27430  0.35040  1.0000 0.1102977852
H   H117      1.0  0.93940  0.66510  0.35040  1.0000 0.1102977852
H   H118      1.0  0.27430  0.93940  0.35040  1.0000 0.1102977852
H   H119      1.0  0.66510  0.72570  0.35040  1.0000 0.1102977852
H   H120      1.0  0.06060  0.33490  0.35040  1.0000 0.1102977852
H   H121      1.0  0.90470  0.70070  0.77380  1.0000 0.1102977852
H   H122      1.0  0.29930  0.20400  0.77380  1.0000 0.1102977852
H   H123      1.0  0.79600  0.09530  0.77380  1.0000 0.1102977852
H   H124      1.0  0.09530  0.29930  0.77380  1.0000 0.1102977852
H   H125      1.0  0.70070  0.79600  0.77380  1.0000 0.1102977852
H   H126      1.0  0.20400  0.90470  0.77380  1.0000 0.1102977852
H   H127      1.0  0.70070  0.90470  0.22620  1.0000 0.1102977852
H   H128      1.0  0.20400  0.29930  0.22620  1.0000 0.1102977852
H   H129      1.0  0.09530  0.79600  0.22620  1.0000 0.1102977852
H   H130      1.0  0.29930  0.09530  0.22620  1.0000 0.1102977852
H   H131      1.0  0.79600  0.70070  0.22620  1.0000 0.1102977852
H   H132      1.0  0.90470  0.20400  0.22620  1.0000 0.1102977852
H   H133      1.0  0.90140  0.80690  0.76550  1.0000 0.1183671739
H   H134      1.0  0.19310  0.09450  0.76550  1.0000 0.1183671739
H   H135      1.0  0.90550  0.09860  0.76550  1.0000 0.1183671739
H   H136      1.0  0.09860  0.19310  0.76550  1.0000 0.1183671739
H   H137      1.0  0.80690  0.90550  0.76550  1.0000 0.1183671739
H   H138      1.0  0.09450  0.90140  0.76550  1.0000 0.1183671739
H   H139      1.0  0.80690  0.90140  0.23450  1.0000 0.1183671739
H   H140      1.0  0.09450  0.19310  0.23450  1.0000 0.1183671739
H   H141      1.0  0.09860  0.90550  0.23450  1.0000 0.1183671739
H   H142      1.0  0.19310  0.09860  0.23450  1.0000 0.1183671739
H   H143      1.0  0.90550  0.80690  0.23450  1.0000 0.1183671739
H   H144      1.0  0.90140  0.09450  0.23450  1.0000 0.1183671739
H   H145      1.0  0.83890  0.82020  0.84060  1.0000 0.1296170273
H   H146      1.0  0.17980  0.01870  0.84060  1.0000 0.1296170273
H   H147      1.0  0.98130  0.16110  0.84060  1.0000 0.1296170273
H   H148      1.0  0.16110  0.17980  0.84060  1.0000 0.1296170273
H   H149      1.0  0.82020  0.98130  0.84060  1.0000 0.1296170273
H   H150      1.0  0.01870  0.83890  0.84060  1.0000 0.1296170273
H   H151      1.0  0.82020  0.83890  0.15940  1.0000 0.1296170273
H   H152      1.0  0.01870  0.17980  0.15940  1.0000 0.1296170273
H   H153      1.0  0.16110  0.98130  0.15940  1.0000 0.1296170273
H   H154      1.0  0.17980  0.16110  0.15940  1.0000 0.1296170273
H   H155      1.0  0.98130  0.82020  0.15940  1.0000 0.1296170273
H   H156      1.0  0.83890  0.01870  0.15940  1.0000 0.1296170273
H   H157      1.0  0.75320  0.78450  0.91850  1.0000 0.0986176727
H   H158      1.0  0.21550  0.96870  0.91850  1.0000 0.0986176727
H   H159      1.0  0.03130  0.24680  0.91850  1.0000 0.0986176727
H   H160      1.0  0.24680  0.21550  0.91850  1.0000 0.0986176727
H   H161      1.0  0.78450  0.03130  0.91850  1.0000 0.0986176727
H   H162      1.0  0.96870  0.75320  0.91850  1.0000 0.0986176727
H   H163      1.0  0.78450  0.75320  0.08150  1.0000 0.0986176727
H   H164      1.0  0.96870  0.21550  0.08150  1.0000 0.0986176727
H   H165      1.0  0.24680  0.03130  0.08150  1.0000 0.0986176727
H   H166      1.0  0.21550  0.24680  0.08150  1.0000 0.0986176727
H   H167      1.0  0.03130  0.78450  0.08150  1.0000 0.0986176727
H   H168      1.0  0.75320  0.96870  0.08150  1.0000 0.0986176727
H   H169      1.0  0.75630  0.63250  0.95020  1.0000 0.0920719508
H   H170      1.0  0.36750  0.12380  0.95020  1.0000 0.0920719508
H   H171      1.0  0.87620  0.24370  0.95020  1.0000 0.0920719508
H   H172      1.0  0.24370  0.36750  0.95020  1.0000 0.0920719508
H   H173      1.0  0.63250  0.87620  0.95020  1.0000 0.0920719508
H   H174      1.0  0.12380  0.75630  0.95020  1.0000 0.0920719508
H   H175      1.0  0.63250  0.75630  0.04980  1.0000 0.0920719508
H   H176      1.0  0.12380  0.36750  0.04980  1.0000 0.0920719508
H   H177      1.0  0.24370  0.87620  0.04980  1.0000 0.0920719508
H   H178      1.0  0.36750  0.24370  0.04980  1.0000 0.0920719508
H   H179      1.0  0.87620  0.63250  0.04980  1.0000 0.0920719508
H   H180      1.0  0.75630  0.12380  0.04980  1.0000 0.0920719508
H   H181      1.0  0.83310  0.66020  0.86640  1.0000 0.1296170273
H   H182      1.0  0.33980  0.17290  0.86640  1.0000 0.1296170273
H   H183      1.0  0.82710  0.16690  0.86640  1.0000 0.1296170273
H   H184      1.0  0.16690  0.33980  0.86640  1.0000 0.1296170273
H   H185      1.0  0.66020  0.82710  0.86640  1.0000 0.1296170273
H   H186      1.0  0.17290  0.83310  0.86640  1.0000 0.1296170273
H   H187      1.0  0.66020  0.83310  0.13360  1.0000 0.1296170273
H   H188      1.0  0.17290  0.33980  0.13360  1.0000 0.1296170273
H   H189      1.0  0.16690  0.82710  0.13360  1.0000 0.1296170273
H   H190      1.0  0.33980  0.16690  0.13360  1.0000 0.1296170273
H   H191      1.0  0.82710  0.66020  0.13360  1.0000 0.1296170273
H   H192      1.0  0.83310  0.17290  0.13360  1.0000 0.1296170273
H   H193      1.0  0.14940  0.75780  0.30710  1.0000 0.1102977852
H   H194      1.0  0.24220  0.39160  0.30710  1.0000 0.1102977852
H   H195      1.0  0.60840  0.85060  0.30710  1.0000 0.1102977852
H   H196      1.0  0.85060  0.24220  0.30710  1.0000 0.1102977852
H   H197      1.0  0.75780  0.60840  0.30710  1.0000 0.1102977852
H   H198      1.0  0.39160  0.14940  0.30710  1.0000 0.1102977852
H   H199      1.0  0.75780  0.14940  0.69290  1.0000 0.1102977852
H   H200      1.0  0.39160  0.24220  0.69290  1.0000 0.1102977852
H   H201      1.0  0.85060  0.60840  0.69290  1.0000 0.1102977852
H   H202      1.0  0.24220  0.85060  0.69290  1.0000 0.1102977852
H   H203      1.0  0.60840  0.75780  0.69290  1.0000 0.1102977852
H   H204      1.0  0.14940  0.39160  0.69290  1.0000 0.1102977852
H   H205      1.0  0.12230  0.67240  0.23600  1.0000 0.1102977852
H   H206      1.0  0.32760  0.44990  0.23600  1.0000 0.1102977852
H   H207      1.0  0.55010  0.87770  0.23600  1.0000 0.1102977852
H   H208      1.0  0.87770  0.32760  0.23600  1.0000 0.1102977852
H   H209      1.0  0.67240  0.55010  0.23600  1.0000 0.1102977852
H   H210      1.0  0.44990  0.12230  0.23600  1.0000 0.1102977852
H   H211      1.0  0.67240  0.12230  0.76400  1.0000 0.1102977852
H   H212      1.0  0.44990  0.32760  0.76400  1.0000 0.1102977852
H   H213      1.0  0.87770  0.55010  0.76400  1.0000 0.1102977852
H   H214      1.0  0.32760  0.87770  0.76400  1.0000 0.1102977852
H   H215      1.0  0.55010  0.67240  0.76400  1.0000 0.1102977852
H   H216      1.0  0.12230  0.44990  0.76400  1.0000 0.1102977852
H   H217      1.0  0.09520  0.57310  0.41920  1.0000 0.1183671739
H   H218      1.0  0.42690  0.52210  0.41920  1.0000 0.1183671739
H   H219      1.0  0.47790  0.90480  0.41920  1.0000 0.1183671739
H   H220      1.0  0.90480  0.42690  0.41920  1.0000 0.1183671739
H   H221      1.0  0.57310  0.47790  0.41920  1.0000 0.1183671739
H   H222      1.0  0.52210  0.09520  0.41920  1.0000 0.1183671739
H   H223      1.0  0.57310  0.09520  0.58080  1.0000 0.1183671739
H   H224      1.0  0.52210  0.42690  0.58080  1.0000 0.1183671739
H   H225      1.0  0.90480  0.47790  0.58080  1.0000 0.1183671739
H   H226      1.0  0.42690  0.90480  0.58080  1.0000 0.1183671739
H   H227      1.0  0.47790  0.57310  0.58080  1.0000 0.1183671739
H   H228      1.0  0.09520  0.52210  0.58080  1.0000 0.1183671739
H   H229      1.0  0.12690  0.66050  0.48800  1.0000 0.1183671739
H   H230      1.0  0.33950  0.46640  0.48800  1.0000 0.1183671739
H   H231      1.0  0.53360  0.87310  0.48800  1.0000 0.1183671739
H   H232      1.0  0.87310  0.33950  0.48800  1.0000 0.1183671739
H   H233      1.0  0.66050  0.53360  0.48800  1.0000 0.1183671739
H   H234      1.0  0.46640  0.12690  0.48800  1.0000 0.1183671739
H   H235      1.0  0.66050  0.12690  0.51200  1.0000 0.1183671739
H   H236      1.0  0.46640  0.33950  0.51200  1.0000 0.1183671739
H   H237      1.0  0.87310  0.53360  0.51200  1.0000 0.1183671739
H   H238      1.0  0.33950  0.87310  0.51200  1.0000 0.1183671739
H   H239      1.0  0.53360  0.66050  0.51200  1.0000 0.1183671739
H   H240      1.0  0.12690  0.46640  0.51200  1.0000 0.1183671739
H   H241      1.0  0.07320  0.52110  0.30060  1.0000 0.1102977852
H   H242      1.0  0.47890  0.55210  0.30060  1.0000 0.1102977852
H   H243      1.0  0.44790  0.92680  0.30060  1.0000 0.1102977852
H   H244      1.0  0.92680  0.47890  0.30060  1.0000 0.1102977852
H   H245      1.0  0.52110  0.44790  0.30060  1.0000 0.1102977852
H   H246      1.0  0.55210  0.07320  0.30060  1.0000 0.1102977852
H   H247      1.0  0.52110  0.07320  0.69940  1.0000 0.1102977852
H   H248      1.0  0.55210  0.47890  0.69940  1.0000 0.1102977852
H   H249      1.0  0.92680  0.44790  0.69940  1.0000 0.1102977852
H   H250      1.0  0.47890  0.92680  0.69940  1.0000 0.1102977852
H   H251      1.0  0.44790  0.52110  0.69940  1.0000 0.1102977852
H   H252      1.0  0.07320  0.55210  0.69940  1.0000 0.1102977852
H   H253      1.0  0.12030  0.59490  0.18200  1.0000 0.1102977852
H   H254      1.0  0.40510  0.52540  0.18200  1.0000 0.1102977852
H   H255      1.0  0.47460  0.87970  0.18200  1.0000 0.1102977852
H   H256      1.0  0.87970  0.40510  0.18200  1.0000 0.1102977852
H   H257      1.0  0.59490  0.47460  0.18200  1.0000 0.1102977852
H   H258      1.0  0.52540  0.12030  0.18200  1.0000 0.1102977852
H   H259      1.0  0.59490  0.12030  0.81800  1.0000 0.1102977852
H   H260      1.0  0.52540  0.40510  0.81800  1.0000 0.1102977852
H   H261      1.0  0.87970  0.47460  0.81800  1.0000 0.1102977852
H   H262      1.0  0.40510  0.87970  0.81800  1.0000 0.1102977852
H   H263      1.0  0.47460  0.59490  0.81800  1.0000 0.1102977852
H   H264      1.0  0.12030  0.52540  0.81800  1.0000 0.1102977852
H   H265      1.0  0.11520  0.54750  0.06610  1.0000 0.1183671739
H   H266      1.0  0.45250  0.56770  0.06610  1.0000 0.1183671739
H   H267      1.0  0.43230  0.88480  0.06610  1.0000 0.1183671739
H   H268      1.0  0.88480  0.45250  0.06610  1.0000 0.1183671739
H   H269      1.0  0.54750  0.43230  0.06610  1.0000 0.1183671739
H   H270      1.0  0.56770  0.11520  0.06610  1.0000 0.1183671739
H   H271      1.0  0.54750  0.11520  0.93390  1.0000 0.1183671739
H   H272      1.0  0.56770  0.45250  0.93390  1.0000 0.1183671739
H   H273      1.0  0.88480  0.43230  0.93390  1.0000 0.1183671739
H   H274      1.0  0.45250  0.88480  0.93390  1.0000 0.1183671739
H   H275      1.0  0.43230  0.54750  0.93390  1.0000 0.1183671739
H   H276      1.0  0.11520  0.56770  0.93390  1.0000 0.1183671739
H   H277      1.0  0.07590  0.46070  0.99350  1.0000 0.0920719508
H   H278      1.0  0.53930  0.61520  0.99350  1.0000 0.0920719508
H   H279      1.0  0.38480  0.92410  0.99350  1.0000 0.0920719508
H   H280      1.0  0.92410  0.53930  0.99350  1.0000 0.0920719508
H   H281      1.0  0.46070  0.38480  0.99350  1.0000 0.0920719508
H   H282      1.0  0.61520  0.07590  0.99350  1.0000 0.0920719508
H   H283      1.0  0.46070  0.07590  0.00650  1.0000 0.0920719508
H   H284      1.0  0.61520  0.53930  0.00650  1.0000 0.0920719508
H   H285      1.0  0.92410  0.38480  0.00650  1.0000 0.0920719508
H   H286      1.0  0.53930  0.92410  0.00650  1.0000 0.0920719508
H   H287      1.0  0.38480  0.46070  0.00650  1.0000 0.0920719508
H   H288      1.0  0.07590  0.61520  0.00650  1.0000 0.0920719508
H   H289      1.0  0.00090  0.35590  0.15520  1.0000 0.0986176727
H   H290      1.0  0.64410  0.64500  0.15520  1.0000 0.0986176727
H   H291      1.0  0.35500  0.99910  0.15520  1.0000 0.0986176727
H   H292      1.0  0.99910  0.64410  0.15520  1.0000 0.0986176727
H   H293      1.0  0.35590  0.35500  0.15520  1.0000 0.0986176727
H   H294      1.0  0.64500  0.00090  0.15520  1.0000 0.0986176727
H   H295      1.0  0.35590  0.00090  0.84480  1.0000 0.0986176727
H   H296      1.0  0.64500  0.64410  0.84480  1.0000 0.0986176727
H   H297      1.0  0.99910  0.35500  0.84480  1.0000 0.0986176727
H   H298      1.0  0.64410  0.99910  0.84480  1.0000 0.0986176727
H   H299      1.0  0.35500  0.35590  0.84480  1.0000 0.0986176727
H   H300      1.0  0.00090  0.64500  0.84480  1.0000 0.0986176727
H   H301      1.0  0.03330  0.43630  0.23660  1.0000 0.1296170273
H   H302      1.0  0.56370  0.59700  0.23660  1.0000 0.1296170273
H   H303      1.0  0.40300  0.96670  0.23660  1.0000 0.1296170273
H   H304      1.0  0.96670  0.56370  0.23660  1.0000 0.1296170273
H   H305      1.0  0.43630  0.40300  0.23660  1.0000 0.1296170273
H   H306      1.0  0.59700  0.03330  0.23660  1.0000 0.1296170273
H   H307      1.0  0.43630  0.03330  0.76340  1.0000 0.1296170273
H   H308      1.0  0.59700  0.56370  0.76340  1.0000 0.1296170273
H   H309      1.0  0.96670  0.40300  0.76340  1.0000 0.1296170273
H   H310      1.0  0.56370  0.96670  0.76340  1.0000 0.1296170273
H   H311      1.0  0.40300  0.43630  0.76340  1.0000 0.1296170273
H   H312      1.0  0.03330  0.59700  0.76340  1.0000 0.1296170273
C   C1        1.0  0.11390  0.81530  0.54890  1.0000 0.169204703
C   C2        1.0  0.18470  0.29860  0.54890  1.0000 0.169204703
C   C3        1.0  0.70140  0.88610  0.54890  1.0000 0.169204703
C   C4        1.0  0.88610  0.18470  0.54890  1.0000 0.169204703
C   C5        1.0  0.81530  0.70140  0.54890  1.0000 0.169204703
C   C6        1.0  0.29860  0.11390  0.54890  1.0000 0.169204703
C   C7        1.0  0.81530  0.11390  0.45110  1.0000 0.169204703
C   C8        1.0  0.29860  0.18470  0.45110  1.0000 0.169204703
C   C9        1.0  0.88610  0.70140  0.45110  1.0000 0.169204703
C   C10       1.0  0.18470  0.88610  0.45110  1.0000 0.169204703
C   C11       1.0  0.70140  0.81530  0.45110  1.0000 0.169204703
C   C12       1.0  0.11390  0.29860  0.45110  1.0000 0.169204703
C   C13       1.0  0.09910  0.75950  0.49940  1.0000 -0.2980887855
C   C14       1.0  0.24050  0.33960  0.49940  1.0000 -0.2980887855
C   C15       1.0  0.66040  0.90090  0.49940  1.0000 -0.2980887855
C   C16       1.0  0.90090  0.24050  0.49940  1.0000 -0.2980887855
C   C17       1.0  0.75950  0.66040  0.49940  1.0000 -0.2980887855
C   C18       1.0  0.33960  0.09910  0.49940  1.0000 -0.2980887855
C   C19       1.0  0.75950  0.09910  0.50060  1.0000 -0.2980887855
C   C20       1.0  0.33960  0.24050  0.50060  1.0000 -0.2980887855
C   C21       1.0  0.90090  0.66040  0.50060  1.0000 -0.2980887855
C   C22       1.0  0.24050  0.90090  0.50060  1.0000 -0.2980887855
C   C23       1.0  0.66040  0.75950  0.50060  1.0000 -0.2980887855
C   C24       1.0  0.09910  0.33960  0.50060  1.0000 -0.2980887855
C   C25       1.0  0.15570  0.77350  0.45140  1.0000 0.169204703
C   C26       1.0  0.22650  0.38220  0.45140  1.0000 0.169204703
C   C27       1.0  0.61780  0.84430  0.45140  1.0000 0.169204703
C   C28       1.0  0.84430  0.22650  0.45140  1.0000 0.169204703
C   C29       1.0  0.77350  0.61780  0.45140  1.0000 0.169204703
C   C30       1.0  0.38220  0.15570  0.45140  1.0000 0.169204703
C   C31       1.0  0.77350  0.15570  0.54860  1.0000 0.169204703
C   C32       1.0  0.38220  0.22650  0.54860  1.0000 0.169204703
C   C33       1.0  0.84430  0.61780  0.54860  1.0000 0.169204703
C   C34       1.0  0.22650  0.84430  0.54860  1.0000 0.169204703
C   C35       1.0  0.61780  0.77350  0.54860  1.0000 0.169204703
C   C36       1.0  0.15570  0.38220  0.54860  1.0000 0.169204703
C   C37       1.0  0.21050  0.78950  0.50000  1.0000 -0.3198770647
C   C38       1.0  0.21050  0.42100  0.50000  1.0000 -0.3198770647
C   C39       1.0  0.57900  0.78950  0.50000  1.0000 -0.3198770647
C   C40       1.0  0.78950  0.21050  0.50000  1.0000 -0.3198770647
C   C41       1.0  0.78950  0.57900  0.50000  1.0000 -0.3198770647
C   C42       1.0  0.42100  0.21050  0.50000  1.0000 -0.3198770647
C   C43       1.0  0.17000  0.83050  0.40450  1.0000 -0.3072599784
C   C44       1.0  0.16950  0.33950  0.40450  1.0000 -0.3072599784
C   C45       1.0  0.66050  0.83000  0.40450  1.0000 -0.3072599784
C   C46       1.0  0.83000  0.16950  0.40450  1.0000 -0.3072599784
C   C47       1.0  0.83050  0.66050  0.40450  1.0000 -0.3072599784
C   C48       1.0  0.33950  0.17000  0.40450  1.0000 -0.3072599784
C   C49       1.0  0.83050  0.17000  0.59550  1.0000 -0.3072599784
C   C50       1.0  0.33950  0.16950  0.59550  1.0000 -0.3072599784
C   C51       1.0  0.83000  0.66050  0.59550  1.0000 -0.3072599784
C   C52       1.0  0.16950  0.83000  0.59550  1.0000 -0.3072599784
C   C53       1.0  0.66050  0.83050  0.59550  1.0000 -0.3072599784
C   C54       1.0  0.17000  0.33950  0.59550  1.0000 -0.3072599784
C   C55       1.0  0.12970  0.87030  0.50000  1.0000 -0.3310230339
C   C56       1.0  0.12970  0.25940  0.50000  1.0000 -0.3310230339
C   C57       1.0  0.74060  0.87030  0.50000  1.0000 -0.3310230339
C   C58       1.0  0.87030  0.12970  0.50000  1.0000 -0.3310230339
C   C59       1.0  0.87030  0.74060  0.50000  1.0000 -0.3310230339
C   C60       1.0  0.25940  0.12970  0.50000  1.0000 -0.3310230339
C   C61       1.0  0.06040  0.80020  0.59900  1.0000 0.0455772112
C   C62       1.0  0.19980  0.26020  0.59900  1.0000 0.0455772112
C   C63       1.0  0.73980  0.93960  0.59900  1.0000 0.0455772112
C   C64       1.0  0.93960  0.19980  0.59900  1.0000 0.0455772112
C   C65       1.0  0.80020  0.73980  0.59900  1.0000 0.0404648724
C   C66       1.0  0.26020  0.06040  0.59900  1.0000 0.0455772112
C   C67       1.0  0.80020  0.06040  0.40100  1.0000 0.0455772112
C   C68       1.0  0.26020  0.19980  0.40100  1.0000 0.0455772112
C   C69       1.0  0.93960  0.73980  0.40100  1.0000 0.0404648724
C   C70       1.0  0.19980  0.93960  0.40100  1.0000 0.0455772112
C   C71       1.0  0.73980  0.80020  0.40100  1.0000 0.0455772112
C   C72       1.0  0.06040  0.26020  0.40100  1.0000 0.0455772112
C   C73       1.0  0.03200  0.83480  0.60410  1.0000 -0.1689205003
C   C74       1.0  0.16520  0.19720  0.60410  1.0000 -0.1689205003
C   C75       1.0  0.80280  0.96800  0.60410  1.0000 -0.1689205003
C   C76       1.0  0.96800  0.16520  0.60410  1.0000 -0.1689205003
C   C77       1.0  0.83480  0.80280  0.60410  1.0000 -0.1689205003
C   C78       1.0  0.19720  0.03200  0.60410  1.0000 -0.1689205003
C   C79       1.0  0.83480  0.03200  0.39590  1.0000 -0.1689205003
C   C80       1.0  0.19720  0.16520  0.39590  1.0000 -0.1689205003
C   C81       1.0  0.96800  0.80280  0.39590  1.0000 -0.1689205003
C   C82       1.0  0.16520  0.96800  0.39590  1.0000 -0.1689205003
C   C83       1.0  0.80280  0.83480  0.39590  1.0000 -0.1689205003
C   C84       1.0  0.03200  0.19720  0.39590  1.0000 -0.1689205003
C   C85       1.0  0.98560  0.81930  0.65620  1.0000 -0.1611746229
C   C86       1.0  0.18070  0.16630  0.65620  1.0000 -0.1611746229
C   C87       1.0  0.83370  0.01440  0.65620  1.0000 -0.1611746229
C   C88       1.0  0.01440  0.18070  0.65620  1.0000 -0.1611746229
C   C89       1.0  0.81930  0.83370  0.65620  1.0000 -0.1611746229
C   C90       1.0  0.16630  0.98560  0.65620  1.0000 -0.1611746229
C   C91       1.0  0.81930  0.98560  0.34380  1.0000 -0.1611746229
C   C92       1.0  0.16630  0.18070  0.34380  1.0000 -0.1611746229
C   C93       1.0  0.01440  0.83370  0.34380  1.0000 -0.1611746229
C   C94       1.0  0.18070  0.01440  0.34380  1.0000 -0.1611746229
C   C95       1.0  0.83370  0.81930  0.34380  1.0000 -0.1611746229
C   C96       1.0  0.98560  0.16630  0.34380  1.0000 -0.1611746229
C   C97       1.0  0.96670  0.76830  0.70320  1.0000 0.0920719508
C   C98       1.0  0.23170  0.19840  0.70320  1.0000 0.0920719508
C   C99       1.0  0.80160  0.03330  0.70320  1.0000 0.0920719508
C   C100      1.0  0.03330  0.23170  0.70320  1.0000 0.0920719508
C   C101      1.0  0.76830  0.80160  0.70320  1.0000 0.0920719508
C   C102      1.0  0.19840  0.96670  0.70320  1.0000 0.0920719508
C   C103      1.0  0.76830  0.96670  0.29680  1.0000 0.0920719508
C   C104      1.0  0.19840  0.23170  0.29680  1.0000 0.0920719508
C   C105      1.0  0.03330  0.80160  0.29680  1.0000 0.0920719508
C   C106      1.0  0.23170  0.03330  0.29680  1.0000 0.0920719508
C   C107      1.0  0.80160  0.76830  0.29680  1.0000 0.0920719508
C   C108      1.0  0.96670  0.19840  0.29680  1.0000 0.0920719508
C   C109      1.0  0.99450  0.73530  0.69610  1.0000 -0.1498589698
C   C110      1.0  0.26470  0.25920  0.69610  1.0000 -0.1498589698
C   C111      1.0  0.74080  0.00550  0.69610  1.0000 -0.1498589698
C   C112      1.0  0.00550  0.26470  0.69610  1.0000 -0.1498589698
C   C113      1.0  0.73530  0.74080  0.69610  1.0000 -0.1498589698
C   C114      1.0  0.25920  0.99450  0.69610  1.0000 -0.1498589698
C   C115      1.0  0.73530  0.99450  0.30390  1.0000 -0.1498589698
C   C116      1.0  0.25920  0.26470  0.30390  1.0000 -0.1498589698
C   C117      1.0  0.00550  0.74080  0.30390  1.0000 -0.1498589698
C   C118      1.0  0.26470  0.00550  0.30390  1.0000 -0.1498589698
C   C119      1.0  0.74080  0.73530  0.30390  1.0000 -0.1498589698
C   C120      1.0  0.99450  0.25920  0.30390  1.0000 -0.1498589698
C   C121      1.0  0.04080  0.74910  0.64960  1.0000 -0.1498589698
C   C122      1.0  0.25090  0.29170  0.64960  1.0000 -0.1498589698
C   C123      1.0  0.70830  0.95920  0.64960  1.0000 -0.1498589698
C   C124      1.0  0.95920  0.25090  0.64960  1.0000 -0.1498589698
C   C125      1.0  0.74910  0.70830  0.64960  1.0000 -0.1498589698
C   C126      1.0  0.29170  0.04080  0.64960  1.0000 -0.1498589698
C   C127      1.0  0.74910  0.04080  0.35040  1.0000 -0.1498589698
C   C128      1.0  0.29170  0.25090  0.35040  1.0000 -0.1498589698
C   C129      1.0  0.95920  0.70830  0.35040  1.0000 -0.1498589698
C   C130      1.0  0.25090  0.95920  0.35040  1.0000 -0.1498589698
C   C131      1.0  0.70830  0.74910  0.35040  1.0000 -0.1498589698
C   C132      1.0  0.04080  0.29170  0.35040  1.0000 -0.1498589698
C   C133      1.0  0.91710  0.74080  0.75730  1.0000 -0.1498589698
C   C134      1.0  0.25920  0.17630  0.75730  1.0000 -0.1498589698
C   C135      1.0  0.82370  0.08290  0.75730  1.0000 -0.1498589698
C   C136      1.0  0.08290  0.25920  0.75730  1.0000 -0.1498589698
C   C137      1.0  0.74080  0.82370  0.75730  1.0000 -0.1498589698
C   C138      1.0  0.17630  0.91710  0.75730  1.0000 -0.1498589698
C   C139      1.0  0.74080  0.91710  0.24270  1.0000 -0.1498589698
C   C140      1.0  0.17630  0.25920  0.24270  1.0000 -0.1498589698
C   C141      1.0  0.08290  0.82370  0.24270  1.0000 -0.1498589698
C   C142      1.0  0.25920  0.08290  0.24270  1.0000 -0.1498589698
C   C143      1.0  0.82370  0.74080  0.24270  1.0000 -0.1498589698
C   C144      1.0  0.91710  0.17630  0.24270  1.0000 -0.1498589698
C   C145      1.0  0.88970  0.76740  0.78360  1.0000 -0.1498589698
C   C146      1.0  0.23260  0.12230  0.78360  1.0000 -0.1498589698
C   C147      1.0  0.87770  0.11030  0.78360  1.0000 -0.1498589698
C   C148      1.0  0.11030  0.23260  0.78360  1.0000 -0.1498589698
C   C149      1.0  0.76740  0.87770  0.78360  1.0000 -0.1498589698
C   C150      1.0  0.12230  0.88970  0.78360  1.0000 -0.1498589698
C   C151      1.0  0.76740  0.88970  0.21640  1.0000 -0.1498589698
C   C152      1.0  0.12230  0.23260  0.21640  1.0000 -0.1498589698
C   C153      1.0  0.11030  0.87770  0.21640  1.0000 -0.1498589698
C   C154      1.0  0.23260  0.11030  0.21640  1.0000 -0.1498589698
C   C155      1.0  0.87770  0.76740  0.21640  1.0000 -0.1498589698
C   C156      1.0  0.88970  0.12230  0.21640  1.0000 -0.1498589698
C   C157      1.0  0.84180  0.74220  0.83970  1.0000 0.1463797127
C   C158      1.0  0.25780  0.09960  0.83970  1.0000 0.1463797127
C   C159      1.0  0.90040  0.15820  0.83970  1.0000 0.1463797127
C   C160      1.0  0.15820  0.25780  0.83970  1.0000 0.1463797127
C   C161      1.0  0.74220  0.90040  0.83970  1.0000 0.1463797127
C   C162      1.0  0.09960  0.84180  0.83970  1.0000 0.1463797127
C   C163      1.0  0.74220  0.84180  0.16030  1.0000 0.1463797127
C   C164      1.0  0.09960  0.25780  0.16030  1.0000 0.1463797127
C   C165      1.0  0.15820  0.90040  0.16030  1.0000 0.1463797127
C   C166      1.0  0.25780  0.15820  0.16030  1.0000 0.1463797127
C   C167      1.0  0.90040  0.74220  0.16030  1.0000 0.1463797127
C   C168      1.0  0.84180  0.09960  0.16030  1.0000 0.1463797127
C   C169      1.0  0.82030  0.77990  0.85960  1.0000 -0.2001445196
C   C170      1.0  0.22010  0.04040  0.85960  1.0000 -0.2001445196
C   C171      1.0  0.95960  0.17970  0.85960  1.0000 -0.2001445196
C   C172      1.0  0.17970  0.22010  0.85960  1.0000 -0.2001445196
C   C173      1.0  0.77990  0.95960  0.85960  1.0000 -0.2001445196
C   C174      1.0  0.04040  0.82030  0.85960  1.0000 -0.2001445196
C   C175      1.0  0.77990  0.82030  0.14040  1.0000 -0.2001445196
C   C176      1.0  0.04040  0.22010  0.14040  1.0000 -0.2001445196
C   C177      1.0  0.17970  0.95960  0.14040  1.0000 -0.2001445196
C   C178      1.0  0.22010  0.17970  0.14040  1.0000 -0.2001445196
C   C179      1.0  0.95960  0.77990  0.14040  1.0000 -0.2001445196
C   C180      1.0  0.82030  0.04040  0.14040  1.0000 -0.2001445196
C   C181      1.0  0.77020  0.75930  0.90860  1.0000 0.0404648724
C   C182      1.0  0.24070  0.01090  0.90860  1.0000 0.0404648724
C   C183      1.0  0.98910  0.22980  0.90860  1.0000 0.0404648724
C   C184      1.0  0.22980  0.24070  0.90860  1.0000 0.0404648724
C   C185      1.0  0.75930  0.98910  0.90860  1.0000 0.0404648724
C   C186      1.0  0.01090  0.77020  0.90860  1.0000 0.0404648724
C   C187      1.0  0.75930  0.77020  0.09140  1.0000 0.0404648724
C   C188      1.0  0.01090  0.24070  0.09140  1.0000 0.0404648724
C   C189      1.0  0.22980  0.98910  0.09140  1.0000 0.0404648724
C   C190      1.0  0.24070  0.22980  0.09140  1.0000 0.0404648724
C   C191      1.0  0.98910  0.75930  0.09140  1.0000 0.0404648724
C   C192      1.0  0.77020  0.01090  0.09140  1.0000 0.0404648724
C   C193      1.0  0.77130  0.67040  0.92560  1.0000 0.0620731706
C   C194      1.0  0.32960  0.10090  0.92560  1.0000 0.0620731706
C   C195      1.0  0.89910  0.22870  0.92560  1.0000 0.0620731706
C   C196      1.0  0.22870  0.32960  0.92560  1.0000 0.0620731706
C   C197      1.0  0.67040  0.89910  0.92560  1.0000 0.0620731706
C   C198      1.0  0.10090  0.77130  0.92560  1.0000 0.0620731706
C   C199      1.0  0.67040  0.77130  0.07440  1.0000 0.0620731706
C   C200      1.0  0.10090  0.32960  0.07440  1.0000 0.0620731706
C   C201      1.0  0.22870  0.89910  0.07440  1.0000 0.0620731706
C   C202      1.0  0.32960  0.22870  0.07440  1.0000 0.0620731706
C   C203      1.0  0.89910  0.67040  0.07440  1.0000 0.0620731706
C   C204      1.0  0.77130  0.10090  0.07440  1.0000 0.0620731706
C   C205      1.0  0.81760  0.68680  0.87590  1.0000 -0.217364037
C   C206      1.0  0.31320  0.13080  0.87590  1.0000 -0.217364037
C   C207      1.0  0.86920  0.18240  0.87590  1.0000 -0.217364037
C   C208      1.0  0.18240  0.31320  0.87590  1.0000 -0.217364037
C   C209      1.0  0.68680  0.86920  0.87590  1.0000 -0.217364037
C   C210      1.0  0.13080  0.81760  0.87590  1.0000 -0.217364037
C   C211      1.0  0.68680  0.81760  0.12410  1.0000 -0.217364037
C   C212      1.0  0.13080  0.31320  0.12410  1.0000 -0.217364037
C   C213      1.0  0.18240  0.86920  0.12410  1.0000 -0.217364037
C   C214      1.0  0.31320  0.18240  0.12410  1.0000 -0.217364037
C   C215      1.0  0.86920  0.68680  0.12410  1.0000 -0.217364037
C   C216      1.0  0.81760  0.13080  0.12410  1.0000 -0.217364037
C   C217      1.0  0.13760  0.71730  0.40560  1.0000 0.0404648724
C   C218      1.0  0.28270  0.42030  0.40560  1.0000 0.0404648724
C   C219      1.0  0.57970  0.86240  0.40560  1.0000 0.0404648724
C   C220      1.0  0.86240  0.28270  0.40560  1.0000 0.0404648724
C   C221      1.0  0.71730  0.57970  0.40560  1.0000 0.0404648724
C   C222      1.0  0.42030  0.13760  0.40560  1.0000 0.0404648724
C   C223      1.0  0.71730  0.13760  0.59440  1.0000 0.0404648724
C   C224      1.0  0.42030  0.28270  0.59440  1.0000 0.0404648724
C   C225      1.0  0.86240  0.57970  0.59440  1.0000 0.0404648724
C   C226      1.0  0.28270  0.86240  0.59440  1.0000 0.0404648724
C   C227      1.0  0.57970  0.71730  0.59440  1.0000 0.0404648724
C   C228      1.0  0.13760  0.42030  0.59440  1.0000 0.0404648724
C   C229      1.0  0.13830  0.72010  0.33020  1.0000 -0.1498589698
C   C230      1.0  0.27990  0.41820  0.33020  1.0000 -0.1498589698
C   C231      1.0  0.58180  0.86170  0.33020  1.0000 -0.1498589698
C   C232      1.0  0.86170  0.27990  0.33020  1.0000 -0.1498589698
C   C233      1.0  0.72010  0.58180  0.33020  1.0000 -0.1498589698
C   C234      1.0  0.41820  0.13830  0.33020  1.0000 -0.1498589698
C   C235      1.0  0.72010  0.13830  0.66980  1.0000 -0.1498589698
C   C236      1.0  0.41820  0.27990  0.66980  1.0000 -0.1498589698
C   C237      1.0  0.86170  0.58180  0.66980  1.0000 -0.1498589698
C   C238      1.0  0.27990  0.86170  0.66980  1.0000 -0.1498589698
C   C239      1.0  0.58180  0.72010  0.66980  1.0000 -0.1498589698
C   C240      1.0  0.13830  0.41820  0.66980  1.0000 -0.1498589698
C   C241      1.0  0.12330  0.66950  0.28760  1.0000 -0.1689205003
C   C242      1.0  0.33050  0.45380  0.28760  1.0000 -0.1689205003
C   C243      1.0  0.54620  0.87670  0.28760  1.0000 -0.1689205003
C   C244      1.0  0.87670  0.33050  0.28760  1.0000 -0.1689205003
C   C245      1.0  0.66950  0.54620  0.28760  1.0000 -0.1689205003
C   C246      1.0  0.45380  0.12330  0.28760  1.0000 -0.1689205003
C   C247      1.0  0.66950  0.12330  0.71240  1.0000 -0.1689205003
C   C248      1.0  0.45380  0.33050  0.71240  1.0000 -0.1689205003
C   C249      1.0  0.87670  0.54620  0.71240  1.0000 -0.1689205003
C   C250      1.0  0.33050  0.87670  0.71240  1.0000 -0.1689205003
C   C251      1.0  0.54620  0.66950  0.71240  1.0000 -0.1689205003
C   C252      1.0  0.12330  0.45380  0.71240  1.0000 -0.1689205003
C   C253      1.0  0.10960  0.61470  0.31990  1.0000 0.1102977852
C   C254      1.0  0.38530  0.49490  0.31990  1.0000 0.1102977852
C   C255      1.0  0.50510  0.89040  0.31990  1.0000 0.1102977852
C   C256      1.0  0.89040  0.38530  0.31990  1.0000 0.1102977852
C   C257      1.0  0.61470  0.50510  0.31990  1.0000 0.1102977852
C   C258      1.0  0.49490  0.10960  0.31990  1.0000 0.1102977852
C   C259      1.0  0.61470  0.10960  0.68010  1.0000 0.1102977852
C   C260      1.0  0.49490  0.38530  0.68010  1.0000 0.1102977852
C   C261      1.0  0.89040  0.50510  0.68010  1.0000 0.1102977852
C   C262      1.0  0.38530  0.89040  0.68010  1.0000 0.1102977852
C   C263      1.0  0.50510  0.61470  0.68010  1.0000 0.1102977852
C   C264      1.0  0.10960  0.49490  0.68010  1.0000 0.1102977852
C   C265      1.0  0.10780  0.61100  0.39570  1.0000 -0.1689205003
C   C266      1.0  0.38900  0.49680  0.39570  1.0000 -0.1689205003
C   C267      1.0  0.50320  0.89220  0.39570  1.0000 -0.1689205003
C   C268      1.0  0.89220  0.38900  0.39570  1.0000 -0.1689205003
C   C269      1.0  0.61100  0.50320  0.39570  1.0000 -0.1689205003
C   C270      1.0  0.49680  0.10780  0.39570  1.0000 -0.1689205003
C   C271      1.0  0.61100  0.10780  0.60430  1.0000 -0.1689205003
C   C272      1.0  0.49680  0.38900  0.60430  1.0000 -0.1689205003
C   C273      1.0  0.89220  0.50320  0.60430  1.0000 -0.1689205003
C   C274      1.0  0.38900  0.89220  0.60430  1.0000 -0.1689205003
C   C275      1.0  0.50320  0.61100  0.60430  1.0000 -0.1689205003
C   C276      1.0  0.10780  0.49680  0.60430  1.0000 -0.1689205003
C   C277      1.0  0.12450  0.66280  0.43640  1.0000 -0.1498589698
C   C278      1.0  0.33720  0.46170  0.43640  1.0000 -0.1498589698
C   C279      1.0  0.53830  0.87550  0.43640  1.0000 -0.1498589698
C   C280      1.0  0.87550  0.33720  0.43640  1.0000 -0.1498589698
C   C281      1.0  0.66280  0.53830  0.43640  1.0000 -0.1498589698
C   C282      1.0  0.46170  0.12450  0.43640  1.0000 -0.1498589698
C   C283      1.0  0.66280  0.12450  0.56360  1.0000 -0.1498589698
C   C284      1.0  0.46170  0.33720  0.56360  1.0000 -0.1498589698
C   C285      1.0  0.87550  0.53830  0.56360  1.0000 -0.1498589698
C   C286      1.0  0.33720  0.87550  0.56360  1.0000 -0.1498589698
C   C287      1.0  0.53830  0.66280  0.56360  1.0000 -0.1498589698
C   C288      1.0  0.12450  0.46170  0.56360  1.0000 -0.1498589698
C   C289      1.0  0.09150  0.55890  0.27530  1.0000 -0.1195367732
C   C290      1.0  0.44110  0.53260  0.27530  1.0000 -0.1195367732
C   C291      1.0  0.46740  0.90850  0.27530  1.0000 -0.1195367732
C   C292      1.0  0.90850  0.44110  0.27530  1.0000 -0.1195367732
C   C293      1.0  0.55890  0.46740  0.27530  1.0000 -0.1195367732
C   C294      1.0  0.53260  0.09150  0.27530  1.0000 -0.1195367732
C   C295      1.0  0.55890  0.09150  0.72470  1.0000 -0.1195367732
C   C296      1.0  0.53260  0.44110  0.72470  1.0000 -0.1195367732
C   C297      1.0  0.90850  0.46740  0.72470  1.0000 -0.1195367732
C   C298      1.0  0.44110  0.90850  0.72470  1.0000 -0.1195367732
C   C299      1.0  0.46740  0.55890  0.72470  1.0000 -0.1195367732
C   C300      1.0  0.09150  0.53260  0.72470  1.0000 -0.1195367732
C   C301      1.0  0.09830  0.55700  0.20670  1.0000 -0.1412591353
C   C302      1.0  0.44300  0.54130  0.20670  1.0000 -0.1412591353
C   C303      1.0  0.45870  0.90170  0.20670  1.0000 -0.1412591353
C   C304      1.0  0.90170  0.44300  0.20670  1.0000 -0.1412591353
C   C305      1.0  0.55700  0.45870  0.20670  1.0000 -0.1412591353
C   C306      1.0  0.54130  0.09830  0.20670  1.0000 -0.1412591353
C   C307      1.0  0.55700  0.09830  0.79330  1.0000 -0.1412591353
C   C308      1.0  0.54130  0.44300  0.79330  1.0000 -0.1412591353
C   C309      1.0  0.90170  0.45870  0.79330  1.0000 -0.1412591353
C   C310      1.0  0.44300  0.90170  0.79330  1.0000 -0.1412591353
C   C311      1.0  0.45870  0.55700  0.79330  1.0000 -0.1412591353
C   C312      1.0  0.09830  0.54130  0.79330  1.0000 -0.1412591353
C   C313      1.0  0.07540  0.50230  0.16300  1.0000 0.1463797127
C   C314      1.0  0.49770  0.57310  0.16300  1.0000 0.1463797127
C   C315      1.0  0.42690  0.92460  0.16300  1.0000 0.1463797127
C   C316      1.0  0.92460  0.49770  0.16300  1.0000 0.1463797127
C   C317      1.0  0.50230  0.42690  0.16300  1.0000 0.1463797127
C   C318      1.0  0.57310  0.07540  0.16300  1.0000 0.1463797127
C   C319      1.0  0.50230  0.07540  0.83700  1.0000 0.1463797127
C   C320      1.0  0.57310  0.49770  0.83700  1.0000 0.1463797127
C   C321      1.0  0.92460  0.42690  0.83700  1.0000 0.1463797127
C   C322      1.0  0.49770  0.92460  0.83700  1.0000 0.1463797127
C   C323      1.0  0.42690  0.50230  0.83700  1.0000 0.1463797127
C   C324      1.0  0.07540  0.57310  0.83700  1.0000 0.1463797127
C   C325      1.0  0.09000  0.50840  0.08700  1.0000 -0.2579969704
C   C326      1.0  0.49160  0.58160  0.08700  1.0000 -0.2579969704
C   C327      1.0  0.41840  0.91000  0.08700  1.0000 -0.2579969704
C   C328      1.0  0.91000  0.49160  0.08700  1.0000 -0.2579969704
C   C329      1.0  0.50840  0.41840  0.08700  1.0000 -0.2579969704
C   C330      1.0  0.58160  0.09000  0.08700  1.0000 -0.2579969704
C   C331      1.0  0.50840  0.09000  0.91300  1.0000 -0.2579969704
C   C332      1.0  0.58160  0.49160  0.91300  1.0000 -0.2579969704
C   C333      1.0  0.91000  0.41840  0.91300  1.0000 -0.2579969704
C   C334      1.0  0.49160  0.91000  0.91300  1.0000 -0.2579969704
C   C335      1.0  0.41840  0.50840  0.91300  1.0000 -0.2579969704
C   C336      1.0  0.09000  0.58160  0.91300  1.0000 -0.2579969704
C   C337      1.0  0.06630  0.45560  0.04410  1.0000 0.0620731706
C   C338      1.0  0.54440  0.61070  0.04410  1.0000 0.0620731706
C   C339      1.0  0.38930  0.93370  0.04410  1.0000 0.0620731706
C   C340      1.0  0.93370  0.54440  0.04410  1.0000 0.0620731706
C   C341      1.0  0.45560  0.38930  0.04410  1.0000 0.0651889131
C   C342      1.0  0.61070  0.06630  0.04410  1.0000 0.0620731706
C   C343      1.0  0.45560  0.06630  0.95590  1.0000 0.0620731706
C   C344      1.0  0.61070  0.54440  0.95590  1.0000 0.0620731706
C   C345      1.0  0.93370  0.38930  0.95590  1.0000 0.0620731706
C   C346      1.0  0.54440  0.93370  0.95590  1.0000 0.0620731706
C   C347      1.0  0.38930  0.45560  0.95590  1.0000 0.0620731706
C   C348      1.0  0.06630  0.61070  0.95590  1.0000 0.0620731706
C   C349      1.0  0.02330  0.39620  0.13630  1.0000 0.0404648724
C   C350      1.0  0.60380  0.62710  0.13630  1.0000 0.0404648724
C   C351      1.0  0.37290  0.97670  0.13630  1.0000 0.0404648724
C   C352      1.0  0.97670  0.60380  0.13630  1.0000 0.0455772112
C   C353      1.0  0.39620  0.37290  0.13630  1.0000 0.0404648724
C   C354      1.0  0.62710  0.02330  0.13630  1.0000 0.0455772112
C   C355      1.0  0.39620  0.02330  0.86370  1.0000 0.0455772112
C   C356      1.0  0.62710  0.60380  0.86370  1.0000 0.0455772112
C   C357      1.0  0.97670  0.37290  0.86370  1.0000 0.0455772112
C   C358      1.0  0.60380  0.97670  0.86370  1.0000 0.0404648724
C   C359      1.0  0.37290  0.39620  0.86370  1.0000 0.0404648724
C   C360      1.0  0.02330  0.62710  0.86370  1.0000 0.0404648724
C   C361      1.0  0.04300  0.44460  0.18630  1.0000 -0.217364037
C   C362      1.0  0.55540  0.59840  0.18630  1.0000 -0.217364037
C   C363      1.0  0.40160  0.95700  0.18630  1.0000 -0.217364037
C   C364      1.0  0.95700  0.55540  0.18630  1.0000 -0.217364037
C   C365      1.0  0.44460  0.40160  0.18630  1.0000 -0.217364037
C   C366      1.0  0.59840  0.04300  0.18630  1.0000 -0.217364037
C   C367      1.0  0.44460  0.04300  0.81370  1.0000 -0.217364037
C   C368      1.0  0.59840  0.55540  0.81370  1.0000 -0.217364037
C   C369      1.0  0.95700  0.40160  0.81370  1.0000 -0.217364037
C   C370      1.0  0.55540  0.95700  0.81370  1.0000 -0.217364037
C   C371      1.0  0.40160  0.44460  0.81370  1.0000 -0.217364037
C   C372      1.0  0.04300  0.59840  0.81370  1.0000 -0.217364037
N   N1        1.0  0.74650  0.70400  0.94130  1.0000 -0.2118168339
N   N2        1.0  0.29600  0.04250  0.94130  1.0000 -0.2118168339
N   N3        1.0  0.95750  0.25350  0.94130  1.0000 -0.2118168339
N   N4        1.0  0.25350  0.29600  0.94130  1.0000 -0.2118168339
N   N5        1.0  0.70400  0.95750  0.94130  1.0000 -0.2118168339
N   N6        1.0  0.04250  0.74650  0.94130  1.0000 -0.2118168339
N   N7        1.0  0.70400  0.74650  0.05870  1.0000 -0.2118168339
N   N8        1.0  0.04250  0.29600  0.05870  1.0000 -0.2118168339
N   N9        1.0  0.25350  0.95750  0.05870  1.0000 -0.2118168339
N   N10       1.0  0.29600  0.25350  0.05870  1.0000 -0.2118168339
N   N11       1.0  0.95750  0.70400  0.05870  1.0000 -0.2118168339
N   N12       1.0  0.74650  0.04250  0.05870  1.0000 -0.2118168339
N   N13       1.0  0.03330  0.40190  0.06690  1.0000 -0.1935741444
N   N14       1.0  0.59810  0.63140  0.06690  1.0000 -0.1935741444
N   N15       1.0  0.36860  0.96670  0.06690  1.0000 -0.1935741444
N   N16       1.0  0.96670  0.59810  0.06690  1.0000 -0.1935741444
N   N17       1.0  0.40190  0.36860  0.06690  1.0000 -0.1935741444
N   N18       1.0  0.63140  0.03330  0.06690  1.0000 -0.1935741444
N   N19       1.0  0.40190  0.03330  0.93310  1.0000 -0.1935741444
N   N20       1.0  0.63140  0.59810  0.93310  1.0000 -0.1935741444
N   N21       1.0  0.96670  0.36860  0.93310  1.0000 -0.1935741444
N   N22       1.0  0.59810  0.96670  0.93310  1.0000 -0.1935741444
N   N23       1.0  0.36860  0.40190  0.93310  1.0000 -0.1935741444
N   N24       1.0  0.03330  0.63140  0.93310  1.0000 -0.1935741444
