# DDEC6 charges by PACMAN v1.1 (https://github.com/mtap-research/PACMAN-charge/)
data_2023[Zn][sql]2[ASR]13
_chemical_formula_sum              "Zn2 H36 C60 N8 O8"
_cell_length_a       6.7592
_cell_length_b       12.796
_cell_length_c       16.789
_cell_angle_alpha    107.262
_cell_angle_beta     96.949
_cell_angle_gamma    91.447

_symmetry_space_group_name_H-M    "P 1"
_symmetry_Int_Tables_number       1

loop_
  _symmetry_equiv_pos_as_xyz
  'x, y, z'

loop_
  _atom_site_type_symbol
  _atom_site_label
  _atom_site_symmetry_multiplicity
  _atom_site_fract_x
  _atom_site_fract_y
  _atom_site_fract_z
  _atom_site_occupancy
  _atom_site_charge
Zn  Zn1       1.0  0.79339  0.98815  0.80539  1.0000 0.7528752076
Zn  Zn2       1.0  0.20661  0.01185  0.19461  1.0000 0.7528752076
H   H1        1.0  0.24306  0.86159  0.95312  1.0000 0.1196495797
H   H2        1.0  0.75694  0.13841  0.04688  1.0000 0.1196495797
H   H3        1.0  0.36418  0.04138  0.79683  1.0000 0.1108566647
H   H4        1.0  0.63582  0.95862  0.20317  1.0000 0.1108566647
H   H5        1.0  0.17489  0.17310  0.76678  1.0000 0.1376760093
H   H6        1.0  0.82511  0.82690  0.23322  1.0000 0.1376760093
H   H7        1.0  0.55491  0.82496  0.01088  1.0000 0.1108566647
H   H8        1.0  0.44509  0.17504  0.98912  1.0000 0.1108566647
H   H9        1.0  0.65605  0.96562  0.48928  1.0000 0.1196495797
H   H10       1.0  0.34395  0.03438  0.51072  1.0000 0.1196495797
H   H11       1.0  0.60871  0.63113  0.84782  1.0000 0.1376760093
H   H12       1.0  0.39129  0.36887  0.15218  1.0000 0.1376760093
H   H13       1.0  0.79534  0.98391  0.37418  1.0000 0.1196495797
H   H14       1.0  0.20466  0.01609  0.62582  1.0000 0.1196495797
H   H15       1.0  0.79020  0.79524  0.86809  1.0000 0.1196495797
H   H16       1.0  0.20980  0.20476  0.13191  1.0000 0.1196495797
H   H17       1.0  0.01870  0.57737  0.68112  1.0000 0.1298735577
H   H18       1.0  0.98130  0.42263  0.31888  1.0000 0.1298735577
H   H19       1.0  0.68831  0.53325  0.66170  1.0000 0.1108566647
H   H20       1.0  0.31169  0.46675  0.33830  1.0000 0.1108566647
H   H21       1.0  0.85531  0.23267  0.83950  1.0000 0.1196495797
H   H22       1.0  0.14469  0.76733  0.16050  1.0000 0.1196495797
H   H23       1.0  0.04725  0.26447  0.68673  1.0000 0.1196495797
H   H24       1.0  0.95275  0.73553  0.31327  1.0000 0.1196495797
H   H25       1.0  0.20859  0.71293  0.68099  1.0000 0.1376760093
H   H26       1.0  0.79141  0.28707  0.31901  1.0000 0.1376760093
H   H27       1.0  0.38442  0.48945  0.57347  1.0000 0.1196495797
H   H28       1.0  0.61558  0.51055  0.42653  1.0000 0.1196495797
H   H29       1.0  0.67805  0.36988  0.80779  1.0000 0.1298735577
H   H30       1.0  0.32195  0.63012  0.19221  1.0000 0.1298735577
H   H31       1.0  0.40293  0.87075  0.70198  1.0000 0.1196495797
H   H32       1.0  0.59707  0.12925  0.29802  1.0000 0.1196495797
H   H33       1.0  0.86129  0.22760  0.55634  1.0000 0.1196495797
H   H34       1.0  0.13871  0.77240  0.44366  1.0000 0.1196495797
H   H35       1.0  0.55560  0.18206  0.46986  1.0000 0.1298735577
H   H36       1.0  0.44440  0.81794  0.53014  1.0000 0.1298735577
C   C1        1.0  0.91530  0.98970  0.56970  1.0000 -0.0239898519
C   C2        1.0  0.08470  0.01030  0.43030  1.0000 -0.0239898519
C   C3        1.0  0.31400  0.02070  0.96440  1.0000 -0.0257347424
C   C4        1.0  0.68600  0.97930  0.03560  1.0000 -0.0257347424
C   C5        1.0  0.34760  0.91790  0.97190  1.0000 -0.1120844297
C   C6        1.0  0.65240  0.08210  0.02810  1.0000 -0.1120844297
C   C7        1.0  0.42940  0.10850  0.79790  1.0000 0.0882296326
C   C8        1.0  0.57060  0.89150  0.20210  1.0000 0.0882296326
C   C9        1.0  0.11740  0.04430  0.92360  1.0000 0.55033782
C   C10       1.0  0.88260  0.95570  0.07640  1.0000 0.55033782
C   C11       1.0  0.31580  0.18650  0.77960  1.0000 -0.1702418079
C   C12       1.0  0.68420  0.81350  0.22040  1.0000 -0.1702418079
C   C13       1.0  0.40400  0.28570  0.77940  1.0000 0.0978002685
C   C14       1.0  0.59600  0.71430  0.22060  1.0000 0.0978002685
C   C15       1.0  0.28880  0.36750  0.75090  1.0000 0.2068069565
C   C16       1.0  0.71120  0.63250  0.24910  1.0000 0.2068069565
C   C17       1.0  0.38700  0.65310  0.76230  1.0000 0.0978002685
C   C18       1.0  0.61300  0.34690  0.23770  1.0000 0.0978002685
C   C19       1.0  0.99950  0.41490  0.67330  1.0000 0.1196495797
C   C20       1.0  0.00050  0.58510  0.32670  1.0000 0.1196495797
C   C21       1.0  0.53230  0.89620  0.00670  1.0000 -0.1184530885
C   C22       1.0  0.46770  0.10380  0.99330  1.0000 -0.1184530885
C   C23       1.0  0.79630  0.97980  0.49390  1.0000 -0.1120844297
C   C24       1.0  0.20370  0.02020  0.50610  1.0000 -0.1120844297
C   C25       1.0  0.56260  0.67980  0.81760  1.0000 -0.1809572813
C   C26       1.0  0.43740  0.32020  0.18240  1.0000 -0.1809572813
C   C27       1.0  0.80410  0.38500  0.61850  1.0000 0.0802156764
C   C28       1.0  0.19590  0.61500  0.38150  1.0000 0.0802156764
C   C29       1.0  0.82150  0.98150  0.64440  1.0000 0.5570143151
C   C30       1.0  0.17850  0.01850  0.35560  1.0000 0.5570143151
C   C31       1.0  0.87910  0.99030  0.42530  1.0000 -0.1184530885
C   C32       1.0  0.12090  0.00970  0.57470  1.0000 -0.1184530885
C   C33       1.0  0.27490  0.54450  0.74420  1.0000 0.2000177491
C   C34       1.0  0.72510  0.45550  0.25580  1.0000 0.2000177491
C   C35       1.0  0.67160  0.77750  0.82880  1.0000 0.0978002685
C   C36       1.0  0.32840  0.22250  0.17120  1.0000 0.0978002685
C   C37       1.0  0.08710  0.52120  0.69710  1.0000 -0.2281394445
C   C38       1.0  0.91290  0.47880  0.30290  1.0000 -0.2281394445
C   C39       1.0  0.66160  0.46200  0.62250  1.0000 -0.14572999
C   C40       1.0  0.33840  0.53800  0.37750  1.0000 -0.14572999
C   C41       1.0  0.71540  0.21980  0.82240  1.0000 0.0802156764
C   C42       1.0  0.28460  0.78020  0.17760  1.0000 0.0802156764
C   C43       1.0  0.10270  0.33770  0.70120  1.0000 -0.2281394445
C   C44       1.0  0.89730  0.66230  0.29880  1.0000 -0.2281394445
C   C45       1.0  0.32870  0.72760  0.71930  1.0000 -0.1809572813
C   C46       1.0  0.67130  0.27240  0.28070  1.0000 -0.1809572813
C   C47       1.0  0.48140  0.43640  0.57020  1.0000 -0.1310863805
C   C48       1.0  0.51860  0.56360  0.42980  1.0000 -0.1310863805
C   C49       1.0  0.61070  0.30220  0.80390  1.0000 -0.1702418079
C   C50       1.0  0.38930  0.69780  0.19610  1.0000 -0.1702418079
C   C51       1.0  0.44480  0.82160  0.73240  1.0000 0.0882296326
C   C52       1.0  0.55520  0.17840  0.26760  1.0000 0.0882296326
C   C53       1.0  0.44380  0.33180  0.51260  1.0000 0.0472510668
C   C54       1.0  0.55620  0.66820  0.48740  1.0000 0.0472510668
C   C55       1.0  0.76380  0.28050  0.56020  1.0000 -0.1310863805
C   C56       1.0  0.23620  0.71950  0.43980  1.0000 -0.1310863805
C   C57       1.0  0.58360  0.25370  0.50830  1.0000 -0.1120844297
C   C58       1.0  0.41640  0.74630  0.49170  1.0000 -0.1120844297
C   C59       1.0  0.25720  0.30820  0.45670  1.0000 0.257058351
C   C60       1.0  0.74280  0.69180  0.54330  1.0000 0.257058351
N   N1        1.0  0.62830  0.12100  0.81740  1.0000 -0.2281394445
N   N2        1.0  0.37170  0.87900  0.18260  1.0000 -0.2281394445
N   N3        1.0  0.61550  0.84800  0.78630  1.0000 -0.2281394445
N   N4        1.0  0.38450  0.15200  0.21370  1.0000 -0.2281394445
N   N5        1.0  0.37370  0.47000  0.77230  1.0000 -0.3364693684
N   N6        1.0  0.62630  0.53000  0.22770  1.0000 -0.3364693684
N   N7        1.0  0.11210  0.29150  0.41180  1.0000 -0.3637017322
N   N8        1.0  0.88790  0.70850  0.58820  1.0000 -0.3637017322
O   O1        1.0  0.99620  0.95990  0.88752  1.0000 -0.5491850885
O   O2        1.0  0.00380  0.04010  0.11248  1.0000 -0.5491850885
O   O3        1.0  0.94150  0.99460  0.71290  1.0000 -0.5491850885
O   O4        1.0  0.05850  0.00540  0.28710  1.0000 -0.5491850885
O   O5        1.0  0.63880  0.96370  0.63830  1.0000 -0.5491850885
O   O6        1.0  0.36120  0.03630  0.36170  1.0000 -0.5491850885
O   O7        1.0  0.08350  0.13780  0.92230  1.0000 -0.5398982477
O   O8        1.0  0.91650  0.86220  0.07770  1.0000 -0.5398982477
