# DDEC6 charges by PACMAN v1.1 (https://github.com/mtap-research/PACMAN-charge/)
data_2023[Zr][reo]3[ASR]3
_chemical_formula_sum              "Zr36 H60 C156 S24 O168"
_cell_length_a       27.5358
_cell_length_b       27.5358
_cell_length_c       27.5358
_cell_angle_alpha    60
_cell_angle_beta     60
_cell_angle_gamma    60

_symmetry_space_group_name_H-M    "P 1"
_symmetry_Int_Tables_number       1

loop_
  _symmetry_equiv_pos_as_xyz
  'x, y, z'

loop_
  _atom_site_type_symbol
  _atom_site_label
  _atom_site_symmetry_multiplicity
  _atom_site_fract_x
  _atom_site_fract_y
  _atom_site_fract_z
  _atom_site_occupancy
  _atom_site_charge
Zr  Zr1       1.0  0.58982  0.41018  0.00000  1.0000 2.3820850664
Zr  Zr2       1.0  0.41018  0.58982  0.00000  1.0000 2.3820850664
Zr  Zr3       1.0  0.00000  0.00000  0.58982  1.0000 2.3820850664
Zr  Zr4       1.0  0.00000  0.00000  0.41018  1.0000 2.3820850664
Zr  Zr5       1.0  0.00000  0.58982  0.41018  1.0000 2.3820850664
Zr  Zr6       1.0  0.00000  0.41018  0.58982  1.0000 2.3820850664
Zr  Zr7       1.0  0.58982  0.00000  0.00000  1.0000 2.3859028896
Zr  Zr8       1.0  0.41018  0.00000  0.00000  1.0000 2.3859028896
Zr  Zr9       1.0  0.41018  0.00000  0.58982  1.0000 2.3820850664
Zr  Zr10      1.0  0.58982  0.00000  0.41018  1.0000 2.3859028896
Zr  Zr11      1.0  0.00000  0.58982  0.00000  1.0000 2.3820850664
Zr  Zr12      1.0  0.00000  0.41018  0.00000  1.0000 2.3820850664
Zr  Zr13      1.0  0.54530  0.54530  0.01898  1.0000 2.3629087438
Zr  Zr14      1.0  0.54530  0.54530  0.89042  1.0000 2.3629087438
Zr  Zr15      1.0  0.01898  0.89042  0.54530  1.0000 2.3689144929
Zr  Zr16      1.0  0.89042  0.01898  0.54530  1.0000 2.3629087438
Zr  Zr17      1.0  0.01898  0.54530  0.54530  1.0000 2.3629087438
Zr  Zr18      1.0  0.89042  0.54530  0.54530  1.0000 2.3629087438
Zr  Zr19      1.0  0.54530  0.01898  0.89042  1.0000 2.3689144929
Zr  Zr20      1.0  0.54530  0.89042  0.01898  1.0000 2.3629087438
Zr  Zr21      1.0  0.54530  0.01898  0.54530  1.0000 2.3629087438
Zr  Zr22      1.0  0.54530  0.89042  0.54530  1.0000 2.3689144929
Zr  Zr23      1.0  0.89042  0.54530  0.01898  1.0000 2.3629087438
Zr  Zr24      1.0  0.01898  0.54530  0.89042  1.0000 2.3629087438
Zr  Zr25      1.0  0.45470  0.45470  0.10958  1.0000 2.3629087438
Zr  Zr26      1.0  0.45470  0.45470  0.98102  1.0000 2.3629087438
Zr  Zr27      1.0  0.98102  0.10958  0.45470  1.0000 2.3689144929
Zr  Zr28      1.0  0.10958  0.98102  0.45470  1.0000 2.3629087438
Zr  Zr29      1.0  0.98102  0.45470  0.10958  1.0000 2.3629087438
Zr  Zr30      1.0  0.10958  0.45470  0.98102  1.0000 2.3689144929
Zr  Zr31      1.0  0.45470  0.98102  0.45470  1.0000 2.3629087438
Zr  Zr32      1.0  0.45470  0.10958  0.45470  1.0000 2.3689144929
Zr  Zr33      1.0  0.45470  0.98102  0.10958  1.0000 2.3629087438
Zr  Zr34      1.0  0.45470  0.10958  0.98102  1.0000 2.3629087438
Zr  Zr35      1.0  0.10958  0.45470  0.45470  1.0000 2.3689144929
Zr  Zr36      1.0  0.98102  0.45470  0.45470  1.0000 2.3689144929
H   H1        1.0  0.77862  0.34256  0.01128  1.0000 0.1388166981
H   H2        1.0  0.34256  0.77862  0.86754  1.0000 0.1388166981
H   H3        1.0  0.01128  0.86754  0.77862  1.0000 0.1388166981
H   H4        1.0  0.86754  0.01128  0.34256  1.0000 0.1388166981
H   H5        1.0  0.01128  0.77862  0.34256  1.0000 0.1388166981
H   H6        1.0  0.86754  0.34256  0.77862  1.0000 0.1388166981
H   H7        1.0  0.77862  0.01128  0.86754  1.0000 0.1388166981
H   H8        1.0  0.34256  0.86754  0.01128  1.0000 0.1388166981
H   H9        1.0  0.34256  0.01128  0.77862  1.0000 0.1388166981
H   H10       1.0  0.77862  0.86754  0.34256  1.0000 0.1388166981
H   H11       1.0  0.86754  0.77862  0.01128  1.0000 0.1388166981
H   H12       1.0  0.01128  0.34256  0.86754  1.0000 0.1388166981
H   H13       1.0  0.22138  0.65744  0.13246  1.0000 0.1388166981
H   H14       1.0  0.65744  0.22138  0.98872  1.0000 0.1388166981
H   H15       1.0  0.98872  0.13246  0.65744  1.0000 0.1388166981
H   H16       1.0  0.13246  0.98872  0.22138  1.0000 0.1388166981
H   H17       1.0  0.98872  0.22138  0.13246  1.0000 0.1388166981
H   H18       1.0  0.13246  0.65744  0.98872  1.0000 0.1388166981
H   H19       1.0  0.22138  0.98872  0.65744  1.0000 0.1388166981
H   H20       1.0  0.65744  0.13246  0.22138  1.0000 0.1388166981
H   H21       1.0  0.65744  0.98872  0.13246  1.0000 0.1388166981
H   H22       1.0  0.22138  0.13246  0.98872  1.0000 0.1388166981
H   H23       1.0  0.13246  0.22138  0.65744  1.0000 0.1388166981
H   H24       1.0  0.98872  0.65744  0.22138  1.0000 0.1388166981
H   H25       1.0  0.22138  0.65744  0.98872  1.0000 0.1388166981
H   H26       1.0  0.65744  0.22138  0.13246  1.0000 0.1388166981
H   H27       1.0  0.98872  0.13246  0.22138  1.0000 0.1388166981
H   H28       1.0  0.13246  0.98872  0.65744  1.0000 0.1388166981
H   H29       1.0  0.98872  0.22138  0.65744  1.0000 0.1388166981
H   H30       1.0  0.13246  0.65744  0.22138  1.0000 0.1388166981
H   H31       1.0  0.22138  0.98872  0.13246  1.0000 0.1388166981
H   H32       1.0  0.65744  0.13246  0.98872  1.0000 0.1388166981
H   H33       1.0  0.65744  0.98872  0.22138  1.0000 0.1388166981
H   H34       1.0  0.22138  0.13246  0.65744  1.0000 0.1388166981
H   H35       1.0  0.13246  0.22138  0.98872  1.0000 0.1388166981
H   H36       1.0  0.98872  0.65744  0.13246  1.0000 0.1388166981
H   H37       1.0  0.77862  0.34256  0.86754  1.0000 0.1388166981
H   H38       1.0  0.34256  0.77862  0.01128  1.0000 0.1388166981
H   H39       1.0  0.01128  0.86754  0.34256  1.0000 0.1388166981
H   H40       1.0  0.86754  0.01128  0.77862  1.0000 0.1388166981
H   H41       1.0  0.01128  0.77862  0.86754  1.0000 0.1388166981
H   H42       1.0  0.86754  0.34256  0.01128  1.0000 0.1388166981
H   H43       1.0  0.77862  0.01128  0.34256  1.0000 0.1388166981
H   H44       1.0  0.34256  0.86754  0.77862  1.0000 0.1388166981
H   H45       1.0  0.34256  0.01128  0.86754  1.0000 0.1388166981
H   H46       1.0  0.77862  0.86754  0.01128  1.0000 0.1388166981
H   H47       1.0  0.86754  0.77862  0.34256  1.0000 0.1388166981
H   H48       1.0  0.01128  0.34256  0.77862  1.0000 0.1388166981
H   H49       1.0  0.50000  0.50000  0.18500  1.0000 0.1730676758
H   H50       1.0  0.50000  0.50000  0.81500  1.0000 0.1762620588
H   H51       1.0  0.18500  0.81500  0.50000  1.0000 0.1730676758
H   H52       1.0  0.81500  0.18500  0.50000  1.0000 0.1730676758
H   H53       1.0  0.18500  0.50000  0.50000  1.0000 0.1762620588
H   H54       1.0  0.81500  0.50000  0.50000  1.0000 0.1730676758
H   H55       1.0  0.50000  0.18500  0.81500  1.0000 0.1730676758
H   H56       1.0  0.50000  0.81500  0.18500  1.0000 0.1730676758
H   H57       1.0  0.50000  0.18500  0.50000  1.0000 0.1730676758
H   H58       1.0  0.50000  0.81500  0.50000  1.0000 0.1730676758
H   H59       1.0  0.81500  0.50000  0.18500  1.0000 0.1730676758
H   H60       1.0  0.18500  0.50000  0.81500  1.0000 0.1730676758
C   C1        1.0  0.78010  0.37370  0.01470  1.0000 -0.093226305
C   C2        1.0  0.37370  0.78010  0.83150  1.0000 -0.093226305
C   C3        1.0  0.01470  0.83150  0.78010  1.0000 -0.093226305
C   C4        1.0  0.83150  0.01470  0.37370  1.0000 -0.093226305
C   C5        1.0  0.01470  0.78010  0.37370  1.0000 -0.093226305
C   C6        1.0  0.83150  0.37370  0.78010  1.0000 -0.093226305
C   C7        1.0  0.78010  0.01470  0.83150  1.0000 -0.093226305
C   C8        1.0  0.37370  0.83150  0.01470  1.0000 -0.093226305
C   C9        1.0  0.37370  0.01470  0.78010  1.0000 -0.093226305
C   C10       1.0  0.78010  0.83150  0.37370  1.0000 -0.093226305
C   C11       1.0  0.83150  0.78010  0.01470  1.0000 -0.093226305
C   C12       1.0  0.01470  0.37370  0.83150  1.0000 -0.093226305
C   C13       1.0  0.21990  0.62630  0.16850  1.0000 -0.093226305
C   C14       1.0  0.62630  0.21990  0.98530  1.0000 -0.093226305
C   C15       1.0  0.98530  0.16850  0.62630  1.0000 -0.093226305
C   C16       1.0  0.16850  0.98530  0.21990  1.0000 -0.093226305
C   C17       1.0  0.98530  0.21990  0.16850  1.0000 -0.093226305
C   C18       1.0  0.16850  0.62630  0.98530  1.0000 -0.093226305
C   C19       1.0  0.21990  0.98530  0.62630  1.0000 -0.093226305
C   C20       1.0  0.62630  0.16850  0.21990  1.0000 -0.093226305
C   C21       1.0  0.62630  0.98530  0.16850  1.0000 -0.093226305
C   C22       1.0  0.21990  0.16850  0.98530  1.0000 -0.0951712574
C   C23       1.0  0.16850  0.21990  0.62630  1.0000 -0.093226305
C   C24       1.0  0.98530  0.62630  0.21990  1.0000 -0.093226305
C   C25       1.0  0.21990  0.62630  0.98530  1.0000 -0.093226305
C   C26       1.0  0.62630  0.21990  0.16850  1.0000 -0.093226305
C   C27       1.0  0.98530  0.16850  0.21990  1.0000 -0.093226305
C   C28       1.0  0.16850  0.98530  0.62630  1.0000 -0.093226305
C   C29       1.0  0.98530  0.21990  0.62630  1.0000 -0.093226305
C   C30       1.0  0.16850  0.62630  0.21990  1.0000 -0.093226305
C   C31       1.0  0.21990  0.98530  0.16850  1.0000 -0.093226305
C   C32       1.0  0.62630  0.16850  0.98530  1.0000 -0.093226305
C   C33       1.0  0.62630  0.98530  0.21990  1.0000 -0.093226305
C   C34       1.0  0.21990  0.16850  0.62630  1.0000 -0.093226305
C   C35       1.0  0.16850  0.21990  0.98530  1.0000 -0.093226305
C   C36       1.0  0.98530  0.62630  0.16850  1.0000 -0.093226305
C   C37       1.0  0.78010  0.37370  0.83150  1.0000 -0.093226305
C   C38       1.0  0.37370  0.78010  0.01470  1.0000 -0.093226305
C   C39       1.0  0.01470  0.83150  0.37370  1.0000 -0.093226305
C   C40       1.0  0.83150  0.01470  0.78010  1.0000 -0.093226305
C   C41       1.0  0.01470  0.78010  0.83150  1.0000 -0.093226305
C   C42       1.0  0.83150  0.37370  0.01470  1.0000 -0.093226305
C   C43       1.0  0.78010  0.01470  0.37370  1.0000 -0.093226305
C   C44       1.0  0.37370  0.83150  0.78010  1.0000 -0.093226305
C   C45       1.0  0.37370  0.01470  0.83150  1.0000 -0.093226305
C   C46       1.0  0.78010  0.83150  0.01470  1.0000 -0.093226305
C   C47       1.0  0.83150  0.78010  0.37370  1.0000 -0.093226305
C   C48       1.0  0.01470  0.37370  0.78010  1.0000 -0.0951712574
C   C49       1.0  0.73290  0.42470  0.02030  1.0000 -0.1303141472
C   C50       1.0  0.42470  0.73290  0.82210  1.0000 -0.1303141472
C   C51       1.0  0.02030  0.82210  0.73290  1.0000 -0.1303141472
C   C52       1.0  0.82210  0.02030  0.42470  1.0000 -0.1303141472
C   C53       1.0  0.02030  0.73290  0.42470  1.0000 -0.1303141472
C   C54       1.0  0.82210  0.42470  0.73290  1.0000 -0.1303141472
C   C55       1.0  0.73290  0.02030  0.82210  1.0000 -0.1303141472
C   C56       1.0  0.42470  0.82210  0.02030  1.0000 -0.1303141472
C   C57       1.0  0.42470  0.02030  0.73290  1.0000 -0.1303141472
C   C58       1.0  0.73290  0.82210  0.42470  1.0000 -0.1303141472
C   C59       1.0  0.82210  0.73290  0.02030  1.0000 -0.1303141472
C   C60       1.0  0.02030  0.42470  0.82210  1.0000 -0.1303141472
C   C61       1.0  0.26710  0.57530  0.17790  1.0000 -0.1303141472
C   C62       1.0  0.57530  0.26710  0.97970  1.0000 -0.1303141472
C   C63       1.0  0.97970  0.17790  0.57530  1.0000 -0.1303141472
C   C64       1.0  0.17790  0.97970  0.26710  1.0000 -0.1303141472
C   C65       1.0  0.97970  0.26710  0.17790  1.0000 -0.1303141472
C   C66       1.0  0.17790  0.57530  0.97970  1.0000 -0.1303141472
C   C67       1.0  0.26710  0.97970  0.57530  1.0000 -0.1303141472
C   C68       1.0  0.57530  0.17790  0.26710  1.0000 -0.1303141472
C   C69       1.0  0.57530  0.97970  0.17790  1.0000 -0.1303141472
C   C70       1.0  0.26710  0.17790  0.97970  1.0000 -0.1303141472
C   C71       1.0  0.17790  0.26710  0.57530  1.0000 -0.1303141472
C   C72       1.0  0.97970  0.57530  0.26710  1.0000 -0.1303141472
C   C73       1.0  0.26710  0.57530  0.97970  1.0000 -0.1303141472
C   C74       1.0  0.57530  0.26710  0.17790  1.0000 -0.1303141472
C   C75       1.0  0.97970  0.17790  0.26710  1.0000 -0.1303141472
C   C76       1.0  0.17790  0.97970  0.57530  1.0000 -0.1303141472
C   C77       1.0  0.97970  0.26710  0.57530  1.0000 -0.1303141472
C   C78       1.0  0.17790  0.57530  0.26710  1.0000 -0.1303141472
C   C79       1.0  0.26710  0.97970  0.17790  1.0000 -0.1303141472
C   C80       1.0  0.57530  0.17790  0.97970  1.0000 -0.1303141472
C   C81       1.0  0.57530  0.97970  0.26710  1.0000 -0.1303141472
C   C82       1.0  0.26710  0.17790  0.57530  1.0000 -0.1303141472
C   C83       1.0  0.17790  0.26710  0.97970  1.0000 -0.1303141472
C   C84       1.0  0.97970  0.57530  0.17790  1.0000 -0.1303141472
C   C85       1.0  0.73290  0.42470  0.82210  1.0000 -0.1303141472
C   C86       1.0  0.42470  0.73290  0.02030  1.0000 -0.1303141472
C   C87       1.0  0.02030  0.82210  0.42470  1.0000 -0.1303141472
C   C88       1.0  0.82210  0.02030  0.73290  1.0000 -0.1303141472
C   C89       1.0  0.02030  0.73290  0.82210  1.0000 -0.1303141472
C   C90       1.0  0.82210  0.42470  0.02030  1.0000 -0.1303141472
C   C91       1.0  0.73290  0.02030  0.42470  1.0000 -0.1303141472
C   C92       1.0  0.42470  0.82210  0.73290  1.0000 -0.1303141472
C   C93       1.0  0.42470  0.02030  0.82210  1.0000 -0.1303141472
C   C94       1.0  0.73290  0.82210  0.02030  1.0000 -0.1303141472
C   C95       1.0  0.82210  0.73290  0.42470  1.0000 -0.1303141472
C   C96       1.0  0.02030  0.42470  0.73290  1.0000 -0.1303141472
C   C97       1.0  0.67250  0.44430  0.02070  1.0000 0.6481620153
C   C98       1.0  0.44430  0.67250  0.86250  1.0000 0.6481620153
C   C99       1.0  0.02070  0.86250  0.67250  1.0000 0.6481620153
C   C100      1.0  0.86250  0.02070  0.44430  1.0000 0.6481620153
C   C101      1.0  0.02070  0.67250  0.44430  1.0000 0.6481620153
C   C102      1.0  0.86250  0.44430  0.67250  1.0000 0.6481620153
C   C103      1.0  0.67250  0.02070  0.86250  1.0000 0.6481620153
C   C104      1.0  0.44430  0.86250  0.02070  1.0000 0.6481620153
C   C105      1.0  0.44430  0.02070  0.67250  1.0000 0.6481620153
C   C106      1.0  0.67250  0.86250  0.44430  1.0000 0.6481620153
C   C107      1.0  0.86250  0.67250  0.02070  1.0000 0.6481620153
C   C108      1.0  0.02070  0.44430  0.86250  1.0000 0.6481620153
C   C109      1.0  0.32750  0.55570  0.13750  1.0000 0.6481620153
C   C110      1.0  0.55570  0.32750  0.97930  1.0000 0.6481620153
C   C111      1.0  0.97930  0.13750  0.55570  1.0000 0.6481620153
C   C112      1.0  0.13750  0.97930  0.32750  1.0000 0.6481620153
C   C113      1.0  0.97930  0.32750  0.13750  1.0000 0.6481620153
C   C114      1.0  0.13750  0.55570  0.97930  1.0000 0.6481620153
C   C115      1.0  0.32750  0.97930  0.55570  1.0000 0.6481620153
C   C116      1.0  0.55570  0.13750  0.32750  1.0000 0.6481620153
C   C117      1.0  0.55570  0.97930  0.13750  1.0000 0.6481620153
C   C118      1.0  0.32750  0.13750  0.97930  1.0000 0.6481620153
C   C119      1.0  0.13750  0.32750  0.55570  1.0000 0.6481620153
C   C120      1.0  0.97930  0.55570  0.32750  1.0000 0.6481620153
C   C121      1.0  0.32750  0.55570  0.97930  1.0000 0.6481620153
C   C122      1.0  0.55570  0.32750  0.13750  1.0000 0.6481620153
C   C123      1.0  0.97930  0.13750  0.32750  1.0000 0.6481620153
C   C124      1.0  0.13750  0.97930  0.55570  1.0000 0.6481620153
C   C125      1.0  0.97930  0.32750  0.55570  1.0000 0.6481620153
C   C126      1.0  0.13750  0.55570  0.32750  1.0000 0.6481620153
C   C127      1.0  0.32750  0.97930  0.13750  1.0000 0.6481620153
C   C128      1.0  0.55570  0.13750  0.97930  1.0000 0.6481620153
C   C129      1.0  0.55570  0.97930  0.32750  1.0000 0.6481620153
C   C130      1.0  0.32750  0.13750  0.55570  1.0000 0.6481620153
C   C131      1.0  0.13750  0.32750  0.97930  1.0000 0.6481620153
C   C132      1.0  0.97930  0.55570  0.13750  1.0000 0.6481620153
C   C133      1.0  0.67250  0.44430  0.86250  1.0000 0.6481620153
C   C134      1.0  0.44430  0.67250  0.02070  1.0000 0.6481620153
C   C135      1.0  0.02070  0.86250  0.44430  1.0000 0.6481620153
C   C136      1.0  0.86250  0.02070  0.67250  1.0000 0.6481620153
C   C137      1.0  0.02070  0.67250  0.86250  1.0000 0.6481620153
C   C138      1.0  0.86250  0.44430  0.02070  1.0000 0.6481620153
C   C139      1.0  0.67250  0.02070  0.44430  1.0000 0.6481620153
C   C140      1.0  0.44430  0.86250  0.67250  1.0000 0.6481620153
C   C141      1.0  0.44430  0.02070  0.86250  1.0000 0.6481620153
C   C142      1.0  0.67250  0.86250  0.02070  1.0000 0.6481620153
C   C143      1.0  0.86250  0.67250  0.44430  1.0000 0.6481620153
C   C144      1.0  0.02070  0.44430  0.67250  1.0000 0.6481620153
C   C145      1.0  0.50000  0.50000  0.15040  1.0000 0.3197647636
C   C146      1.0  0.50000  0.50000  0.84960  1.0000 0.3130126874
C   C147      1.0  0.15040  0.84960  0.50000  1.0000 0.3197647636
C   C148      1.0  0.84960  0.15040  0.50000  1.0000 0.3197647636
C   C149      1.0  0.15040  0.50000  0.50000  1.0000 0.3258840819
C   C150      1.0  0.84960  0.50000  0.50000  1.0000 0.3197647636
C   C151      1.0  0.50000  0.15040  0.84960  1.0000 0.3130126874
C   C152      1.0  0.50000  0.84960  0.15040  1.0000 0.3197647636
C   C153      1.0  0.50000  0.15040  0.50000  1.0000 0.3197647636
C   C154      1.0  0.50000  0.84960  0.50000  1.0000 0.3197647636
C   C155      1.0  0.84960  0.50000  0.15040  1.0000 0.3197647636
C   C156      1.0  0.15040  0.50000  0.84960  1.0000 0.3130126874
S   S1        1.0  0.75030  0.47350  0.02590  1.0000 0.1730676758
S   S2        1.0  0.47350  0.75030  0.75030  1.0000 0.1601547523
S   S3        1.0  0.02590  0.75030  0.75030  1.0000 0.1601547523
S   S4        1.0  0.75030  0.02590  0.47350  1.0000 0.1601547523
S   S5        1.0  0.02590  0.75030  0.47350  1.0000 0.1601547523
S   S6        1.0  0.75030  0.47350  0.75030  1.0000 0.1601547523
S   S7        1.0  0.75030  0.02590  0.75030  1.0000 0.1601547523
S   S8        1.0  0.47350  0.75030  0.02590  1.0000 0.1601547523
S   S9        1.0  0.47350  0.02590  0.75030  1.0000 0.1601547523
S   S10       1.0  0.75030  0.75030  0.47350  1.0000 0.1601547523
S   S11       1.0  0.75030  0.75030  0.02590  1.0000 0.1601547523
S   S12       1.0  0.02590  0.47350  0.75030  1.0000 0.1601547523
S   S13       1.0  0.24970  0.52650  0.24970  1.0000 0.1601547523
S   S14       1.0  0.52650  0.24970  0.97410  1.0000 0.1601547523
S   S15       1.0  0.97410  0.24970  0.52650  1.0000 0.1730676758
S   S16       1.0  0.24970  0.97410  0.24970  1.0000 0.1601547523
S   S17       1.0  0.97410  0.24970  0.24970  1.0000 0.1601547523
S   S18       1.0  0.24970  0.52650  0.97410  1.0000 0.1601547523
S   S19       1.0  0.24970  0.97410  0.52650  1.0000 0.1601547523
S   S20       1.0  0.52650  0.24970  0.24970  1.0000 0.1601547523
S   S21       1.0  0.52650  0.97410  0.24970  1.0000 0.1601547523
S   S22       1.0  0.24970  0.24970  0.97410  1.0000 0.1601547523
S   S23       1.0  0.24970  0.24970  0.52650  1.0000 0.1601547523
S   S24       1.0  0.97410  0.52650  0.24970  1.0000 0.1601547523
O   O1        1.0  0.66510  0.40470  0.01190  1.0000 -0.6301064784
O   O2        1.0  0.40470  0.66510  0.91830  1.0000 -0.6301064784
O   O3        1.0  0.01190  0.91830  0.66510  1.0000 -0.6301064784
O   O4        1.0  0.91830  0.01190  0.40470  1.0000 -0.6301064784
O   O5        1.0  0.01190  0.66510  0.40470  1.0000 -0.6301064784
O   O6        1.0  0.91830  0.40470  0.66510  1.0000 -0.6301064784
O   O7        1.0  0.66510  0.01190  0.91830  1.0000 -0.6301064784
O   O8        1.0  0.40470  0.91830  0.01190  1.0000 -0.6301064784
O   O9        1.0  0.40470  0.01190  0.66510  1.0000 -0.6301064784
O   O10       1.0  0.66510  0.91830  0.40470  1.0000 -0.6301064784
O   O11       1.0  0.91830  0.66510  0.01190  1.0000 -0.6301064784
O   O12       1.0  0.01190  0.40470  0.91830  1.0000 -0.6301064784
O   O13       1.0  0.33490  0.59530  0.08170  1.0000 -0.6301064784
O   O14       1.0  0.59530  0.33490  0.98810  1.0000 -0.6301064784
O   O15       1.0  0.98810  0.08170  0.59530  1.0000 -0.6301064784
O   O16       1.0  0.08170  0.98810  0.33490  1.0000 -0.6301064784
O   O17       1.0  0.98810  0.33490  0.08170  1.0000 -0.6301064784
O   O18       1.0  0.08170  0.59530  0.98810  1.0000 -0.6301064784
O   O19       1.0  0.33490  0.98810  0.59530  1.0000 -0.6301064784
O   O20       1.0  0.59530  0.08170  0.33490  1.0000 -0.6301064784
O   O21       1.0  0.59530  0.98810  0.08170  1.0000 -0.6301064784
O   O22       1.0  0.33490  0.08170  0.98810  1.0000 -0.6301064784
O   O23       1.0  0.08170  0.33490  0.59530  1.0000 -0.6301064784
O   O24       1.0  0.98810  0.59530  0.33490  1.0000 -0.6301064784
O   O25       1.0  0.33490  0.59530  0.98810  1.0000 -0.6301064784
O   O26       1.0  0.59530  0.33490  0.08170  1.0000 -0.6301064784
O   O27       1.0  0.98810  0.08170  0.33490  1.0000 -0.6301064784
O   O28       1.0  0.08170  0.98810  0.59530  1.0000 -0.6301064784
O   O29       1.0  0.98810  0.33490  0.59530  1.0000 -0.6301064784
O   O30       1.0  0.08170  0.59530  0.33490  1.0000 -0.6301064784
O   O31       1.0  0.33490  0.98810  0.08170  1.0000 -0.6301064784
O   O32       1.0  0.59530  0.08170  0.98810  1.0000 -0.6301064784
O   O33       1.0  0.59530  0.98810  0.33490  1.0000 -0.6301064784
O   O34       1.0  0.33490  0.08170  0.59530  1.0000 -0.6301064784
O   O35       1.0  0.08170  0.33490  0.98810  1.0000 -0.6301064784
O   O36       1.0  0.98810  0.59530  0.08170  1.0000 -0.6301064784
O   O37       1.0  0.66510  0.40470  0.91830  1.0000 -0.6301064784
O   O38       1.0  0.40470  0.66510  0.01190  1.0000 -0.6301064784
O   O39       1.0  0.01190  0.91830  0.40470  1.0000 -0.6301064784
O   O40       1.0  0.91830  0.01190  0.66510  1.0000 -0.6301064784
O   O41       1.0  0.01190  0.66510  0.91830  1.0000 -0.6301064784
O   O42       1.0  0.91830  0.40470  0.01190  1.0000 -0.6301064784
O   O43       1.0  0.66510  0.01190  0.40470  1.0000 -0.6301064784
O   O44       1.0  0.40470  0.91830  0.66510  1.0000 -0.6301064784
O   O45       1.0  0.40470  0.01190  0.91830  1.0000 -0.6301064784
O   O46       1.0  0.66510  0.91830  0.01190  1.0000 -0.6301064784
O   O47       1.0  0.91830  0.66510  0.40470  1.0000 -0.6301064784
O   O48       1.0  0.01190  0.40470  0.66510  1.0000 -0.6301064784
O   O49       1.0  0.63780  0.49120  0.02440  1.0000 -0.5545932137
O   O50       1.0  0.49120  0.63780  0.84660  1.0000 -0.5545932137
O   O51       1.0  0.02440  0.84660  0.63780  1.0000 -0.5545932137
O   O52       1.0  0.84660  0.02440  0.49120  1.0000 -0.559041761
O   O53       1.0  0.02440  0.63780  0.49120  1.0000 -0.559041761
O   O54       1.0  0.84660  0.49120  0.63780  1.0000 -0.559041761
O   O55       1.0  0.63780  0.02440  0.84660  1.0000 -0.5545932137
O   O56       1.0  0.49120  0.84660  0.02440  1.0000 -0.559041761
O   O57       1.0  0.49120  0.02440  0.63780  1.0000 -0.559041761
O   O58       1.0  0.63780  0.84660  0.49120  1.0000 -0.559041761
O   O59       1.0  0.84660  0.63780  0.02440  1.0000 -0.5545932137
O   O60       1.0  0.02440  0.49120  0.84660  1.0000 -0.5545932137
O   O61       1.0  0.36220  0.50880  0.15340  1.0000 -0.5545932137
O   O62       1.0  0.50880  0.36220  0.97560  1.0000 -0.559041761
O   O63       1.0  0.97560  0.15340  0.50880  1.0000 -0.5545932137
O   O64       1.0  0.15340  0.97560  0.36220  1.0000 -0.559041761
O   O65       1.0  0.97560  0.36220  0.15340  1.0000 -0.5545932137
O   O66       1.0  0.15340  0.50880  0.97560  1.0000 -0.5545932137
O   O67       1.0  0.36220  0.97560  0.50880  1.0000 -0.559041761
O   O68       1.0  0.50880  0.15340  0.36220  1.0000 -0.559041761
O   O69       1.0  0.50880  0.97560  0.15340  1.0000 -0.559041761
O   O70       1.0  0.36220  0.15340  0.97560  1.0000 -0.559041761
O   O71       1.0  0.15340  0.36220  0.50880  1.0000 -0.5545932137
O   O72       1.0  0.97560  0.50880  0.36220  1.0000 -0.559041761
O   O73       1.0  0.36220  0.50880  0.97560  1.0000 -0.5545932137
O   O74       1.0  0.50880  0.36220  0.15340  1.0000 -0.559041761
O   O75       1.0  0.97560  0.15340  0.36220  1.0000 -0.559041761
O   O76       1.0  0.15340  0.97560  0.50880  1.0000 -0.559041761
O   O77       1.0  0.97560  0.36220  0.50880  1.0000 -0.5545932137
O   O78       1.0  0.15340  0.50880  0.36220  1.0000 -0.559041761
O   O79       1.0  0.36220  0.97560  0.15340  1.0000 -0.559041761
O   O80       1.0  0.50880  0.15340  0.97560  1.0000 -0.5545932137
O   O81       1.0  0.50880  0.97560  0.36220  1.0000 -0.559041761
O   O82       1.0  0.36220  0.15340  0.50880  1.0000 -0.5545932137
O   O83       1.0  0.15340  0.36220  0.97560  1.0000 -0.559041761
O   O84       1.0  0.97560  0.50880  0.15340  1.0000 -0.5545932137
O   O85       1.0  0.63780  0.49120  0.84660  1.0000 -0.5545932137
O   O86       1.0  0.49120  0.63780  0.02440  1.0000 -0.5545932137
O   O87       1.0  0.02440  0.84660  0.49120  1.0000 -0.559041761
O   O88       1.0  0.84660  0.02440  0.63780  1.0000 -0.5545932137
O   O89       1.0  0.02440  0.63780  0.84660  1.0000 -0.5545932137
O   O90       1.0  0.84660  0.49120  0.02440  1.0000 -0.5545932137
O   O91       1.0  0.63780  0.02440  0.49120  1.0000 -0.559041761
O   O92       1.0  0.49120  0.84660  0.63780  1.0000 -0.5545932137
O   O93       1.0  0.49120  0.02440  0.84660  1.0000 -0.559041761
O   O94       1.0  0.63780  0.84660  0.02440  1.0000 -0.559041761
O   O95       1.0  0.84660  0.63780  0.49120  1.0000 -0.559041761
O   O96       1.0  0.02440  0.49120  0.63780  1.0000 -0.559041761
O   O97       1.0  0.53325  0.53325  0.11375  1.0000 -0.559041761
O   O98       1.0  0.53325  0.53325  0.81975  1.0000 -0.5666342656
O   O99       1.0  0.11375  0.81975  0.53325  1.0000 -0.559041761
O   O100      1.0  0.81975  0.11375  0.53325  1.0000 -0.559041761
O   O101      1.0  0.11375  0.53325  0.53325  1.0000 -0.5666342656
O   O102      1.0  0.81975  0.53325  0.53325  1.0000 -0.559041761
O   O103      1.0  0.53325  0.11375  0.81975  1.0000 -0.559041761
O   O104      1.0  0.53325  0.81975  0.11375  1.0000 -0.559041761
O   O105      1.0  0.53325  0.11375  0.53325  1.0000 -0.559041761
O   O106      1.0  0.53325  0.81975  0.53325  1.0000 -0.559041761
O   O107      1.0  0.81975  0.53325  0.11375  1.0000 -0.559041761
O   O108      1.0  0.11375  0.53325  0.81975  1.0000 -0.5666342656
O   O109      1.0  0.46675  0.46675  0.18025  1.0000 -0.559041761
O   O110      1.0  0.46675  0.46675  0.88625  1.0000 -0.5666342656
O   O111      1.0  0.88625  0.18025  0.46675  1.0000 -0.559041761
O   O112      1.0  0.18025  0.88625  0.46675  1.0000 -0.559041761
O   O113      1.0  0.88625  0.46675  0.18025  1.0000 -0.559041761
O   O114      1.0  0.18025  0.46675  0.88625  1.0000 -0.559041761
O   O115      1.0  0.46675  0.88625  0.46675  1.0000 -0.559041761
O   O116      1.0  0.46675  0.18025  0.46675  1.0000 -0.559041761
O   O117      1.0  0.46675  0.88625  0.18025  1.0000 -0.559041761
O   O118      1.0  0.46675  0.18025  0.88625  1.0000 -0.559041761
O   O119      1.0  0.18025  0.46675  0.46675  1.0000 -0.5666342656
O   O120      1.0  0.88625  0.46675  0.46675  1.0000 -0.559041761
O   O121      1.0  0.54480  0.45520  0.06200  1.0000 -1.1032992323
O   O122      1.0  0.45520  0.54480  0.93800  1.0000 -1.1082398046
O   O123      1.0  0.06200  0.93800  0.54480  1.0000 -1.115159742
O   O124      1.0  0.93800  0.06200  0.45520  1.0000 -1.1032992323
O   O125      1.0  0.06200  0.54480  0.45520  1.0000 -1.1082398046
O   O126      1.0  0.93800  0.45520  0.54480  1.0000 -1.1082398046
O   O127      1.0  0.54480  0.06200  0.93800  1.0000 -1.1082398046
O   O128      1.0  0.45520  0.93800  0.06200  1.0000 -1.1082398046
O   O129      1.0  0.45520  0.06200  0.54480  1.0000 -1.1082398046
O   O130      1.0  0.54480  0.93800  0.45520  1.0000 -1.1032992323
O   O131      1.0  0.93800  0.54480  0.06200  1.0000 -1.115159742
O   O132      1.0  0.06200  0.45520  0.93800  1.0000 -1.1082398046
O   O133      1.0  0.45520  0.54480  0.06200  1.0000 -1.115159742
O   O134      1.0  0.54480  0.45520  0.93800  1.0000 -1.1082398046
O   O135      1.0  0.93800  0.06200  0.54480  1.0000 -1.1082398046
O   O136      1.0  0.06200  0.93800  0.45520  1.0000 -1.1082398046
O   O137      1.0  0.93800  0.45520  0.06200  1.0000 -1.1032992323
O   O138      1.0  0.06200  0.54480  0.93800  1.0000 -1.1082398046
O   O139      1.0  0.45520  0.93800  0.54480  1.0000 -1.115159742
O   O140      1.0  0.54480  0.06200  0.45520  1.0000 -1.1032992323
O   O141      1.0  0.54480  0.93800  0.06200  1.0000 -1.1082398046
O   O142      1.0  0.45520  0.06200  0.93800  1.0000 -1.1082398046
O   O143      1.0  0.06200  0.45520  0.54480  1.0000 -1.1032992323
O   O144      1.0  0.93800  0.54480  0.45520  1.0000 -1.1082398046
O   O145      1.0  0.49610  0.41250  0.04570  1.0000 -1.0476668815
O   O146      1.0  0.41250  0.49610  0.04570  1.0000 -1.0476668815
O   O147      1.0  0.04570  0.04570  0.49610  1.0000 -1.0476668815
O   O148      1.0  0.04570  0.04570  0.41250  1.0000 -1.0476668815
O   O149      1.0  0.04570  0.49610  0.41250  1.0000 -1.043526721
O   O150      1.0  0.04570  0.41250  0.49610  1.0000 -1.0476668815
O   O151      1.0  0.49610  0.04570  0.04570  1.0000 -1.0476668815
O   O152      1.0  0.41250  0.04570  0.04570  1.0000 -1.0476668815
O   O153      1.0  0.41250  0.04570  0.49610  1.0000 -1.043526721
O   O154      1.0  0.49610  0.04570  0.41250  1.0000 -1.0476668815
O   O155      1.0  0.04570  0.49610  0.04570  1.0000 -1.0476668815
O   O156      1.0  0.04570  0.41250  0.04570  1.0000 -1.0476668815
O   O157      1.0  0.50390  0.58750  0.95430  1.0000 -1.0476668815
O   O158      1.0  0.58750  0.50390  0.95430  1.0000 -1.0476668815
O   O159      1.0  0.95430  0.95430  0.58750  1.0000 -1.0476668815
O   O160      1.0  0.95430  0.95430  0.50390  1.0000 -1.0476668815
O   O161      1.0  0.95430  0.50390  0.95430  1.0000 -1.0476668815
O   O162      1.0  0.95430  0.58750  0.95430  1.0000 -1.0476668815
O   O163      1.0  0.50390  0.95430  0.58750  1.0000 -1.0476668815
O   O164      1.0  0.58750  0.95430  0.50390  1.0000 -1.0476668815
O   O165      1.0  0.58750  0.95430  0.95430  1.0000 -1.0553361098
O   O166      1.0  0.50390  0.95430  0.95430  1.0000 -1.0476668815
O   O167      1.0  0.95430  0.50390  0.58750  1.0000 -1.0476668815
O   O168      1.0  0.95430  0.58750  0.50390  1.0000 -1.043526721
