# DDEC6 charges by PACMAN v1.1 (https://github.com/mtap-research/PACMAN-charge/)
data_2023[ZnTi][nan]3[ASR]5
_chemical_formula_sum              "Ti8 Zn6 H246 C384 N30 O72"
_cell_length_a       20.6713
_cell_length_b       20.6713
_cell_length_c       30.6993
_cell_angle_alpha    90
_cell_angle_beta     90
_cell_angle_gamma    120

_symmetry_space_group_name_H-M    "P 1"
_symmetry_Int_Tables_number       1

loop_
  _symmetry_equiv_pos_as_xyz
  'x, y, z'

loop_
  _atom_site_type_symbol
  _atom_site_label
  _atom_site_symmetry_multiplicity
  _atom_site_fract_x
  _atom_site_fract_y
  _atom_site_fract_z
  _atom_site_occupancy
  _atom_site_charge
Ti  Ti1       1.0  0.66667  0.33333  0.39629  1.0000 1.9207975375
Ti  Ti2       1.0  0.33333  0.66667  0.89629  1.0000 1.9207975375
Ti  Ti3       1.0  0.94864  0.51400  0.63719  1.0000 1.9065384574
Ti  Ti4       1.0  0.48600  0.43464  0.63719  1.0000 1.9065384574
Ti  Ti5       1.0  0.56536  0.05136  0.63719  1.0000 1.9065384574
Ti  Ti6       1.0  0.05136  0.48600  0.13719  1.0000 1.9065384574
Ti  Ti7       1.0  0.51400  0.56536  0.13719  1.0000 1.9065384574
Ti  Ti8       1.0  0.43464  0.94864  0.13719  1.0000 1.9065384574
Zn  Zn1       1.0  0.57438  0.84024  0.64709  1.0000 0.7345207441
Zn  Zn2       1.0  0.15976  0.73414  0.64709  1.0000 0.7345207441
Zn  Zn3       1.0  0.26586  0.42562  0.64709  1.0000 0.7345207441
Zn  Zn4       1.0  0.42562  0.15976  0.14709  1.0000 0.7345207441
Zn  Zn5       1.0  0.84024  0.26586  0.14709  1.0000 0.7345207441
Zn  Zn6       1.0  0.73414  0.57438  0.14709  1.0000 0.7345207441
H   H1        1.0  0.47112  0.86368  0.65229  1.0000 0.3020673881
H   H2        1.0  0.13632  0.60744  0.65229  1.0000 0.3020673881
H   H3        1.0  0.39256  0.52888  0.65229  1.0000 0.3020673881
H   H4        1.0  0.52888  0.13632  0.15229  1.0000 0.3020673881
H   H5        1.0  0.86368  0.39256  0.15229  1.0000 0.3020673881
H   H6        1.0  0.60744  0.47112  0.15229  1.0000 0.3020673881
H   H7        1.0  0.49751  0.86448  0.69627  1.0000 0.3198370743
H   H8        1.0  0.13552  0.63303  0.69627  1.0000 0.3198370743
H   H9        1.0  0.36697  0.50249  0.69627  1.0000 0.3198370743
H   H10       1.0  0.50249  0.13552  0.19627  1.0000 0.3198370743
H   H11       1.0  0.86448  0.36697  0.19627  1.0000 0.3198370743
H   H12       1.0  0.63303  0.49751  0.19627  1.0000 0.3198370743
H   H13       1.0  0.44920  0.79378  0.67470  1.0000 0.3053525793
H   H14       1.0  0.20622  0.65542  0.67470  1.0000 0.3020673881
H   H15       1.0  0.34458  0.55080  0.67470  1.0000 0.3020673881
H   H16       1.0  0.55080  0.20622  0.17470  1.0000 0.3020673881
H   H17       1.0  0.79378  0.34458  0.17470  1.0000 0.3020673881
H   H18       1.0  0.65542  0.44920  0.17470  1.0000 0.3020673881
H   H19       1.0  0.90450  0.42877  0.80184  1.0000 0.1208331575
H   H20       1.0  0.57123  0.47573  0.80184  1.0000 0.1208331575
H   H21       1.0  0.52427  0.09550  0.80184  1.0000 0.1208331575
H   H22       1.0  0.09550  0.57123  0.30184  1.0000 0.1208331575
H   H23       1.0  0.42877  0.52427  0.30184  1.0000 0.1208331575
H   H24       1.0  0.47573  0.90450  0.30184  1.0000 0.1208331575
H   H25       1.0  0.82823  0.46000  0.52937  1.0000 0.1303629955
H   H26       1.0  0.54000  0.36823  0.52937  1.0000 0.1303629955
H   H27       1.0  0.63177  0.17177  0.52937  1.0000 0.1303629955
H   H28       1.0  0.17177  0.54000  0.02937  1.0000 0.1303629955
H   H29       1.0  0.46000  0.63177  0.02937  1.0000 0.1303629955
H   H30       1.0  0.36823  0.82823  0.02937  1.0000 0.1303629955
H   H31       1.0  0.80937  0.40247  0.49153  1.0000 0.1358642685
H   H32       1.0  0.59753  0.40690  0.49153  1.0000 0.1358642685
H   H33       1.0  0.59310  0.19063  0.49153  1.0000 0.1358642685
H   H34       1.0  0.19063  0.59753  0.99153  1.0000 0.1358642685
H   H35       1.0  0.40247  0.59310  0.99153  1.0000 0.1358642685
H   H36       1.0  0.40690  0.80937  0.99153  1.0000 0.1358642685
H   H37       1.0  0.73343  0.25048  0.65920  1.0000 0.1303629955
H   H38       1.0  0.74952  0.48295  0.65920  1.0000 0.1303629955
H   H39       1.0  0.51705  0.26657  0.65920  1.0000 0.1303629955
H   H40       1.0  0.26657  0.74952  0.15920  1.0000 0.1303629955
H   H41       1.0  0.25048  0.51705  0.15920  1.0000 0.1303629955
H   H42       1.0  0.48295  0.73343  0.15920  1.0000 0.1303629955
H   H43       1.0  0.80956  0.29912  0.63532  1.0000 0.1303629955
H   H44       1.0  0.70088  0.51044  0.63532  1.0000 0.1303629955
H   H45       1.0  0.48956  0.19044  0.63532  1.0000 0.1303629955
H   H46       1.0  0.19044  0.70088  0.13532  1.0000 0.1303629955
H   H47       1.0  0.29912  0.48956  0.13532  1.0000 0.1303629955
H   H48       1.0  0.51044  0.80956  0.13532  1.0000 0.1303629955
H   H49       1.0  0.82460  0.63106  0.38364  1.0000 0.1208331575
H   H50       1.0  0.36894  0.19354  0.38364  1.0000 0.1208331575
H   H51       1.0  0.80646  0.17540  0.38364  1.0000 0.1208331575
H   H52       1.0  0.17540  0.36894  0.88364  1.0000 0.1208331575
H   H53       1.0  0.63106  0.80646  0.88364  1.0000 0.1208331575
H   H54       1.0  0.19354  0.82460  0.88364  1.0000 0.1208331575
H   H55       1.0  0.97935  0.71795  0.54334  1.0000 0.1125657698
H   H56       1.0  0.28205  0.26140  0.54334  1.0000 0.1125657698
H   H57       1.0  0.73860  0.02065  0.54334  1.0000 0.1125657698
H   H58       1.0  0.02065  0.28205  0.04334  1.0000 0.1125657698
H   H59       1.0  0.71795  0.73860  0.04334  1.0000 0.1125657698
H   H60       1.0  0.26140  0.97935  0.04334  1.0000 0.1125657698
H   H61       1.0  0.86924  0.41269  0.42359  1.0000 0.1303629955
H   H62       1.0  0.58731  0.45655  0.42359  1.0000 0.1303629955
H   H63       1.0  0.54345  0.13076  0.42359  1.0000 0.1303629955
H   H64       1.0  0.13076  0.58731  0.92359  1.0000 0.1303629955
H   H65       1.0  0.41269  0.54345  0.92359  1.0000 0.1303629955
H   H66       1.0  0.45655  0.86924  0.92359  1.0000 0.1303629955
H   H67       1.0  0.91846  0.59065  0.53579  1.0000 0.1208331575
H   H68       1.0  0.40935  0.32781  0.53579  1.0000 0.1208331575
H   H69       1.0  0.67219  0.08154  0.53579  1.0000 0.1208331575
H   H70       1.0  0.08154  0.40935  0.03579  1.0000 0.1208331575
H   H71       1.0  0.59065  0.67219  0.03579  1.0000 0.1208331575
H   H72       1.0  0.32781  0.91846  0.03579  1.0000 0.1208331575
H   H73       1.0  0.12145  0.51265  0.51051  1.0000 0.1125657698
H   H74       1.0  0.48735  0.60880  0.51051  1.0000 0.1125657698
H   H75       1.0  0.39120  0.87855  0.51051  1.0000 0.1125657698
H   H76       1.0  0.87855  0.48735  0.01051  1.0000 0.1125657698
H   H77       1.0  0.51265  0.39120  0.01051  1.0000 0.1125657698
H   H78       1.0  0.60880  0.12145  0.01051  1.0000 0.1125657698
H   H79       1.0  0.82051  0.32332  0.84783  1.0000 0.1208331575
H   H80       1.0  0.67668  0.49719  0.84783  1.0000 0.1208331575
H   H81       1.0  0.50281  0.17949  0.84783  1.0000 0.1208331575
H   H82       1.0  0.17949  0.67668  0.34783  1.0000 0.1208331575
H   H83       1.0  0.32332  0.50281  0.34783  1.0000 0.1208331575
H   H84       1.0  0.49719  0.82051  0.34783  1.0000 0.1208331575
H   H85       1.0  0.71111  0.17624  0.72498  1.0000 0.1208331575
H   H86       1.0  0.82376  0.53487  0.72498  1.0000 0.1208331575
H   H87       1.0  0.46513  0.28889  0.72498  1.0000 0.1208331575
H   H88       1.0  0.28889  0.82376  0.22498  1.0000 0.1208331575
H   H89       1.0  0.17624  0.46513  0.22498  1.0000 0.1208331575
H   H90       1.0  0.53487  0.71111  0.22498  1.0000 0.1208331575
H   H91       1.0  0.59583  0.06916  0.20725  1.0000 0.148713063
H   H92       1.0  0.93084  0.52667  0.20725  1.0000 0.148713063
H   H93       1.0  0.47333  0.40417  0.20725  1.0000 0.148713063
H   H94       1.0  0.40417  0.93084  0.70725  1.0000 0.148713063
H   H95       1.0  0.06916  0.47333  0.70725  1.0000 0.148713063
H   H96       1.0  0.52667  0.59583  0.70725  1.0000 0.148713063
H   H97       1.0  0.66494  0.16017  0.14941  1.0000 0.1358642685
H   H98       1.0  0.83983  0.50477  0.14941  1.0000 0.1358642685
H   H99       1.0  0.49523  0.33506  0.14941  1.0000 0.1358642685
H   H100      1.0  0.33506  0.83983  0.64941  1.0000 0.1358642685
H   H101      1.0  0.16017  0.49523  0.64941  1.0000 0.1358642685
H   H102      1.0  0.50477  0.66494  0.64941  1.0000 0.1358642685
H   H103      1.0  0.91199  0.74262  0.42603  1.0000 0.1208331575
H   H104      1.0  0.25738  0.16937  0.42603  1.0000 0.1208331575
H   H105      1.0  0.83063  0.08801  0.42603  1.0000 0.1208331575
H   H106      1.0  0.08801  0.25738  0.92603  1.0000 0.1208331575
H   H107      1.0  0.74262  0.83063  0.92603  1.0000 0.1208331575
H   H108      1.0  0.16937  0.91199  0.92603  1.0000 0.1208331575
H   H109      1.0  0.93083  0.40499  0.36312  1.0000 0.1303629955
H   H110      1.0  0.59501  0.52584  0.36312  1.0000 0.1303629955
H   H111      1.0  0.47416  0.06917  0.36312  1.0000 0.1303629955
H   H112      1.0  0.06917  0.59501  0.86312  1.0000 0.1303629955
H   H113      1.0  0.40499  0.47416  0.86312  1.0000 0.1303629955
H   H114      1.0  0.52584  0.93083  0.86312  1.0000 0.1303629955
H   H115      1.0  0.57415  0.89687  0.55174  1.0000 0.1303629955
H   H116      1.0  0.10313  0.67728  0.55174  1.0000 0.1303629955
H   H117      1.0  0.32272  0.42585  0.55174  1.0000 0.1303629955
H   H118      1.0  0.42585  0.10313  0.05174  1.0000 0.1303629955
H   H119      1.0  0.89687  0.32272  0.05174  1.0000 0.1303629955
H   H120      1.0  0.67728  0.57415  0.05174  1.0000 0.1303629955
H   H121      1.0  0.72604  0.20010  0.85553  1.0000 0.1125657698
H   H122      1.0  0.79990  0.52594  0.85553  1.0000 0.1125657698
H   H123      1.0  0.47406  0.27396  0.85553  1.0000 0.1125657698
H   H124      1.0  0.27396  0.79990  0.35553  1.0000 0.1125657698
H   H125      1.0  0.20010  0.47406  0.35553  1.0000 0.1125657698
H   H126      1.0  0.52594  0.72604  0.35553  1.0000 0.1125657698
H   H127      1.0  0.93211  0.32101  0.65136  1.0000 0.1208331575
H   H128      1.0  0.67899  0.61110  0.65136  1.0000 0.1208331575
H   H129      1.0  0.38890  0.06789  0.65136  1.0000 0.1208331575
H   H130      1.0  0.06789  0.67899  0.15136  1.0000 0.1208331575
H   H131      1.0  0.32101  0.38890  0.15136  1.0000 0.1208331575
H   H132      1.0  0.61110  0.93211  0.15136  1.0000 0.1208331575
H   H133      1.0  0.97842  0.79323  0.48869  1.0000 0.1208331575
H   H134      1.0  0.20677  0.18519  0.48869  1.0000 0.1208331575
H   H135      1.0  0.81481  0.02158  0.48869  1.0000 0.1208331575
H   H136      1.0  0.02158  0.20677  0.98869  1.0000 0.1208331575
H   H137      1.0  0.79323  0.81481  0.98869  1.0000 0.1208331575
H   H138      1.0  0.18519  0.97842  0.98869  1.0000 0.1208331575
H   H139      1.0  0.67503  0.12636  0.79432  1.0000 0.1208331575
H   H140      1.0  0.87364  0.54867  0.79432  1.0000 0.1208331575
H   H141      1.0  0.45133  0.32497  0.79432  1.0000 0.1208331575
H   H142      1.0  0.32497  0.87364  0.29432  1.0000 0.1208331575
H   H143      1.0  0.12636  0.45133  0.29432  1.0000 0.1208331575
H   H144      1.0  0.54867  0.67503  0.29432  1.0000 0.1208331575
H   H145      1.0  0.81186  0.16421  0.23167  1.0000 0.1303629955
H   H146      1.0  0.83579  0.64765  0.23167  1.0000 0.1303629955
H   H147      1.0  0.35235  0.18814  0.23167  1.0000 0.1303629955
H   H148      1.0  0.18814  0.83579  0.73167  1.0000 0.1303629955
H   H149      1.0  0.16421  0.35235  0.73167  1.0000 0.1303629955
H   H150      1.0  0.64765  0.81186  0.73167  1.0000 0.1303629955
H   H151      1.0  0.11906  0.48128  0.43114  1.0000 0.1125657698
H   H152      1.0  0.51872  0.63778  0.43114  1.0000 0.1125657698
H   H153      1.0  0.36222  0.88094  0.43114  1.0000 0.1125657698
H   H154      1.0  0.88094  0.51872  0.93114  1.0000 0.1125657698
H   H155      1.0  0.48128  0.36222  0.93114  1.0000 0.1125657698
H   H156      1.0  0.63778  0.11906  0.93114  1.0000 0.1125657698
H   H157      1.0  0.04671  0.32517  0.64799  1.0000 0.0991896498
H   H158      1.0  0.67483  0.72154  0.64799  1.0000 0.0991896498
H   H159      1.0  0.27846  0.95329  0.64799  1.0000 0.0991896498
H   H160      1.0  0.95329  0.67483  0.14799  1.0000 0.0991896498
H   H161      1.0  0.32517  0.27846  0.14799  1.0000 0.0991896498
H   H162      1.0  0.72154  0.04671  0.14799  1.0000 0.0991896498
H   H163      1.0  0.05626  0.43706  0.36774  1.0000 0.1208331575
H   H164      1.0  0.56294  0.61920  0.36774  1.0000 0.1208331575
H   H165      1.0  0.38080  0.94374  0.36774  1.0000 0.1208331575
H   H166      1.0  0.94374  0.56294  0.86774  1.0000 0.1208331575
H   H167      1.0  0.43706  0.38080  0.86774  1.0000 0.1208331575
H   H168      1.0  0.61920  0.05626  0.86774  1.0000 0.1208331575
H   H169      1.0  0.67597  0.82867  0.44773  1.0000 0.1303629955
H   H170      1.0  0.17133  0.84730  0.44773  1.0000 0.1303629955
H   H171      1.0  0.15270  0.32403  0.44773  1.0000 0.1303629955
H   H172      1.0  0.32403  0.17133  0.94773  1.0000 0.1303629955
H   H173      1.0  0.82867  0.15270  0.94773  1.0000 0.1303629955
H   H174      1.0  0.84730  0.67597  0.94773  1.0000 0.1303629955
H   H175      1.0  0.59798  0.72693  0.58569  1.0000 0.1303629955
H   H176      1.0  0.27307  0.87105  0.58569  1.0000 0.1303629955
H   H177      1.0  0.12895  0.40202  0.58569  1.0000 0.1303629955
H   H178      1.0  0.40202  0.27307  0.08569  1.0000 0.1303629955
H   H179      1.0  0.72693  0.12895  0.08569  1.0000 0.1303629955
H   H180      1.0  0.87105  0.59798  0.08569  1.0000 0.1303629955
H   H181      1.0  0.80765  0.02435  0.64648  1.0000 0.1208331575
H   H182      1.0  0.97565  0.78330  0.64648  1.0000 0.1208331575
H   H183      1.0  0.21670  0.19235  0.64648  1.0000 0.1208331575
H   H184      1.0  0.19235  0.97565  0.14648  1.0000 0.1208331575
H   H185      1.0  0.02435  0.21670  0.14648  1.0000 0.1208331575
H   H186      1.0  0.78330  0.80765  0.14648  1.0000 0.1208331575
H   H187      1.0  0.61918  0.74375  0.50686  1.0000 0.1358642685
H   H188      1.0  0.25625  0.87543  0.50686  1.0000 0.1358642685
H   H189      1.0  0.12457  0.38082  0.50686  1.0000 0.1358642685
H   H190      1.0  0.38082  0.25625  0.00686  1.0000 0.1358642685
H   H191      1.0  0.74375  0.12457  0.00686  1.0000 0.1358642685
H   H192      1.0  0.87543  0.61918  0.00686  1.0000 0.1358642685
H   H193      1.0  0.55013  0.91693  0.48482  1.0000 0.1208331575
H   H194      1.0  0.08307  0.63320  0.48482  1.0000 0.1208331575
H   H195      1.0  0.36680  0.44987  0.48482  1.0000 0.1208331575
H   H196      1.0  0.44987  0.08307  0.98482  1.0000 0.1208331575
H   H197      1.0  0.91693  0.36680  0.98482  1.0000 0.1208331575
H   H198      1.0  0.63320  0.55013  0.98482  1.0000 0.1208331575
H   H199      1.0  0.69322  0.88751  0.38116  1.0000 0.1125657698
H   H200      1.0  0.11249  0.80571  0.38116  1.0000 0.1125657698
H   H201      1.0  0.19429  0.30678  0.38116  1.0000 0.1125657698
H   H202      1.0  0.30678  0.11249  0.88116  1.0000 0.1125657698
H   H203      1.0  0.88751  0.19429  0.88116  1.0000 0.1125657698
H   H204      1.0  0.80571  0.69322  0.88116  1.0000 0.1125657698
H   H205      1.0  0.56767  0.97327  0.41625  1.0000 0.1125657698
H   H206      1.0  0.02673  0.59440  0.41625  1.0000 0.1125657698
H   H207      1.0  0.40560  0.43233  0.41625  1.0000 0.1125657698
H   H208      1.0  0.43233  0.02673  0.91625  1.0000 0.1125657698
H   H209      1.0  0.97327  0.40560  0.91625  1.0000 0.1125657698
H   H210      1.0  0.59440  0.56767  0.91625  1.0000 0.1125657698
H   H211      1.0  0.05246  0.21406  0.65181  1.0000 0.1208331575
H   H212      1.0  0.78594  0.83840  0.65181  1.0000 0.1208331575
H   H213      1.0  0.16160  0.94754  0.65181  1.0000 0.1208331575
H   H214      1.0  0.94754  0.78594  0.15181  1.0000 0.1208331575
H   H215      1.0  0.21406  0.16160  0.15181  1.0000 0.1208331575
H   H216      1.0  0.83840  0.05246  0.15181  1.0000 0.1208331575
H   H217      1.0  0.94993  0.10438  0.64412  1.0000 0.1208331575
H   H218      1.0  0.89562  0.84555  0.64412  1.0000 0.1208331575
H   H219      1.0  0.15445  0.05007  0.64412  1.0000 0.1208331575
H   H220      1.0  0.05007  0.89562  0.14412  1.0000 0.1208331575
H   H221      1.0  0.10438  0.15445  0.14412  1.0000 0.1208331575
H   H222      1.0  0.84555  0.94993  0.14412  1.0000 0.1208331575
H   H223      1.0  0.73696  0.00256  0.25797  1.0000 0.1303629955
H   H224      1.0  0.99744  0.73440  0.25797  1.0000 0.1303629955
H   H225      1.0  0.26560  0.26304  0.25797  1.0000 0.1303629955
H   H226      1.0  0.26304  0.99744  0.75797  1.0000 0.1303629955
H   H227      1.0  0.00256  0.26560  0.75797  1.0000 0.1303629955
H   H228      1.0  0.73440  0.73696  0.75797  1.0000 0.1303629955
H   H229      1.0  0.62456  0.10241  0.30037  1.0000 0.148713063
H   H230      1.0  0.89759  0.52215  0.30037  1.0000 0.148713063
H   H231      1.0  0.47785  0.37544  0.30037  1.0000 0.148713063
H   H232      1.0  0.37544  0.89759  0.80037  1.0000 0.148713063
H   H233      1.0  0.10241  0.47785  0.80037  1.0000 0.148713063
H   H234      1.0  0.52215  0.62456  0.80037  1.0000 0.148713063
H   H235      1.0  0.59713  0.03522  0.36486  1.0000 0.1208331575
H   H236      1.0  0.96478  0.56191  0.36486  1.0000 0.1208331575
H   H237      1.0  0.43809  0.40287  0.36486  1.0000 0.1208331575
H   H238      1.0  0.40287  0.96478  0.86486  1.0000 0.1208331575
H   H239      1.0  0.03522  0.43809  0.86486  1.0000 0.1208331575
H   H240      1.0  0.56191  0.59713  0.86486  1.0000 0.1208331575
H   H241      1.0  0.70952  0.93538  0.32246  1.0000 0.1125657698
H   H242      1.0  0.06462  0.77414  0.32246  1.0000 0.1125657698
H   H243      1.0  0.22586  0.29048  0.32246  1.0000 0.1125657698
H   H244      1.0  0.29048  0.06462  0.82246  1.0000 0.1125657698
H   H245      1.0  0.93538  0.22586  0.82246  1.0000 0.1125657698
H   H246      1.0  0.77414  0.70952  0.82246  1.0000 0.1125657698
C   C1        1.0  0.83510  0.50650  0.46900  1.0000 -0.02948155
C   C2        1.0  0.49350  0.32860  0.46900  1.0000 -0.02948155
C   C3        1.0  0.67140  0.16490  0.46900  1.0000 -0.02948155
C   C4        1.0  0.16490  0.49350  0.96900  1.0000 -0.02948155
C   C5        1.0  0.50650  0.67140  0.96900  1.0000 -0.02948155
C   C6        1.0  0.32860  0.83510  0.96900  1.0000 -0.02948155
C   C7        1.0  0.07890  0.52600  0.58620  1.0000 0.5902007925
C   C8        1.0  0.47400  0.55290  0.58620  1.0000 0.5902007925
C   C9        1.0  0.44710  0.92110  0.58620  1.0000 0.5902007925
C   C10       1.0  0.92110  0.47400  0.08620  1.0000 0.5902007925
C   C11       1.0  0.52600  0.44710  0.08620  1.0000 0.5902007925
C   C12       1.0  0.55290  0.07890  0.08620  1.0000 0.5902007925
C   C13       1.0  0.73260  0.12930  0.64950  1.0000 0.2476296482
C   C14       1.0  0.87070  0.60330  0.64950  1.0000 0.2476296482
C   C15       1.0  0.39670  0.26740  0.64950  1.0000 0.2476296482
C   C16       1.0  0.26740  0.87070  0.14950  1.0000 0.2476296482
C   C17       1.0  0.12930  0.39670  0.14950  1.0000 0.2476296482
C   C18       1.0  0.60330  0.73260  0.14950  1.0000 0.2476296482
C   C19       1.0  0.78890  0.47720  0.43320  1.0000 0.2315064676
C   C20       1.0  0.52280  0.31170  0.43320  1.0000 0.2315064676
C   C21       1.0  0.68830  0.21110  0.43320  1.0000 0.2315064676
C   C22       1.0  0.21110  0.52280  0.93320  1.0000 0.2315064676
C   C23       1.0  0.47720  0.68830  0.93320  1.0000 0.2315064676
C   C24       1.0  0.31170  0.78890  0.93320  1.0000 0.2315064676
C   C25       1.0  0.79470  0.19910  0.65490  1.0000 -0.02948155
C   C26       1.0  0.80090  0.59560  0.65490  1.0000 -0.02948155
C   C27       1.0  0.40440  0.20530  0.65490  1.0000 -0.02948155
C   C28       1.0  0.20530  0.80090  0.15490  1.0000 -0.02948155
C   C29       1.0  0.19910  0.40440  0.15490  1.0000 -0.02948155
C   C30       1.0  0.59560  0.79470  0.15490  1.0000 -0.02948155
C   C31       1.0  0.96780  0.51170  0.73470  1.0000 0.5950279939
C   C32       1.0  0.48830  0.45610  0.73470  1.0000 0.5950279939
C   C33       1.0  0.54390  0.03220  0.73470  1.0000 0.5950279939
C   C34       1.0  0.03220  0.48830  0.23470  1.0000 0.5950279939
C   C35       1.0  0.51170  0.54390  0.23470  1.0000 0.5950279939
C   C36       1.0  0.45610  0.96780  0.23470  1.0000 0.5950279939
C   C37       1.0  0.82350  0.32550  0.78210  1.0000 0.060550412
C   C38       1.0  0.67450  0.49800  0.78210  1.0000 0.060550412
C   C39       1.0  0.50200  0.17650  0.78210  1.0000 0.060550412
C   C40       1.0  0.17650  0.67450  0.28210  1.0000 0.060550412
C   C41       1.0  0.32550  0.50200  0.28210  1.0000 0.060550412
C   C42       1.0  0.49800  0.82350  0.28210  1.0000 0.060550412
C   C43       1.0  0.79250  0.28030  0.74370  1.0000 0.050431681
C   C44       1.0  0.71970  0.51220  0.74370  1.0000 0.050431681
C   C45       1.0  0.48780  0.20750  0.74370  1.0000 0.050431681
C   C46       1.0  0.20750  0.71970  0.24370  1.0000 0.050431681
C   C47       1.0  0.28030  0.48780  0.24370  1.0000 0.050431681
C   C48       1.0  0.51220  0.79250  0.24370  1.0000 0.050431681
C   C49       1.0  0.87550  0.58580  0.47510  1.0000 0.043097015
C   C50       1.0  0.41420  0.28970  0.47510  1.0000 0.043097015
C   C51       1.0  0.71030  0.12450  0.47510  1.0000 0.043097015
C   C52       1.0  0.12450  0.41420  0.97510  1.0000 0.043097015
C   C53       1.0  0.58580  0.71030  0.97510  1.0000 0.043097015
C   C54       1.0  0.28970  0.87550  0.97510  1.0000 0.043097015
C   C55       1.0  0.67080  0.98920  0.64270  1.0000 0.617486269
C   C56       1.0  0.01080  0.68160  0.64270  1.0000 0.617486269
C   C57       1.0  0.31840  0.32920  0.64270  1.0000 0.617486269
C   C58       1.0  0.32920  0.01080  0.14270  1.0000 0.617486269
C   C59       1.0  0.98920  0.31840  0.14270  1.0000 0.617486269
C   C60       1.0  0.68160  0.67080  0.14270  1.0000 0.617486269
C   C61       1.0  0.87270  0.38760  0.69870  1.0000 0.2476296482
C   C62       1.0  0.61240  0.48510  0.69870  1.0000 0.2476296482
C   C63       1.0  0.51490  0.12730  0.69870  1.0000 0.2476296482
C   C64       1.0  0.12730  0.61240  0.19870  1.0000 0.2476296482
C   C65       1.0  0.38760  0.51490  0.19870  1.0000 0.2476296482
C   C66       1.0  0.48510  0.87270  0.19870  1.0000 0.2476296482
C   C67       1.0  0.81900  0.31250  0.70150  1.0000 -0.02948155
C   C68       1.0  0.68750  0.50650  0.70150  1.0000 -0.02948155
C   C69       1.0  0.49350  0.18100  0.70150  1.0000 -0.02948155
C   C70       1.0  0.18100  0.68750  0.20150  1.0000 -0.02948155
C   C71       1.0  0.31250  0.49350  0.20150  1.0000 -0.02948155
C   C72       1.0  0.50650  0.81900  0.20150  1.0000 -0.02948155
C   C73       1.0  0.73830  0.49330  0.36000  1.0000 0.606204282
C   C74       1.0  0.50670  0.24500  0.36000  1.0000 0.606204282
C   C75       1.0  0.75500  0.26170  0.36000  1.0000 0.606204282
C   C76       1.0  0.26170  0.50670  0.86000  1.0000 0.606204282
C   C77       1.0  0.49330  0.75500  0.86000  1.0000 0.606204282
C   C78       1.0  0.24500  0.73830  0.86000  1.0000 0.606204282
C   C79       1.0  0.03570  0.50290  0.54540  1.0000 -0.1695000803
C   C80       1.0  0.49710  0.53280  0.54540  1.0000 -0.1695000803
C   C81       1.0  0.46720  0.96430  0.54540  1.0000 -0.1695000803
C   C82       1.0  0.96430  0.49710  0.04540  1.0000 -0.1695000803
C   C83       1.0  0.50290  0.46720  0.04540  1.0000 -0.1695000803
C   C84       1.0  0.53280  0.03570  0.04540  1.0000 -0.1695000803
C   C85       1.0  0.88190  0.40040  0.77710  1.0000 -0.1395878722
C   C86       1.0  0.59960  0.48150  0.77710  1.0000 -0.1395878722
C   C87       1.0  0.51850  0.11810  0.77710  1.0000 -0.1395878722
C   C88       1.0  0.11810  0.59960  0.27710  1.0000 -0.1395878722
C   C89       1.0  0.40040  0.51850  0.27710  1.0000 -0.1395878722
C   C90       1.0  0.48150  0.88190  0.27710  1.0000 -0.1395878722
C   C91       1.0  0.78350  0.52330  0.40030  1.0000 -0.1395878722
C   C92       1.0  0.47670  0.26020  0.40030  1.0000 -0.1395878722
C   C93       1.0  0.73980  0.21650  0.40030  1.0000 -0.1395878722
C   C94       1.0  0.21650  0.47670  0.90030  1.0000 -0.1395878722
C   C95       1.0  0.52330  0.73980  0.90030  1.0000 -0.1395878722
C   C96       1.0  0.26020  0.78350  0.90030  1.0000 -0.1395878722
C   C97       1.0  0.84320  0.45350  0.50050  1.0000 -0.243626189
C   C98       1.0  0.54650  0.38970  0.50050  1.0000 -0.243626189
C   C99       1.0  0.61030  0.15680  0.50050  1.0000 -0.243626189
C   C100      1.0  0.15680  0.54650  0.00050  1.0000 -0.243626189
C   C101      1.0  0.45350  0.61030  0.00050  1.0000 -0.243626189
C   C102      1.0  0.38970  0.84320  0.00050  1.0000 -0.243626189
C   C103      1.0  0.78630  0.26660  0.66020  1.0000 -0.2501964462
C   C104      1.0  0.73340  0.51970  0.66020  1.0000 -0.2501964462
C   C105      1.0  0.48030  0.21370  0.66020  1.0000 -0.2501964462
C   C106      1.0  0.21370  0.73340  0.16020  1.0000 -0.2501964462
C   C107      1.0  0.26660  0.48030  0.16020  1.0000 -0.2501964462
C   C108      1.0  0.51970  0.78630  0.16020  1.0000 -0.2501964462
C   C109      1.0  0.03320  0.47280  0.46820  1.0000 0.050431681
C   C110      1.0  0.52720  0.56040  0.46820  1.0000 0.050431681
C   C111      1.0  0.43960  0.96680  0.46820  1.0000 0.050431681
C   C112      1.0  0.96680  0.52720  0.96820  1.0000 0.050431681
C   C113      1.0  0.47280  0.43960  0.96820  1.0000 0.050431681
C   C114      1.0  0.56040  0.03320  0.96820  1.0000 0.050431681
C   C115      1.0  0.95940  0.48590  0.54220  1.0000 0.2476296482
C   C116      1.0  0.51410  0.47350  0.54220  1.0000 0.2476296482
C   C117      1.0  0.52650  0.04060  0.54220  1.0000 0.2476296482
C   C118      1.0  0.04060  0.51410  0.04220  1.0000 0.2476296482
C   C119      1.0  0.48590  0.52650  0.04220  1.0000 0.2476296482
C   C120      1.0  0.47350  0.95940  0.04220  1.0000 0.2476296482
C   C121      1.0  0.90600  0.43190  0.73700  1.0000 -0.1488400417
C   C122      1.0  0.56810  0.47410  0.73700  1.0000 -0.1488400417
C   C123      1.0  0.52590  0.09400  0.73700  1.0000 -0.1488400417
C   C124      1.0  0.09400  0.56810  0.23700  1.0000 -0.1488400417
C   C125      1.0  0.43190  0.52590  0.23700  1.0000 -0.1488400417
C   C126      1.0  0.47410  0.90600  0.23700  1.0000 -0.1488400417
C   C127      1.0  0.95730  0.45530  0.46570  1.0000 0.050431681
C   C128      1.0  0.54470  0.50200  0.46570  1.0000 0.050431681
C   C129      1.0  0.49800  0.04270  0.46570  1.0000 0.050431681
C   C130      1.0  0.04270  0.54470  0.96570  1.0000 0.050431681
C   C131      1.0  0.45530  0.49800  0.96570  1.0000 0.050431681
C   C132      1.0  0.50200  0.95730  0.96570  1.0000 0.050431681
C   C133      1.0  0.82570  0.60000  0.40520  1.0000 -0.1488400417
C   C134      1.0  0.40000  0.22570  0.40520  1.0000 -0.1488400417
C   C135      1.0  0.77430  0.17430  0.40520  1.0000 -0.1488400417
C   C136      1.0  0.17430  0.40000  0.90520  1.0000 -0.1488400417
C   C137      1.0  0.60000  0.77430  0.90520  1.0000 -0.1488400417
C   C138      1.0  0.22570  0.82570  0.90520  1.0000 -0.1488400417
C   C139      1.0  0.73760  0.06360  0.64730  1.0000 -0.1488400417
C   C140      1.0  0.93640  0.67400  0.64730  1.0000 -0.1488400417
C   C141      1.0  0.32600  0.26240  0.64730  1.0000 -0.1488400417
C   C142      1.0  0.26240  0.93640  0.14730  1.0000 -0.1488400417
C   C143      1.0  0.06360  0.32600  0.14730  1.0000 -0.1488400417
C   C144      1.0  0.67400  0.73760  0.14730  1.0000 -0.1488400417
C   C145      1.0  0.95310  0.69630  0.51780  1.0000 -0.1090273228
C   C146      1.0  0.30370  0.25680  0.51780  1.0000 -0.1090273228
C   C147      1.0  0.74320  0.04690  0.51780  1.0000 -0.1090273228
C   C148      1.0  0.04690  0.30370  0.01780  1.0000 -0.1090273228
C   C149      1.0  0.69630  0.74320  0.01780  1.0000 -0.1090273228
C   C150      1.0  0.25680  0.95310  0.01780  1.0000 -0.1090273228
C   C151      1.0  0.87020  0.63190  0.44260  1.0000 0.060550412
C   C152      1.0  0.36810  0.23830  0.44260  1.0000 0.060550412
C   C153      1.0  0.76170  0.12980  0.44260  1.0000 0.060550412
C   C154      1.0  0.12980  0.36810  0.94260  1.0000 0.060550412
C   C155      1.0  0.63190  0.76170  0.94260  1.0000 0.060550412
C   C156      1.0  0.23830  0.87020  0.94260  1.0000 0.060550412
C   C157      1.0  0.91970  0.42750  0.42560  1.0000 -0.1275895454
C   C158      1.0  0.57250  0.49220  0.42560  1.0000 -0.1275895454
C   C159      1.0  0.50780  0.08030  0.42560  1.0000 -0.1275895454
C   C160      1.0  0.08030  0.57250  0.92560  1.0000 -0.1275895454
C   C161      1.0  0.42750  0.50780  0.92560  1.0000 -0.1275895454
C   C162      1.0  0.49220  0.91970  0.92560  1.0000 -0.1275895454
C   C163      1.0  0.91640  0.62000  0.51350  1.0000 -0.1275895454
C   C164      1.0  0.38000  0.29640  0.51350  1.0000 -0.1275895454
C   C165      1.0  0.70360  0.08360  0.51350  1.0000 -0.1275895454
C   C166      1.0  0.08360  0.38000  0.01350  1.0000 -0.1275895454
C   C167      1.0  0.62000  0.70360  0.01350  1.0000 -0.1275895454
C   C168      1.0  0.29640  0.91640  0.01350  1.0000 -0.1275895454
C   C169      1.0  0.92180  0.46540  0.50300  1.0000 -0.02948155
C   C170      1.0  0.53460  0.45640  0.50300  1.0000 -0.02948155
C   C171      1.0  0.54360  0.07820  0.50300  1.0000 -0.02948155
C   C172      1.0  0.07820  0.53460  0.00300  1.0000 -0.02948155
C   C173      1.0  0.46540  0.54360  0.00300  1.0000 -0.02948155
C   C174      1.0  0.45640  0.92180  0.00300  1.0000 -0.02948155
C   C175      1.0  0.07120  0.49850  0.50880  1.0000 -0.1695000803
C   C176      1.0  0.50150  0.57270  0.50880  1.0000 -0.1695000803
C   C177      1.0  0.42730  0.92880  0.50880  1.0000 -0.1695000803
C   C178      1.0  0.92880  0.50150  0.00880  1.0000 -0.1695000803
C   C179      1.0  0.49850  0.42730  0.00880  1.0000 -0.1695000803
C   C180      1.0  0.57270  0.07120  0.00880  1.0000 -0.1695000803
C   C181      1.0  0.60630  0.86420  0.47190  1.0000 0.1576515692
C   C182      1.0  0.13580  0.74210  0.47190  1.0000 0.1576515692
C   C183      1.0  0.25790  0.39370  0.47190  1.0000 0.1576515692
C   C184      1.0  0.39370  0.13580  0.97190  1.0000 0.1576515692
C   C185      1.0  0.86420  0.25790  0.97190  1.0000 0.1576515692
C   C186      1.0  0.74210  0.60630  0.97190  1.0000 0.1576515692
C   C187      1.0  0.86660  0.20440  0.65310  1.0000 0.050431681
C   C188      1.0  0.79560  0.66220  0.65310  1.0000 0.050431681
C   C189      1.0  0.33780  0.13340  0.65310  1.0000 0.050431681
C   C190      1.0  0.13340  0.79560  0.15310  1.0000 0.050431681
C   C191      1.0  0.20440  0.33780  0.15310  1.0000 0.050431681
C   C192      1.0  0.66220  0.86660  0.15310  1.0000 0.050431681
C   C193      1.0  0.79900  0.29430  0.82320  1.0000 -0.1395878722
C   C194      1.0  0.70570  0.50470  0.82320  1.0000 -0.1395878722
C   C195      1.0  0.49530  0.20100  0.82320  1.0000 -0.1395878722
C   C196      1.0  0.20100  0.70570  0.32320  1.0000 -0.1395878722
C   C197      1.0  0.29430  0.49530  0.32320  1.0000 -0.1395878722
C   C198      1.0  0.50470  0.79900  0.32320  1.0000 -0.1395878722
C   C199      1.0  0.73440  0.20580  0.74920  1.0000 -0.1187719029
C   C200      1.0  0.79420  0.52860  0.74920  1.0000 -0.1187719029
C   C201      1.0  0.47140  0.26560  0.74920  1.0000 -0.1187719029
C   C202      1.0  0.26560  0.79420  0.24920  1.0000 -0.1187719029
C   C203      1.0  0.20580  0.47140  0.24920  1.0000 -0.1187719029
C   C204      1.0  0.52860  0.73440  0.24920  1.0000 -0.1187719029
C   C205      1.0  0.64740  0.09920  0.20520  1.0000 -0.079399575
C   C206      1.0  0.90080  0.54820  0.20520  1.0000 -0.079399575
C   C207      1.0  0.45180  0.35260  0.20520  1.0000 -0.079399575
C   C208      1.0  0.35260  0.90080  0.70520  1.0000 -0.079399575
C   C209      1.0  0.09920  0.45180  0.70520  1.0000 -0.079399575
C   C210      1.0  0.54820  0.64740  0.70520  1.0000 -0.079399575
C   C211      1.0  0.63670  0.93920  0.39210  1.0000 0.060550412
C   C212      1.0  0.06080  0.69750  0.39210  1.0000 0.060550412
C   C213      1.0  0.30250  0.36330  0.39210  1.0000 0.060550412
C   C214      1.0  0.36330  0.06080  0.89210  1.0000 0.060550412
C   C215      1.0  0.93920  0.30250  0.89210  1.0000 0.060550412
C   C216      1.0  0.69750  0.63670  0.89210  1.0000 0.060550412
C   C217      1.0  0.68600  0.14940  0.17310  1.0000 -0.02948155
C   C218      1.0  0.85060  0.53660  0.17310  1.0000 -0.02948155
C   C219      1.0  0.46340  0.31400  0.17310  1.0000 -0.02948155
C   C220      1.0  0.31400  0.85060  0.67310  1.0000 -0.02948155
C   C221      1.0  0.14940  0.46340  0.67310  1.0000 -0.02948155
C   C222      1.0  0.53660  0.68600  0.67310  1.0000 -0.02948155
C   C223      1.0  0.91200  0.71160  0.44790  1.0000 -0.1395878722
C   C224      1.0  0.28840  0.20040  0.44790  1.0000 -0.1395878722
C   C225      1.0  0.79960  0.08800  0.44790  1.0000 -0.1395878722
C   C226      1.0  0.08800  0.28840  0.94790  1.0000 -0.1395878722
C   C227      1.0  0.71160  0.79960  0.94790  1.0000 -0.1395878722
C   C228      1.0  0.20040  0.91200  0.94790  1.0000 -0.1395878722
C   C229      1.0  0.95630  0.42190  0.38940  1.0000 -0.0713219089
C   C230      1.0  0.57810  0.53440  0.38940  1.0000 -0.0713219089
C   C231      1.0  0.46560  0.04370  0.38940  1.0000 -0.0713219089
C   C232      1.0  0.04370  0.57810  0.88940  1.0000 -0.0713219089
C   C233      1.0  0.42190  0.46560  0.88940  1.0000 -0.0713219089
C   C234      1.0  0.53440  0.95630  0.88940  1.0000 -0.0713219089
C   C235      1.0  0.58070  0.85560  0.55030  1.0000 0.1208331575
C   C236      1.0  0.14440  0.72510  0.55030  1.0000 0.1208331575
C   C237      1.0  0.27490  0.41930  0.55030  1.0000 0.1208331575
C   C238      1.0  0.41930  0.14440  0.05030  1.0000 0.1208331575
C   C239      1.0  0.85560  0.27490  0.05030  1.0000 0.1208331575
C   C240      1.0  0.72510  0.58070  0.05030  1.0000 0.1208331575
C   C241      1.0  0.74270  0.22010  0.82790  1.0000 -0.1187719029
C   C242      1.0  0.77990  0.52260  0.82790  1.0000 -0.1187719029
C   C243      1.0  0.47740  0.25730  0.82790  1.0000 -0.1187719029
C   C244      1.0  0.25730  0.77990  0.32790  1.0000 -0.1187719029
C   C245      1.0  0.22010  0.47740  0.32790  1.0000 -0.1187719029
C   C246      1.0  0.52260  0.74270  0.32790  1.0000 -0.1187719029
C   C247      1.0  0.93440  0.27720  0.65130  1.0000 -0.1395878722
C   C248      1.0  0.72280  0.65720  0.65130  1.0000 -0.1395878722
C   C249      1.0  0.34280  0.06560  0.65130  1.0000 -0.1395878722
C   C250      1.0  0.06560  0.72280  0.15130  1.0000 -0.1395878722
C   C251      1.0  0.27720  0.34280  0.15130  1.0000 -0.1395878722
C   C252      1.0  0.65720  0.93440  0.15130  1.0000 -0.1395878722
C   C253      1.0  0.95180  0.74160  0.48520  1.0000 -0.0999405902
C   C254      1.0  0.25840  0.21020  0.48520  1.0000 -0.0999405902
C   C255      1.0  0.78980  0.04820  0.48520  1.0000 -0.0999405902
C   C256      1.0  0.04820  0.25840  0.98520  1.0000 -0.0999405902
C   C257      1.0  0.74160  0.78980  0.98520  1.0000 -0.0999405902
C   C258      1.0  0.21020  0.95180  0.98520  1.0000 -0.0999405902
C   C259      1.0  0.71160  0.17620  0.79110  1.0000 -0.0892684353
C   C260      1.0  0.82380  0.53540  0.79110  1.0000 -0.0892684353
C   C261      1.0  0.46460  0.28840  0.79110  1.0000 -0.0892684353
C   C262      1.0  0.28840  0.82380  0.29110  1.0000 -0.0892684353
C   C263      1.0  0.17620  0.46460  0.29110  1.0000 -0.0892684353
C   C264      1.0  0.53540  0.71160  0.29110  1.0000 -0.0892684353
C   C265      1.0  0.76670  0.15180  0.21830  1.0000 0.1125657698
C   C266      1.0  0.84820  0.61490  0.21830  1.0000 0.1125657698
C   C267      1.0  0.38510  0.23330  0.21830  1.0000 0.1125657698
C   C268      1.0  0.23330  0.84820  0.71830  1.0000 0.1125657698
C   C269      1.0  0.15180  0.38510  0.71830  1.0000 0.1125657698
C   C270      1.0  0.61490  0.76670  0.71830  1.0000 0.1125657698
C   C271      1.0  0.06870  0.46700  0.42990  1.0000 -0.1571468641
C   C272      1.0  0.53300  0.60170  0.42990  1.0000 -0.1571468641
C   C273      1.0  0.39830  0.93130  0.42990  1.0000 -0.1571468641
C   C274      1.0  0.93130  0.53300  0.92990  1.0000 -0.1571468641
C   C275      1.0  0.46700  0.39830  0.92990  1.0000 -0.1571468641
C   C276      1.0  0.60170  0.06870  0.92990  1.0000 -0.1571468641
C   C277      1.0  0.00270  0.27930  0.64950  1.0000 -0.0999405902
C   C278      1.0  0.72070  0.72340  0.64950  1.0000 -0.0999405902
C   C279      1.0  0.27660  0.99730  0.64950  1.0000 -0.0999405902
C   C280      1.0  0.99730  0.72070  0.14950  1.0000 -0.0999405902
C   C281      1.0  0.27930  0.27660  0.14950  1.0000 -0.0999405902
C   C282      1.0  0.72340  0.00270  0.14950  1.0000 -0.0999405902
C   C283      1.0  0.03190  0.44160  0.39200  1.0000 -0.0892684353
C   C284      1.0  0.55840  0.59030  0.39200  1.0000 -0.0892684353
C   C285      1.0  0.40970  0.96810  0.39200  1.0000 -0.0892684353
C   C286      1.0  0.96810  0.55840  0.89200  1.0000 -0.0892684353
C   C287      1.0  0.44160  0.40970  0.89200  1.0000 -0.0892684353
C   C288      1.0  0.59030  0.03190  0.89200  1.0000 -0.0892684353
C   C289      1.0  0.65340  0.85690  0.44160  1.0000 -0.181006704
C   C290      1.0  0.14310  0.79650  0.44160  1.0000 -0.181006704
C   C291      1.0  0.20350  0.34660  0.44160  1.0000 -0.181006704
C   C292      1.0  0.34660  0.14310  0.94160  1.0000 -0.181006704
C   C293      1.0  0.85690  0.20350  0.94160  1.0000 -0.181006704
C   C294      1.0  0.79650  0.65340  0.94160  1.0000 -0.181006704
C   C295      1.0  0.59430  0.76240  0.56880  1.0000 -0.0131011061
C   C296      1.0  0.23760  0.83190  0.56880  1.0000 -0.0131011061
C   C297      1.0  0.16810  0.40570  0.56880  1.0000 -0.0131011061
C   C298      1.0  0.40570  0.23760  0.06880  1.0000 -0.0131011061
C   C299      1.0  0.76240  0.16810  0.06880  1.0000 -0.0131011061
C   C300      1.0  0.83190  0.59430  0.06880  1.0000 -0.0131011061
C   C301      1.0  0.80500  0.06790  0.64780  1.0000 -0.1488400417
C   C302      1.0  0.93210  0.73710  0.64780  1.0000 -0.1488400417
C   C303      1.0  0.26290  0.19500  0.64780  1.0000 -0.1488400417
C   C304      1.0  0.19500  0.93210  0.14780  1.0000 -0.1488400417
C   C305      1.0  0.06790  0.26290  0.14780  1.0000 -0.1488400417
C   C306      1.0  0.73710  0.80500  0.14780  1.0000 -0.1488400417
C   C307      1.0  0.87190  0.13830  0.65030  1.0000 0.060550412
C   C308      1.0  0.86170  0.73360  0.65030  1.0000 0.060550412
C   C309      1.0  0.26640  0.12810  0.65030  1.0000 0.060550412
C   C310      1.0  0.12810  0.86170  0.15030  1.0000 0.060550412
C   C311      1.0  0.13830  0.26640  0.15030  1.0000 0.060550412
C   C312      1.0  0.73360  0.87190  0.15030  1.0000 0.060550412
C   C313      1.0  0.60650  0.77120  0.52550  1.0000 -0.1187719029
C   C314      1.0  0.22880  0.83530  0.52550  1.0000 -0.1187719029
C   C315      1.0  0.16470  0.39350  0.52550  1.0000 -0.1187719029
C   C316      1.0  0.39350  0.22880  0.02550  1.0000 -0.1187719029
C   C317      1.0  0.77120  0.16470  0.02550  1.0000 -0.1187719029
C   C318      1.0  0.83530  0.60650  0.02550  1.0000 -0.1187719029
C   C319      1.0  0.57790  0.90940  0.46360  1.0000 -0.1571468641
C   C320      1.0  0.09060  0.66850  0.46360  1.0000 -0.1571468641
C   C321      1.0  0.33150  0.42210  0.46360  1.0000 -0.1571468641
C   C322      1.0  0.42210  0.09060  0.96360  1.0000 -0.1571468641
C   C323      1.0  0.90940  0.33150  0.96360  1.0000 -0.1571468641
C   C324      1.0  0.66850  0.57790  0.96360  1.0000 -0.1571468641
C   C325      1.0  0.66460  0.89410  0.40210  1.0000 -0.1275895454
C   C326      1.0  0.10590  0.77050  0.40210  1.0000 -0.1275895454
C   C327      1.0  0.22950  0.33540  0.40210  1.0000 -0.1275895454
C   C328      1.0  0.33540  0.10590  0.90210  1.0000 -0.1275895454
C   C329      1.0  0.89410  0.22950  0.90210  1.0000 -0.1275895454
C   C330      1.0  0.77050  0.66460  0.90210  1.0000 -0.1275895454
C   C331      1.0  0.59050  0.94540  0.42270  1.0000 -0.1090273228
C   C332      1.0  0.05460  0.64510  0.42270  1.0000 -0.1090273228
C   C333      1.0  0.35490  0.40950  0.42270  1.0000 -0.1090273228
C   C334      1.0  0.40950  0.05460  0.92270  1.0000 -0.1090273228
C   C335      1.0  0.94540  0.35490  0.92270  1.0000 -0.1090273228
C   C336      1.0  0.64510  0.59050  0.92270  1.0000 -0.1090273228
C   C337      1.0  0.00630  0.21150  0.64990  1.0000 -0.0999405902
C   C338      1.0  0.78850  0.79480  0.64990  1.0000 -0.0999405902
C   C339      1.0  0.20520  0.99370  0.64990  1.0000 -0.0999405902
C   C340      1.0  0.99370  0.78850  0.14990  1.0000 -0.0999405902
C   C341      1.0  0.21150  0.20520  0.14990  1.0000 -0.0999405902
C   C342      1.0  0.79480  0.00630  0.14990  1.0000 -0.0999405902
C   C343      1.0  0.94570  0.14680  0.64760  1.0000 -0.1275895454
C   C344      1.0  0.85320  0.79890  0.64760  1.0000 -0.1275895454
C   C345      1.0  0.20110  0.05430  0.64760  1.0000 -0.1275895454
C   C346      1.0  0.05430  0.85320  0.14760  1.0000 -0.1275895454
C   C347      1.0  0.14680  0.20110  0.14760  1.0000 -0.1275895454
C   C348      1.0  0.79890  0.94570  0.14760  1.0000 -0.1275895454
C   C349      1.0  0.70890  0.00910  0.27940  1.0000 -0.1695000803
C   C350      1.0  0.99090  0.69980  0.27940  1.0000 -0.1695000803
C   C351      1.0  0.30020  0.29110  0.27940  1.0000 -0.1695000803
C   C352      1.0  0.29110  0.99090  0.77940  1.0000 -0.1695000803
C   C353      1.0  0.00910  0.30020  0.77940  1.0000 -0.1695000803
C   C354      1.0  0.69980  0.70890  0.77940  1.0000 -0.1695000803
C   C355      1.0  0.68350  0.05910  0.27278  1.0000 0.1576515692
C   C356      1.0  0.94090  0.62440  0.27278  1.0000 0.1576515692
C   C357      1.0  0.37560  0.31650  0.27278  1.0000 0.1576515692
C   C358      1.0  0.31650  0.94090  0.77278  1.0000 0.1576515692
C   C359      1.0  0.05910  0.37560  0.77278  1.0000 0.1576515692
C   C360      1.0  0.62440  0.68350  0.77278  1.0000 0.1576515692
C   C361      1.0  0.64160  0.06890  0.30480  1.0000 -0.1395878722
C   C362      1.0  0.93110  0.57270  0.30480  1.0000 -0.1395878722
C   C363      1.0  0.42730  0.35840  0.30480  1.0000 -0.1395878722
C   C364      1.0  0.35840  0.93110  0.80480  1.0000 -0.1395878722
C   C365      1.0  0.06890  0.42730  0.80480  1.0000 -0.1395878722
C   C366      1.0  0.57270  0.64160  0.80480  1.0000 -0.1395878722
C   C367      1.0  0.62520  0.02870  0.34344  1.0000 -0.1187719029
C   C368      1.0  0.97130  0.59650  0.34344  1.0000 -0.1187719029
C   C369      1.0  0.40350  0.37480  0.34344  1.0000 -0.1187719029
C   C370      1.0  0.37480  0.97130  0.84344  1.0000 -0.1187719029
C   C371      1.0  0.02870  0.40350  0.84344  1.0000 -0.1187719029
C   C372      1.0  0.59650  0.62520  0.84344  1.0000 -0.1187719029
C   C373      1.0  0.65060  0.97860  0.35010  1.0000 0.0663572359
C   C374      1.0  0.02140  0.67200  0.35010  1.0000 0.0663572359
C   C375      1.0  0.32800  0.34940  0.35010  1.0000 0.0663572359
C   C376      1.0  0.34940  0.02140  0.85010  1.0000 0.0663572359
C   C377      1.0  0.97860  0.32800  0.85010  1.0000 0.0663572359
C   C378      1.0  0.67200  0.65060  0.85010  1.0000 0.0663572359
C   C379      1.0  0.69250  0.96890  0.31800  1.0000 -0.1187719029
C   C380      1.0  0.03110  0.72360  0.31800  1.0000 -0.1187719029
C   C381      1.0  0.27640  0.30750  0.31800  1.0000 -0.1187719029
C   C382      1.0  0.30750  0.03110  0.81800  1.0000 -0.1187719029
C   C383      1.0  0.96890  0.27640  0.81800  1.0000 -0.1187719029
C   C384      1.0  0.72360  0.69250  0.81800  1.0000 -0.1187719029
N   N1        1.0  0.57600  0.81270  0.58430  1.0000 -0.276095022
N   N2        1.0  0.18730  0.76330  0.58430  1.0000 -0.276095022
N   N3        1.0  0.23670  0.42400  0.58430  1.0000 -0.276095022
N   N4        1.0  0.42400  0.18730  0.08430  1.0000 -0.276095022
N   N5        1.0  0.81270  0.23670  0.08430  1.0000 -0.276095022
N   N6        1.0  0.76330  0.57600  0.08430  1.0000 -0.276095022
N   N7        1.0  0.76010  0.18100  0.18140  1.0000 -0.2921021474
N   N8        1.0  0.81900  0.57910  0.18140  1.0000 -0.2921021474
N   N9        1.0  0.42090  0.23990  0.18140  1.0000 -0.2921021474
N   N10       1.0  0.23990  0.81900  0.68140  1.0000 -0.2921021474
N   N11       1.0  0.18100  0.42090  0.68140  1.0000 -0.2921021474
N   N12       1.0  0.57910  0.76010  0.68140  1.0000 -0.2921021474
N   N13       1.0  0.48590  0.84060  0.67080  1.0000 -0.7693851483
N   N14       1.0  0.15940  0.64530  0.67080  1.0000 -0.7693851483
N   N15       1.0  0.35470  0.51410  0.67080  1.0000 -0.7693851483
N   N16       1.0  0.51410  0.15940  0.17080  1.0000 -0.7693851483
N   N17       1.0  0.84060  0.35470  0.17080  1.0000 -0.7693851483
N   N18       1.0  0.64530  0.48590  0.17080  1.0000 -0.7693851483
N   N19       1.0  0.69920  0.10170  0.23390  1.0000 0.0165339983
N   N20       1.0  0.89830  0.59750  0.23390  1.0000 0.0165339983
N   N21       1.0  0.40250  0.30080  0.23390  1.0000 0.0165339983
N   N22       1.0  0.30080  0.89830  0.73390  1.0000 0.0165339983
N   N23       1.0  0.10170  0.40250  0.73390  1.0000 0.0165339983
N   N24       1.0  0.59750  0.69920  0.73390  1.0000 0.0165339983
N   N25       1.0  0.59580  0.83050  0.51490  1.0000 0.0139333946
N   N26       1.0  0.16950  0.76530  0.51490  1.0000 0.0139333946
N   N27       1.0  0.23470  0.40420  0.51490  1.0000 0.0139333946
N   N28       1.0  0.40420  0.16950  0.01490  1.0000 0.0139333946
N   N29       1.0  0.83050  0.23470  0.01490  1.0000 0.0139333946
N   N30       1.0  0.76530  0.59580  0.01490  1.0000 0.0139333946
O   O1        1.0  0.04270  0.51380  0.62326  1.0000 -0.6490093959
O   O2        1.0  0.48620  0.52890  0.62326  1.0000 -0.6490093959
O   O3        1.0  0.47110  0.95730  0.62326  1.0000 -0.6490093959
O   O4        1.0  0.95730  0.48620  0.12326  1.0000 -0.6490093959
O   O5        1.0  0.51380  0.47110  0.12326  1.0000 -0.6490093959
O   O6        1.0  0.52890  0.04270  0.12326  1.0000 -0.6490093959
O   O7        1.0  0.66480  0.12370  0.64909  1.0000 -0.6211662782
O   O8        1.0  0.87630  0.54110  0.64909  1.0000 -0.6211662782
O   O9        1.0  0.45890  0.33520  0.64909  1.0000 -0.6211662782
O   O10       1.0  0.33520  0.87630  0.14909  1.0000 -0.6211662782
O   O11       1.0  0.12370  0.45890  0.14909  1.0000 -0.6211662782
O   O12       1.0  0.54110  0.66480  0.14909  1.0000 -0.6211662782
O   O13       1.0  0.74900  0.40190  0.42878  1.0000 -0.6127418768
O   O14       1.0  0.59810  0.34710  0.42878  1.0000 -0.6127418768
O   O15       1.0  0.65290  0.25100  0.42878  1.0000 -0.6127418768
O   O16       1.0  0.25100  0.59810  0.92878  1.0000 -0.6127418768
O   O17       1.0  0.40190  0.65290  0.92878  1.0000 -0.6127418768
O   O18       1.0  0.34710  0.74900  0.92878  1.0000 -0.6127418768
O   O19       1.0  0.92570  0.49240  0.57812  1.0000 -0.6269690088
O   O20       1.0  0.50760  0.43330  0.57812  1.0000 -0.6269690088
O   O21       1.0  0.56670  0.07430  0.57812  1.0000 -0.6269690088
O   O22       1.0  0.07430  0.50760  0.07812  1.0000 -0.6269690088
O   O23       1.0  0.49240  0.56670  0.07812  1.0000 -0.6269690088
O   O24       1.0  0.43330  0.92570  0.07812  1.0000 -0.6269690088
O   O25       1.0  0.89380  0.41770  0.65905  1.0000 -0.6127418768
O   O26       1.0  0.58230  0.47610  0.65905  1.0000 -0.6127418768
O   O27       1.0  0.52390  0.10620  0.65905  1.0000 -0.6127418768
O   O28       1.0  0.10620  0.58230  0.15905  1.0000 -0.6127418768
O   O29       1.0  0.41770  0.52390  0.15905  1.0000 -0.6127418768
O   O30       1.0  0.47610  0.89380  0.15905  1.0000 -0.6127418768
O   O31       1.0  0.99250  0.54240  0.69778  1.0000 -0.6211662782
O   O32       1.0  0.45760  0.45010  0.69778  1.0000 -0.6211662782
O   O33       1.0  0.54990  0.00750  0.69778  1.0000 -0.6211662782
O   O34       1.0  0.00750  0.45760  0.19778  1.0000 -0.6211662782
O   O35       1.0  0.54240  0.54990  0.19778  1.0000 -0.6211662782
O   O36       1.0  0.45010  0.99250  0.19778  1.0000 -0.6211662782
O   O37       1.0  0.69500  0.42050  0.35586  1.0000 -0.6269690088
O   O38       1.0  0.57950  0.27450  0.35586  1.0000 -0.6269690088
O   O39       1.0  0.72550  0.30500  0.35586  1.0000 -0.6269690088
O   O40       1.0  0.30500  0.57950  0.85586  1.0000 -0.6269690088
O   O41       1.0  0.42050  0.72550  0.85586  1.0000 -0.6269690088
O   O42       1.0  0.27450  0.69500  0.85586  1.0000 -0.6269690088
O   O43       1.0  0.61110  0.98270  0.62656  1.0000 -0.6127418768
O   O44       1.0  0.01730  0.62840  0.62656  1.0000 -0.6127418768
O   O45       1.0  0.37160  0.38890  0.62656  1.0000 -0.6127418768
O   O46       1.0  0.38890  0.01730  0.12656  1.0000 -0.6127418768
O   O47       1.0  0.98270  0.37160  0.12656  1.0000 -0.6127418768
O   O48       1.0  0.62840  0.61110  0.12656  1.0000 -0.6127418768
O   O49       1.0  0.99500  0.54500  0.76954  1.0000 -0.5193630383
O   O50       1.0  0.45500  0.45000  0.76954  1.0000 -0.5193630383
O   O51       1.0  0.55000  0.00500  0.76954  1.0000 -0.5193630383
O   O52       1.0  0.00500  0.45500  0.26954  1.0000 -0.5193630383
O   O53       1.0  0.54500  0.55000  0.26954  1.0000 -0.5193630383
O   O54       1.0  0.45000  0.99500  0.26954  1.0000 -0.5193630383
O   O55       1.0  0.14810  0.55500  0.58635  1.0000 -0.5193630383
O   O56       1.0  0.44500  0.59310  0.58635  1.0000 -0.5193630383
O   O57       1.0  0.40690  0.85190  0.58635  1.0000 -0.5193630383
O   O58       1.0  0.85190  0.44500  0.08635  1.0000 -0.5193630383
O   O59       1.0  0.55500  0.40690  0.08635  1.0000 -0.5193630383
O   O60       1.0  0.59310  0.14810  0.08635  1.0000 -0.5193630383
O   O61       1.0  0.67390  0.93170  0.65430  1.0000 -0.5193630383
O   O62       1.0  0.06830  0.74220  0.65430  1.0000 -0.5193630383
O   O63       1.0  0.25780  0.32610  0.65430  1.0000 -0.5193630383
O   O64       1.0  0.32610  0.06830  0.15430  1.0000 -0.5193630383
O   O65       1.0  0.93170  0.25780  0.15430  1.0000 -0.5193630383
O   O66       1.0  0.74220  0.67390  0.15430  1.0000 -0.5193630383
O   O67       1.0  0.74270  0.53520  0.33058  1.0000 -0.5084584844
O   O68       1.0  0.46480  0.20750  0.33058  1.0000 -0.5084584844
O   O69       1.0  0.79250  0.25730  0.33058  1.0000 -0.5084584844
O   O70       1.0  0.25730  0.46480  0.83058  1.0000 -0.5084584844
O   O71       1.0  0.53520  0.79250  0.83058  1.0000 -0.5084584844
O   O72       1.0  0.20750  0.74270  0.83058  1.0000 -0.5084584844
