# DDEC6 charges by PACMAN v1.1 (https://github.com/mtap-research/PACMAN-charge/)
data_2023[Fe][nan]3[ASR]4
_chemical_formula_sum              "Fe12 H132 C220 O52"
_cell_length_a       16.1115
_cell_length_b       29.9036
_cell_length_c       16.3061
_cell_angle_alpha    90
_cell_angle_beta     102.173
_cell_angle_gamma    90

_symmetry_space_group_name_H-M    "P 1"
_symmetry_Int_Tables_number       1

loop_
  _symmetry_equiv_pos_as_xyz
  'x, y, z'

loop_
  _atom_site_type_symbol
  _atom_site_label
  _atom_site_symmetry_multiplicity
  _atom_site_fract_x
  _atom_site_fract_y
  _atom_site_fract_z
  _atom_site_occupancy
  _atom_site_charge
Fe  Fe1       1.0  0.45786  0.29215  0.28507  1.0000 0.9743020964
Fe  Fe2       1.0  0.04214  0.79215  0.71493  1.0000 0.9743020964
Fe  Fe3       1.0  0.54214  0.70785  0.71493  1.0000 0.9755028916
Fe  Fe4       1.0  0.95786  0.20785  0.28507  1.0000 0.9755028916
Fe  Fe5       1.0  0.90719  0.71942  0.73061  1.0000 1.1978067589
Fe  Fe6       1.0  0.59281  0.21942  0.26939  1.0000 1.2065082821
Fe  Fe7       1.0  0.09281  0.28058  0.26939  1.0000 1.2065082821
Fe  Fe8       1.0  0.40719  0.78058  0.73061  1.0000 1.2065082821
Fe  Fe9       1.0  0.21555  0.81890  0.85680  1.0000 1.0833665264
Fe  Fe10      1.0  0.28445  0.31890  0.14320  1.0000 1.0833665264
Fe  Fe11      1.0  0.78445  0.18110  0.14320  1.0000 1.0833665264
Fe  Fe12      1.0  0.71555  0.68110  0.85680  1.0000 1.0833665264
H   H1        1.0  0.54120  0.64535  0.02652  1.0000 0.1190617889
H   H2        1.0  0.95880  0.14535  0.97348  1.0000 0.1190617889
H   H3        1.0  0.45880  0.35465  0.97348  1.0000 0.1190617889
H   H4        1.0  0.04120  0.85465  0.02652  1.0000 0.1190617889
H   H5        1.0  0.70834  0.68942  0.38602  1.0000 0.1190617889
H   H6        1.0  0.79166  0.18942  0.61398  1.0000 0.1190617889
H   H7        1.0  0.29166  0.31058  0.61398  1.0000 0.1190617889
H   H8        1.0  0.20834  0.81058  0.38602  1.0000 0.1190617889
H   H9        1.0  0.13875  0.75810  0.00767  1.0000 0.1190617889
H   H10       1.0  0.36125  0.25810  0.99233  1.0000 0.1190617889
H   H11       1.0  0.86125  0.24190  0.99233  1.0000 0.1190617889
H   H12       1.0  0.63875  0.74190  0.00767  1.0000 0.1190617889
H   H13       1.0  0.47636  0.68925  0.91212  1.0000 0.1303922144
H   H14       1.0  0.02364  0.18925  0.08788  1.0000 0.1303922144
H   H15       1.0  0.52364  0.31075  0.08788  1.0000 0.1303922144
H   H16       1.0  0.97636  0.81075  0.91212  1.0000 0.1303922144
H   H17       1.0  0.56684  0.69257  0.27076  1.0000 0.1190617889
H   H18       1.0  0.93316  0.19257  0.72924  1.0000 0.1190617889
H   H19       1.0  0.43316  0.30743  0.72924  1.0000 0.1190617889
H   H20       1.0  0.06684  0.80743  0.27076  1.0000 0.1190617889
H   H21       1.0  0.48012  0.58849  0.11937  1.0000 0.1190617889
H   H22       1.0  0.01988  0.08849  0.88063  1.0000 0.1190617889
H   H23       1.0  0.51988  0.41151  0.88063  1.0000 0.1190617889
H   H24       1.0  0.98012  0.91151  0.11937  1.0000 0.1190617889
H   H25       1.0  0.76651  0.71341  0.52227  1.0000 0.1303922144
H   H26       1.0  0.73349  0.21341  0.47773  1.0000 0.1303922144
H   H27       1.0  0.23349  0.28659  0.47773  1.0000 0.1303922144
H   H28       1.0  0.26651  0.78659  0.52227  1.0000 0.1303922144
H   H29       1.0  0.03695  0.65308  0.86519  1.0000 0.1190617889
H   H30       1.0  0.46305  0.15308  0.13481  1.0000 0.1190617889
H   H31       1.0  0.96305  0.34692  0.13481  1.0000 0.1190617889
H   H32       1.0  0.53695  0.84692  0.86519  1.0000 0.1190617889
H   H33       1.0  0.57808  0.56717  0.36569  1.0000 0.1190617889
H   H34       1.0  0.92192  0.06717  0.63431  1.0000 0.1190617889
H   H35       1.0  0.42192  0.43283  0.63431  1.0000 0.1190617889
H   H36       1.0  0.07808  0.93283  0.36569  1.0000 0.1190617889
H   H37       1.0  0.59278  0.64100  0.61039  1.0000 0.1190617889
H   H38       1.0  0.90722  0.14100  0.38961  1.0000 0.1190617889
H   H39       1.0  0.40722  0.35900  0.38961  1.0000 0.1190617889
H   H40       1.0  0.09278  0.85900  0.61039  1.0000 0.1190617889
H   H41       1.0  0.21414  0.43778  0.14993  1.0000 0.1190617889
H   H42       1.0  0.28586  0.93778  0.85007  1.0000 0.1190617889
H   H43       1.0  0.78586  0.56222  0.85007  1.0000 0.1190617889
H   H44       1.0  0.71414  0.06222  0.14993  1.0000 0.1190617889
H   H45       1.0  0.34576  0.75524  0.05943  1.0000 0.1190617889
H   H46       1.0  0.15424  0.25524  0.94057  1.0000 0.1190617889
H   H47       1.0  0.65424  0.24476  0.94057  1.0000 0.1190617889
H   H48       1.0  0.84576  0.74476  0.05943  1.0000 0.1190617889
H   H49       1.0  0.13663  0.71792  0.12737  1.0000 0.1120492624
H   H50       1.0  0.36337  0.21792  0.87263  1.0000 0.1120492624
H   H51       1.0  0.86337  0.28208  0.87263  1.0000 0.1120492624
H   H52       1.0  0.63663  0.78208  0.12737  1.0000 0.1120492624
H   H53       1.0  0.03287  0.61253  0.98541  1.0000 0.1190617889
H   H54       1.0  0.46713  0.11253  0.01459  1.0000 0.1190617889
H   H55       1.0  0.96713  0.38747  0.01459  1.0000 0.1190617889
H   H56       1.0  0.53287  0.88747  0.98541  1.0000 0.1190617889
H   H57       1.0  0.19772  0.51477  0.15709  1.0000 0.1190617889
H   H58       1.0  0.30228  0.01477  0.84291  1.0000 0.1190617889
H   H59       1.0  0.80228  0.48523  0.84291  1.0000 0.1190617889
H   H60       1.0  0.69772  0.98523  0.15709  1.0000 0.1190617889
H   H61       1.0  0.02871  0.41943  0.27870  1.0000 0.1303922144
H   H62       1.0  0.47129  0.91943  0.72130  1.0000 0.1303922144
H   H63       1.0  0.97129  0.58057  0.72130  1.0000 0.1303922144
H   H64       1.0  0.52871  0.08057  0.27870  1.0000 0.1303922144
H   H65       1.0  0.35702  0.45499  0.12911  1.0000 0.1190617889
H   H66       1.0  0.14298  0.95499  0.87089  1.0000 0.1190617889
H   H67       1.0  0.64298  0.54501  0.87089  1.0000 0.1190617889
H   H68       1.0  0.85702  0.04501  0.12911  1.0000 0.1190617889
H   H69       1.0  0.06266  0.56763  0.33720  1.0000 0.1120492624
H   H70       1.0  0.43734  0.06763  0.66280  1.0000 0.1120492624
H   H71       1.0  0.93734  0.43237  0.66280  1.0000 0.1120492624
H   H72       1.0  0.56266  0.93237  0.33720  1.0000 0.1120492624
H   H73       1.0  0.41816  0.71555  0.17524  1.0000 0.1190617889
H   H74       1.0  0.08184  0.21555  0.82476  1.0000 0.1190617889
H   H75       1.0  0.58184  0.28445  0.82476  1.0000 0.1190617889
H   H76       1.0  0.91816  0.78445  0.17524  1.0000 0.1190617889
H   H77       1.0  0.11107  0.70929  0.35686  1.0000 0.1120492624
H   H78       1.0  0.38893  0.20929  0.64314  1.0000 0.1120492624
H   H79       1.0  0.88893  0.29071  0.64314  1.0000 0.1120492624
H   H80       1.0  0.61107  0.79071  0.35686  1.0000 0.1120492624
H   H81       1.0  0.39736  0.53033  0.14084  1.0000 0.1190617889
H   H82       1.0  0.10264  0.03033  0.85916  1.0000 0.1190617889
H   H83       1.0  0.60264  0.46967  0.85916  1.0000 0.1190617889
H   H84       1.0  0.89736  0.96967  0.14084  1.0000 0.1190617889
H   H85       1.0  0.00697  0.49608  0.28054  1.0000 0.1190617889
H   H86       1.0  0.49303  0.99608  0.71946  1.0000 0.1190617889
H   H87       1.0  0.99303  0.50392  0.71946  1.0000 0.1190617889
H   H88       1.0  0.50697  0.00392  0.28054  1.0000 0.1120492624
H   H89       1.0  0.56417  0.42291  0.30350  1.0000 0.1303922144
H   H90       1.0  0.93583  0.92291  0.69650  1.0000 0.1303922144
H   H91       1.0  0.43583  0.57709  0.69650  1.0000 0.1303922144
H   H92       1.0  0.06417  0.07709  0.30350  1.0000 0.1303922144
H   H93       1.0  0.08915  0.74402  0.47764  1.0000 0.1120492624
H   H94       1.0  0.41085  0.24402  0.52236  1.0000 0.1120492624
H   H95       1.0  0.91085  0.25598  0.52236  1.0000 0.1120492624
H   H96       1.0  0.58915  0.75598  0.47764  1.0000 0.1120492624
H   H97       1.0  0.05094  0.68644  0.21636  1.0000 0.1120492624
H   H98       1.0  0.44906  0.18644  0.78364  1.0000 0.1120492624
H   H99       1.0  0.94906  0.31356  0.78364  1.0000 0.1120492624
H   H100      1.0  0.55094  0.81356  0.21636  1.0000 0.1120492624
H   H101      1.0  0.54213  0.61293  0.47732  1.0000 0.1190617889
H   H102      1.0  0.95787  0.11293  0.52268  1.0000 0.1190617889
H   H103      1.0  0.45787  0.38707  0.52268  1.0000 0.1190617889
H   H104      1.0  0.04213  0.88707  0.47732  1.0000 0.1190617889
H   H105      1.0  0.10544  0.57347  0.10123  1.0000 0.1120492624
H   H106      1.0  0.39456  0.07347  0.89877  1.0000 0.1120492624
H   H107      1.0  0.89456  0.42653  0.89877  1.0000 0.1120492624
H   H108      1.0  0.60544  0.92653  0.10123  1.0000 0.1120492624
H   H109      1.0  0.96071  0.60712  0.39621  1.0000 0.1190617889
H   H110      1.0  0.53929  0.10712  0.60379  1.0000 0.1190617889
H   H111      1.0  0.03929  0.39288  0.60379  1.0000 0.1190617889
H   H112      1.0  0.46071  0.89288  0.39621  1.0000 0.1190617889
H   H113      1.0  0.93458  0.64261  0.51364  1.0000 0.1303922144
H   H114      1.0  0.56542  0.14261  0.48636  1.0000 0.1303922144
H   H115      1.0  0.06542  0.35739  0.48636  1.0000 0.1303922144
H   H116      1.0  0.43458  0.85739  0.51364  1.0000 0.1303922144
H   H117      1.0  0.60695  0.49741  0.31321  1.0000 0.1190617889
H   H118      1.0  0.89305  0.99741  0.68679  1.0000 0.1190617889
H   H119      1.0  0.39305  0.50259  0.68679  1.0000 0.1190617889
H   H120      1.0  0.10695  0.00259  0.31321  1.0000 0.1190617889
H   H121      1.0  0.87227  0.83664  0.63748  1.0000 0.1190617889
H   H122      1.0  0.62773  0.33664  0.36252  1.0000 0.1190617889
H   H123      1.0  0.12773  0.16336  0.36252  1.0000 0.1190617889
H   H124      1.0  0.37227  0.66336  0.63748  1.0000 0.1190617889
H   H125      1.0  0.80220  0.79828  0.63300  1.0000 0.1303922144
H   H126      1.0  0.69780  0.29828  0.36700  1.0000 0.1303922144
H   H127      1.0  0.19780  0.20172  0.36700  1.0000 0.1303922144
H   H128      1.0  0.30220  0.70172  0.63300  1.0000 0.1303922144
H   H129      1.0  0.87537  0.79324  0.58078  1.0000 0.1120492624
H   H130      1.0  0.62463  0.29324  0.41922  1.0000 0.1120492624
H   H131      1.0  0.12463  0.20676  0.41922  1.0000 0.1120492624
H   H132      1.0  0.37537  0.70676  0.58078  1.0000 0.1120492624
C   C1        1.0  0.71790  0.69893  0.66540  1.0000 0.6087694448
C   C2        1.0  0.78210  0.19893  0.33460  1.0000 0.6087694448
C   C3        1.0  0.28210  0.30107  0.33460  1.0000 0.6087694448
C   C4        1.0  0.21790  0.80107  0.66540  1.0000 0.6087694448
C   C5        1.0  0.36000  0.75279  0.89960  1.0000 0.5986426008
C   C6        1.0  0.14000  0.25279  0.10040  1.0000 0.5986426008
C   C7        1.0  0.64000  0.24721  0.10040  1.0000 0.5986426008
C   C8        1.0  0.86000  0.74721  0.89960  1.0000 0.5986426008
C   C9        1.0  0.08650  0.71007  0.92560  1.0000 -0.0239420812
C   C10       1.0  0.41350  0.21007  0.07440  1.0000 -0.0239420812
C   C11       1.0  0.91350  0.28993  0.07440  1.0000 -0.0239420812
C   C12       1.0  0.58650  0.78993  0.92560  1.0000 -0.0239420812
C   C13       1.0  0.68360  0.68097  0.57910  1.0000 -0.0320125584
C   C14       1.0  0.81640  0.18097  0.42090  1.0000 -0.0320125584
C   C15       1.0  0.31640  0.31903  0.42090  1.0000 -0.0320125584
C   C16       1.0  0.18360  0.81903  0.57910  1.0000 -0.0320125584
C   C17       1.0  0.40310  0.72585  0.97380  1.0000 -0.0320125584
C   C18       1.0  0.09690  0.22585  0.02620  1.0000 -0.0320125584
C   C19       1.0  0.59690  0.27415  0.02620  1.0000 -0.0320125584
C   C20       1.0  0.90310  0.77415  0.97380  1.0000 -0.0320125584
C   C21       1.0  0.42790  0.38386  0.21160  1.0000 0.5986426008
C   C22       1.0  0.07210  0.88386  0.78840  1.0000 0.5986426008
C   C23       1.0  0.57210  0.61614  0.78840  1.0000 0.5986426008
C   C24       1.0  0.92790  0.11614  0.21160  1.0000 0.5986426008
C   C25       1.0  0.51900  0.64513  0.18540  1.0000 0.0852541161
C   C26       1.0  0.98100  0.14513  0.81460  1.0000 0.0852541161
C   C27       1.0  0.48100  0.35487  0.81460  1.0000 0.0852541161
C   C28       1.0  0.01900  0.85487  0.18540  1.0000 0.0852541161
C   C29       1.0  0.07510  0.73763  0.84770  1.0000 0.6087694448
C   C30       1.0  0.42490  0.23763  0.15230  1.0000 0.6087694448
C   C31       1.0  0.92490  0.26237  0.15230  1.0000 0.6087694448
C   C32       1.0  0.57510  0.76237  0.84770  1.0000 0.6087694448
C   C33       1.0  0.12340  0.42041  0.21340  1.0000 -0.0457078581
C   C34       1.0  0.37660  0.92041  0.78660  1.0000 -0.0457078581
C   C35       1.0  0.87660  0.57959  0.78660  1.0000 -0.0457078581
C   C36       1.0  0.62340  0.07959  0.21340  1.0000 -0.0457078581
C   C37       1.0  0.50200  0.66805  0.03360  1.0000 -0.1515035647
C   C38       1.0  0.99800  0.16805  0.96640  1.0000 -0.1515035647
C   C39       1.0  0.49800  0.33195  0.96640  1.0000 -0.1515035647
C   C40       1.0  0.00200  0.83195  0.03360  1.0000 -0.1515035647
C   C41       1.0  0.68520  0.67904  0.43150  1.0000 -0.1515035647
C   C42       1.0  0.81480  0.17904  0.56850  1.0000 -0.1515035647
C   C43       1.0  0.31480  0.32096  0.56850  1.0000 -0.1515035647
C   C44       1.0  0.18520  0.82096  0.43150  1.0000 -0.1515035647
C   C45       1.0  0.11680  0.72851  0.00330  1.0000 -0.0925783635
C   C46       1.0  0.38320  0.22851  0.99670  1.0000 -0.0925783635
C   C47       1.0  0.88320  0.27149  0.99670  1.0000 -0.0925783635
C   C48       1.0  0.61680  0.77149  0.00330  1.0000 -0.0925783635
C   C49       1.0  0.46240  0.69381  0.96530  1.0000 -0.0985987551
C   C50       1.0  0.03760  0.19381  0.03470  1.0000 -0.0985987551
C   C51       1.0  0.53760  0.30619  0.03470  1.0000 -0.0985987551
C   C52       1.0  0.96240  0.80619  0.96530  1.0000 -0.0985987551
C   C53       1.0  0.13700  0.37144  0.20850  1.0000 0.5905617011
C   C54       1.0  0.36300  0.87144  0.79150  1.0000 0.5905617011
C   C55       1.0  0.86300  0.62856  0.79150  1.0000 0.5905617011
C   C56       1.0  0.63700  0.12856  0.20850  1.0000 0.5905617011
C   C57       1.0  0.55660  0.66141  0.26330  1.0000 -0.2002662399
C   C58       1.0  0.94340  0.16141  0.73670  1.0000 -0.2002662399
C   C59       1.0  0.44340  0.33859  0.73670  1.0000 -0.2002662399
C   C60       1.0  0.05660  0.83859  0.26330  1.0000 -0.2002662399
C   C61       1.0  0.45740  0.43153  0.21630  1.0000 -0.0320125584
C   C62       1.0  0.04260  0.93153  0.78370  1.0000 -0.0320125584
C   C63       1.0  0.54260  0.56847  0.78370  1.0000 -0.0320125584
C   C64       1.0  0.95740  0.06847  0.21630  1.0000 -0.0320125584
C   C65       1.0  0.57970  0.63245  0.33130  1.0000 0.0795859623
C   C66       1.0  0.92030  0.13245  0.66870  1.0000 0.0795859623
C   C67       1.0  0.42030  0.36755  0.66870  1.0000 0.0795859623
C   C68       1.0  0.07970  0.86755  0.33130  1.0000 0.0795859623
C   C69       1.0  0.61800  0.64898  0.41700  1.0000 0.0795859623
C   C70       1.0  0.88200  0.14898  0.58300  1.0000 0.0795859623
C   C71       1.0  0.38200  0.35102  0.58300  1.0000 0.0795859623
C   C72       1.0  0.11800  0.85102  0.41700  1.0000 0.0795859623
C   C73       1.0  0.50480  0.59951  0.17370  1.0000 -0.1939115273
C   C74       1.0  0.99520  0.09951  0.82630  1.0000 -0.1939115273
C   C75       1.0  0.49520  0.40049  0.82630  1.0000 -0.1939115273
C   C76       1.0  0.00480  0.90049  0.17370  1.0000 -0.1939115273
C   C77       1.0  0.71880  0.69399  0.51260  1.0000 -0.0985987551
C   C78       1.0  0.78120  0.19399  0.48740  1.0000 -0.0985987551
C   C79       1.0  0.28120  0.30601  0.48740  1.0000 -0.0985987551
C   C80       1.0  0.21880  0.80601  0.51260  1.0000 -0.0985987551
C   C81       1.0  0.48400  0.67572  0.11230  1.0000 0.0795859623
C   C82       1.0  0.01600  0.17572  0.88770  1.0000 0.0795859623
C   C83       1.0  0.51600  0.32428  0.88770  1.0000 0.0795859623
C   C84       1.0  0.98400  0.82428  0.11230  1.0000 0.0795859623
C   C85       1.0  0.09980  0.51391  0.21830  1.0000 0.0795859623
C   C86       1.0  0.40020  0.01391  0.78170  1.0000 0.0795859623
C   C87       1.0  0.90020  0.48609  0.78170  1.0000 0.0795859623
C   C88       1.0  0.59980  0.98609  0.21830  1.0000 0.0795859623
C   C89       1.0  0.05630  0.66625  0.91880  1.0000 -0.0925783635
C   C90       1.0  0.44370  0.16625  0.08120  1.0000 -0.0925783635
C   C91       1.0  0.94370  0.33375  0.08120  1.0000 -0.0925783635
C   C92       1.0  0.55630  0.83375  0.91880  1.0000 -0.0925783635
C   C93       1.0  0.00940  0.69730  0.50850  1.0000 -0.0409237276
C   C94       1.0  0.49060  0.19730  0.49150  1.0000 -0.0409237276
C   C95       1.0  0.99060  0.30270  0.49150  1.0000 -0.0409237276
C   C96       1.0  0.50940  0.80270  0.50850  1.0000 -0.0409237276
C   C97       1.0  0.99590  0.71984  0.58550  1.0000 0.5905617011
C   C98       1.0  0.50410  0.21984  0.41450  1.0000 0.5905617011
C   C99       1.0  0.00410  0.28016  0.41450  1.0000 0.5905617011
C   C100      1.0  0.49590  0.78016  0.58550  1.0000 0.5905617011
C   C101      1.0  0.52630  0.56963  0.24060  1.0000 0.0795859623
C   C102      1.0  0.97370  0.06963  0.75940  1.0000 0.0795859623
C   C103      1.0  0.47370  0.43037  0.75940  1.0000 0.0795859623
C   C104      1.0  0.02630  0.93037  0.24060  1.0000 0.0795859623
C   C105      1.0  0.56350  0.58693  0.31930  1.0000 -0.2002662399
C   C106      1.0  0.93650  0.08693  0.68070  1.0000 -0.1939115273
C   C107      1.0  0.43650  0.41307  0.68070  1.0000 -0.2002662399
C   C108      1.0  0.06350  0.91307  0.31930  1.0000 -0.2002662399
C   C109      1.0  0.50440  0.52174  0.23020  1.0000 0.0795859623
C   C110      1.0  0.99560  0.02174  0.76980  1.0000 0.0795859623
C   C111      1.0  0.49560  0.47826  0.76980  1.0000 0.0795859623
C   C112      1.0  0.00440  0.97826  0.23020  1.0000 0.0795859623
C   C113      1.0  0.61710  0.65064  0.56510  1.0000 -0.1081841084
C   C114      1.0  0.88290  0.15064  0.43490  1.0000 -0.1081841084
C   C115      1.0  0.38290  0.34936  0.43490  1.0000 -0.1081841084
C   C116      1.0  0.11710  0.84936  0.56510  1.0000 -0.1081841084
C   C117      1.0  0.17250  0.44955  0.17740  1.0000 -0.0985987551
C   C118      1.0  0.32750  0.94955  0.82260  1.0000 -0.0985987551
C   C119      1.0  0.82750  0.55045  0.82260  1.0000 -0.0985987551
C   C120      1.0  0.67250  0.05045  0.17740  1.0000 -0.0985987551
C   C121      1.0  0.08390  0.66035  0.07070  1.0000 0.0795859623
C   C122      1.0  0.41610  0.16035  0.92930  1.0000 0.0795859623
C   C123      1.0  0.91610  0.33965  0.92930  1.0000 0.0795859623
C   C124      1.0  0.58390  0.83965  0.07070  1.0000 0.0795859623
C   C125      1.0  0.38630  0.73330  0.05250  1.0000 -0.0985987551
C   C126      1.0  0.11370  0.23330  0.94750  1.0000 -0.0985987551
C   C127      1.0  0.61370  0.26670  0.94750  1.0000 -0.0985987551
C   C128      1.0  0.88630  0.76670  0.05250  1.0000 -0.0985987551
C   C129      1.0  0.11560  0.70455  0.07420  1.0000 -0.1413748381
C   C130      1.0  0.38440  0.20455  0.92580  1.0000 -0.1413748381
C   C131      1.0  0.88440  0.29545  0.92580  1.0000 -0.1413748381
C   C132      1.0  0.61560  0.79545  0.07420  1.0000 -0.1413748381
C   C133      1.0  0.05450  0.64219  0.99040  1.0000 -0.1413748381
C   C134      1.0  0.44550  0.14219  0.00960  1.0000 -0.1413748381
C   C135      1.0  0.94550  0.35781  0.00960  1.0000 -0.1413748381
C   C136      1.0  0.55450  0.85781  0.99040  1.0000 -0.1413748381
C   C137      1.0  0.16200  0.49558  0.18070  1.0000 -0.1515035647
C   C138      1.0  0.33800  0.99558  0.81930  1.0000 -0.1515035647
C   C139      1.0  0.83800  0.50442  0.81930  1.0000 -0.1515035647
C   C140      1.0  0.66200  0.00442  0.18070  1.0000 -0.1515035647
C   C141      1.0  0.06230  0.43871  0.25270  1.0000 -0.0985987551
C   C142      1.0  0.43770  0.93871  0.74730  1.0000 -0.0985987551
C   C143      1.0  0.93770  0.56129  0.74730  1.0000 -0.0985987551
C   C144      1.0  0.56230  0.06129  0.25270  1.0000 -0.0985987551
C   C145      1.0  0.07980  0.63471  0.14670  1.0000 0.0795859623
C   C146      1.0  0.42020  0.13471  0.85330  1.0000 0.0795859623
C   C147      1.0  0.92020  0.36529  0.85330  1.0000 0.0795859623
C   C148      1.0  0.57980  0.86529  0.14670  1.0000 0.0795859623
C   C149      1.0  0.40750  0.46362  0.16740  1.0000 -0.0985987551
C   C150      1.0  0.09250  0.96362  0.83260  1.0000 -0.0985987551
C   C151      1.0  0.59250  0.53638  0.83260  1.0000 -0.0985987551
C   C152      1.0  0.90750  0.03638  0.16740  1.0000 -0.0985987551
C   C153      1.0  0.06740  0.58458  0.28910  1.0000 -0.2002662399
C   C154      1.0  0.43260  0.08458  0.71090  1.0000 -0.2002662399
C   C155      1.0  0.93260  0.41542  0.71090  1.0000 -0.2002662399
C   C156      1.0  0.56740  0.91542  0.28910  1.0000 -0.2002662399
C   C157      1.0  0.42830  0.70900  0.12120  1.0000 -0.1515035647
C   C158      1.0  0.07170  0.20900  0.87880  1.0000 -0.1515035647
C   C159      1.0  0.57170  0.29100  0.87880  1.0000 -0.1515035647
C   C160      1.0  0.92830  0.79100  0.12120  1.0000 -0.1515035647
C   C161      1.0  0.07590  0.69531  0.38930  1.0000 -0.1515035647
C   C162      1.0  0.42410  0.19531  0.61070  1.0000 -0.1515035647
C   C163      1.0  0.92410  0.30469  0.61070  1.0000 -0.1515035647
C   C164      1.0  0.57590  0.80469  0.38930  1.0000 -0.1515035647
C   C165      1.0  0.43150  0.50856  0.17460  1.0000 -0.1515035647
C   C166      1.0  0.06850  0.00856  0.82540  1.0000 -0.1515035647
C   C167      1.0  0.56850  0.49144  0.82540  1.0000 -0.1515035647
C   C168      1.0  0.93150  0.99144  0.17460  1.0000 -0.1515035647
C   C169      1.0  0.04990  0.48446  0.25450  1.0000 -0.1515035647
C   C170      1.0  0.45010  0.98446  0.74550  1.0000 -0.1515035647
C   C171      1.0  0.95010  0.51554  0.74550  1.0000 -0.1515035647
C   C172      1.0  0.54990  0.01554  0.25450  1.0000 -0.1515035647
C   C173      1.0  0.03920  0.65410  0.36410  1.0000 0.0795859623
C   C174      1.0  0.46080  0.15410  0.63590  1.0000 0.0795859623
C   C175      1.0  0.96080  0.34590  0.63590  1.0000 0.0795859623
C   C176      1.0  0.53920  0.84590  0.36410  1.0000 0.0795859623
C   C177      1.0  0.52990  0.44471  0.26990  1.0000 -0.0985987551
C   C178      1.0  0.97010  0.94471  0.73010  1.0000 -0.0985987551
C   C179      1.0  0.47010  0.55529  0.73010  1.0000 -0.0985987551
C   C180      1.0  0.02990  0.05529  0.26990  1.0000 -0.0985987551
C   C181      1.0  0.05620  0.63098  0.28940  1.0000 0.0795859623
C   C182      1.0  0.44380  0.13098  0.71060  1.0000 0.0795859623
C   C183      1.0  0.94380  0.36902  0.71060  1.0000 0.0795859623
C   C184      1.0  0.55620  0.86902  0.28940  1.0000 0.0795859623
C   C185      1.0  0.06210  0.71626  0.46090  1.0000 -0.0985987551
C   C186      1.0  0.43790  0.21626  0.53910  1.0000 -0.0985987551
C   C187      1.0  0.93790  0.28374  0.53910  1.0000 -0.0985987551
C   C188      1.0  0.56210  0.78374  0.46090  1.0000 -0.0985987551
C   C189      1.0  0.06090  0.65511  0.21730  1.0000 -0.2002662399
C   C190      1.0  0.43910  0.15511  0.78270  1.0000 -0.2002662399
C   C191      1.0  0.93910  0.34489  0.78270  1.0000 -0.2002662399
C   C192      1.0  0.56090  0.84489  0.21730  1.0000 -0.2002662399
C   C193      1.0  0.58630  0.63455  0.48570  1.0000 -0.1413748381
C   C194      1.0  0.91370  0.13455  0.51430  1.0000 -0.1413748381
C   C195      1.0  0.41370  0.36545  0.51430  1.0000 -0.1413748381
C   C196      1.0  0.08630  0.86545  0.48570  1.0000 -0.1413748381
C   C197      1.0  0.09220  0.58798  0.14870  1.0000 -0.2002662399
C   C198      1.0  0.40780  0.08798  0.85130  1.0000 -0.2002662399
C   C199      1.0  0.90780  0.41202  0.85130  1.0000 -0.2002662399
C   C200      1.0  0.59220  0.91202  0.14870  1.0000 -0.2002662399
C   C201      1.0  0.08550  0.56270  0.21850  1.0000 0.0795859623
C   C202      1.0  0.41450  0.06270  0.78150  1.0000 0.0795859623
C   C203      1.0  0.91450  0.43730  0.78150  1.0000 0.0795859623
C   C204      1.0  0.58550  0.93730  0.21850  1.0000 0.0795859623
C   C205      1.0  0.98660  0.63521  0.41230  1.0000 -0.1515035647
C   C206      1.0  0.51340  0.13521  0.58770  1.0000 -0.1515035647
C   C207      1.0  0.01340  0.36479  0.58770  1.0000 -0.1515035647
C   C208      1.0  0.48660  0.86479  0.41230  1.0000 -0.1515035647
C   C209      1.0  0.97140  0.65615  0.48240  1.0000 -0.0985987551
C   C210      1.0  0.52860  0.15615  0.51760  1.0000 -0.0985987551
C   C211      1.0  0.02860  0.34385  0.51760  1.0000 -0.0985987551
C   C212      1.0  0.47140  0.84385  0.48240  1.0000 -0.0985987551
C   C213      1.0  0.55510  0.48922  0.27670  1.0000 -0.1515035647
C   C214      1.0  0.94490  0.98922  0.72330  1.0000 -0.1515035647
C   C215      1.0  0.44490  0.51078  0.72330  1.0000 -0.1515035647
C   C216      1.0  0.05510  0.01078  0.27670  1.0000 -0.1515035647
C   C217      1.0  0.86200  0.80435  0.63300  1.0000 -0.2193600851
C   C218      1.0  0.63800  0.30435  0.36700  1.0000 -0.2193600851
C   C219      1.0  0.13800  0.19565  0.36700  1.0000 -0.2193600851
C   C220      1.0  0.36200  0.69565  0.63300  1.0000 -0.2193600851
O   O1        1.0  0.67588  0.69376  0.72195  1.0000 -0.5915752667
O   O2        1.0  0.82412  0.19376  0.27805  1.0000 -0.5915752667
O   O3        1.0  0.32412  0.30624  0.27805  1.0000 -0.5915752667
O   O4        1.0  0.17588  0.80624  0.72195  1.0000 -0.5915752667
O   O5        1.0  0.91470  0.78225  0.70294  1.0000 -0.5025675463
O   O6        1.0  0.58530  0.28225  0.29706  1.0000 -0.5025675463
O   O7        1.0  0.08530  0.21775  0.29706  1.0000 -0.5025675463
O   O8        1.0  0.41470  0.71775  0.70294  1.0000 -0.5025675463
O   O9        1.0  0.40240  0.76202  0.84653  1.0000 -0.5384537063
O   O10       1.0  0.09760  0.26202  0.15347  1.0000 -0.5384537063
O   O11       1.0  0.59760  0.23798  0.15347  1.0000 -0.5384537063
O   O12       1.0  0.90240  0.73798  0.84653  1.0000 -0.5299441146
O   O13       1.0  0.09913  0.77776  0.84997  1.0000 -0.583352493
O   O14       1.0  0.40087  0.27776  0.15003  1.0000 -0.583352493
O   O15       1.0  0.90087  0.22224  0.15003  1.0000 -0.583352493
O   O16       1.0  0.59913  0.72224  0.84997  1.0000 -0.583352493
O   O17       1.0  0.36190  0.37397  0.15954  1.0000 -0.5606152433
O   O18       1.0  0.13810  0.87397  0.84046  1.0000 -0.5606152433
O   O19       1.0  0.63810  0.62603  0.84046  1.0000 -0.5606152433
O   O20       1.0  0.86190  0.12603  0.15954  1.0000 -0.5606152433
O   O21       1.0  0.94100  0.70261  0.62170  1.0000 -0.5384537063
O   O22       1.0  0.55900  0.20261  0.37830  1.0000 -0.5384537063
O   O23       1.0  0.05900  0.29739  0.37830  1.0000 -0.5384537063
O   O24       1.0  0.44100  0.79739  0.62170  1.0000 -0.5384537063
O   O25       1.0  0.47320  0.35733  0.26355  1.0000 -0.550618844
O   O26       1.0  0.02680  0.85733  0.73645  1.0000 -0.550618844
O   O27       1.0  0.52680  0.64267  0.73645  1.0000 -0.550618844
O   O28       1.0  0.97320  0.14267  0.26355  1.0000 -0.550618844
O   O29       1.0  0.03900  0.75450  0.61015  1.0000 -0.550618844
O   O30       1.0  0.46100  0.25450  0.38985  1.0000 -0.550618844
O   O31       1.0  0.96100  0.24550  0.38985  1.0000 -0.550618844
O   O32       1.0  0.53900  0.74550  0.61015  1.0000 -0.550618844
O   O33       1.0  0.28330  0.76334  0.89523  1.0000 -0.5714928824
O   O34       1.0  0.21670  0.26334  0.10477  1.0000 -0.5714928824
O   O35       1.0  0.71670  0.23666  0.10477  1.0000 -0.5714928824
O   O36       1.0  0.78330  0.73666  0.89523  1.0000 -0.5714928824
O   O37       1.0  0.03770  0.72042  0.77779  1.0000 -0.550618844
O   O38       1.0  0.46230  0.22042  0.22221  1.0000 -0.550618844
O   O39       1.0  0.96230  0.27958  0.22221  1.0000 -0.550618844
O   O40       1.0  0.53770  0.77958  0.77779  1.0000 -0.550618844
O   O41       1.0  0.18480  0.35739  0.16339  1.0000 -0.5606152433
O   O42       1.0  0.31520  0.85739  0.83661  1.0000 -0.5606152433
O   O43       1.0  0.81520  0.64261  0.83661  1.0000 -0.5606152433
O   O44       1.0  0.68480  0.14261  0.16339  1.0000 -0.5606152433
O   O45       1.0  0.78660  0.72001  0.67656  1.0000 -0.5299441146
O   O46       1.0  0.71340  0.22001  0.32344  1.0000 -0.5299441146
O   O47       1.0  0.21340  0.27999  0.32344  1.0000 -0.5299441146
O   O48       1.0  0.28660  0.77999  0.67656  1.0000 -0.5299441146
O   O49       1.0  0.09680  0.34694  0.25086  1.0000 -0.550618844
O   O50       1.0  0.40320  0.84694  0.74914  1.0000 -0.550618844
O   O51       1.0  0.90320  0.65306  0.74914  1.0000 -0.550618844
O   O52       1.0  0.59680  0.15306  0.25086  1.0000 -0.550618844
