# DDEC6 charges by PACMAN v1.1 (https://github.com/mtap-research/PACMAN-charge/)
data_2024[Th][llj]3[ASR]1
_chemical_formula_sum              "Th12 H204 C320 N8 O72"
_cell_length_a       24.7899
_cell_length_b       24.7899
_cell_length_c       25.9164
_cell_angle_alpha    64.3401
_cell_angle_beta     115.66
_cell_angle_gamma    115.2

_symmetry_space_group_name_H-M    "P 1"
_symmetry_Int_Tables_number       1

loop_
  _symmetry_equiv_pos_as_xyz
  'x, y, z'

loop_
  _atom_site_type_symbol
  _atom_site_label
  _atom_site_symmetry_multiplicity
  _atom_site_fract_x
  _atom_site_fract_y
  _atom_site_fract_z
  _atom_site_occupancy
  _atom_site_charge
Th  Th1       1.0  0.19821  0.80179  0.38854  1.0000 2.3532996473
Th  Th2       1.0  0.34133  0.65867  0.42585  1.0000 2.3577784197
Th  Th3       1.0  0.17418  0.67634  0.32085  1.0000 2.3204206225
Th  Th4       1.0  0.32366  0.82582  0.32085  1.0000 2.3204206225
Th  Th5       1.0  0.21654  0.63584  0.49453  1.0000 2.3204206225
Th  Th6       1.0  0.36416  0.78346  0.49453  1.0000 2.3204206225
Th  Th7       1.0  0.80179  0.19821  0.61146  1.0000 2.3577784197
Th  Th8       1.0  0.65867  0.34133  0.57415  1.0000 2.3577784197
Th  Th9       1.0  0.67634  0.17418  0.67915  1.0000 2.3204206225
Th  Th10      1.0  0.82582  0.32366  0.67915  1.0000 2.3204206225
Th  Th11      1.0  0.63584  0.21654  0.50547  1.0000 2.3204206225
Th  Th12      1.0  0.78346  0.36416  0.50547  1.0000 2.3204206225
H   H1        1.0  0.33360  0.55080  0.31730  1.0000 0.1298231306
H   H2        1.0  0.44920  0.66640  0.31730  1.0000 0.1298231306
H   H3        1.0  0.54750  0.66110  0.52840  1.0000 0.1298231306
H   H4        1.0  0.33890  0.45250  0.52840  1.0000 0.1298231306
H   H5        1.0  0.72360  0.62820  0.65310  1.0000 0.1114701981
H   H6        1.0  0.37180  0.27640  0.65310  1.0000 0.1114701981
H   H7        1.0  0.15710  0.50770  0.15840  1.0000 0.1114701981
H   H8        1.0  0.49230  0.84290  0.15840  1.0000 0.1114701981
H   H9        1.0  0.33710  0.51410  0.25100  1.0000 0.1191090505
H   H10       1.0  0.48590  0.66290  0.25100  1.0000 0.1191090505
H   H11       1.0  0.15670  0.55050  0.22300  1.0000 0.1364354432
H   H12       1.0  0.44950  0.84330  0.22300  1.0000 0.1364354432
H   H13       1.0  0.11240  0.63180  0.60690  1.0000 0.1191090505
H   H14       1.0  0.36820  0.88760  0.60690  1.0000 0.1191090505
H   H15       1.0  0.08020  0.79420  0.48870  1.0000 0.1298231306
H   H16       1.0  0.20580  0.91980  0.48870  1.0000 0.1298231306
H   H17       1.0  0.91760  0.63720  0.94740  1.0000 0.1044009623
H   H18       1.0  0.36280  0.08240  0.94740  1.0000 0.1044009623
H   H19       1.0  0.13220  0.48840  0.67560  1.0000 0.1298231306
H   H20       1.0  0.51160  0.86780  0.67560  1.0000 0.1298231306
H   H21       1.0  0.14020  0.44620  0.77790  1.0000 0.1191090505
H   H22       1.0  0.55380  0.85980  0.77790  1.0000 0.1191090505
H   H23       1.0  0.32060  0.55400  0.81830  1.0000 0.1114701981
H   H24       1.0  0.44600  0.67940  0.81830  1.0000 0.1114701981
H   H25       1.0  0.31260  0.59620  0.71600  1.0000 0.1298231306
H   H26       1.0  0.40380  0.68740  0.71600  1.0000 0.1298231306
H   H27       1.0  0.31510  0.47870  0.00850  1.0000 0.1298231306
H   H28       1.0  0.52130  0.68490  0.00850  1.0000 0.1298231306
H   H29       1.0  0.31530  0.52750  0.90850  1.0000 0.1191090505
H   H30       1.0  0.47250  0.68470  0.90850  1.0000 0.1191090505
H   H31       1.0  0.15260  0.39740  0.85730  1.0000 0.1114701981
H   H32       1.0  0.60260  0.84740  0.85730  1.0000 0.1114701981
H   H33       1.0  0.15230  0.34870  0.95730  1.0000 0.1298231306
H   H34       1.0  0.65130  0.84770  0.95730  1.0000 0.1298231306
H   H35       1.0  0.18510  0.46730  0.02220  1.0000 0.1298231306
H   H36       1.0  0.53270  0.81490  0.02220  1.0000 0.1298231306
H   H37       1.0  0.26450  0.30850  0.02480  1.0000 0.1191090505
H   H38       1.0  0.69150  0.73550  0.02480  1.0000 0.1191090505
H   H39       1.0  0.19130  0.51890  0.08120  1.0000 0.1191090505
H   H40       1.0  0.48110  0.80870  0.08120  1.0000 0.1191090505
H   H41       1.0  0.86100  0.76960  0.75820  1.0000 0.1298231306
H   H42       1.0  0.23040  0.13900  0.75820  1.0000 0.1298231306
H   H43       1.0  0.90580  0.76240  0.64570  1.0000 0.1298231306
H   H44       1.0  0.23760  0.09420  0.64570  1.0000 0.1298231306
H   H45       1.0  0.95480  0.76400  0.58490  1.0000 0.1114701981
H   H46       1.0  0.23600  0.04520  0.58490  1.0000 0.1114701981
H   H47       1.0  0.15530  0.75890  0.09970  1.0000 0.1298231306
H   H48       1.0  0.24110  0.84470  0.09970  1.0000 0.1298231306
H   H49       1.0  0.10990  0.76570  0.99770  1.0000 0.1114701981
H   H50       1.0  0.23430  0.89010  0.99770  1.0000 0.1114701981
H   H51       1.0  0.96160  0.61780  0.03500  1.0000 0.1114701981
H   H52       1.0  0.38220  0.03840  0.03500  1.0000 0.1114701981
H   H53       1.0  0.00700  0.61100  0.13700  1.0000 0.1298231306
H   H54       1.0  0.38900  0.99300  0.13700  1.0000 0.1298231306
H   H55       1.0  0.06220  0.63260  0.66550  1.0000 0.1191090505
H   H56       1.0  0.36740  0.93780  0.66550  1.0000 0.1191090505
H   H57       1.0  0.02690  0.79190  0.54680  1.0000 0.1114701981
H   H58       1.0  0.20810  0.97310  0.54680  1.0000 0.1114701981
H   H59       1.0  0.56170  0.76690  0.61750  1.0000 0.1364354432
H   H60       1.0  0.23310  0.43830  0.61750  1.0000 0.1364354432
H   H61       1.0  0.87450  0.63690  0.84810  1.0000 0.1191090505
H   H62       1.0  0.36310  0.12550  0.84810  1.0000 0.1191090505
H   H63       1.0  0.30130  0.42030  0.22530  1.0000 0.1114701981
H   H64       1.0  0.57970  0.69870  0.22530  1.0000 0.1114701981
H   H65       1.0  0.17010  0.99310  0.26410  1.0000 0.1298231306
H   H66       1.0  0.00690  0.82990  0.26410  1.0000 0.1298231306
H   H67       1.0  0.75730  0.77130  0.70780  1.0000 0.1114701981
H   H68       1.0  0.22870  0.24270  0.70780  1.0000 0.1114701981
H   H69       1.0  0.01120  0.66000  0.79080  1.0000 0.1298231306
H   H70       1.0  0.34000  0.98880  0.79080  1.0000 0.1298231306
H   H71       1.0  0.15910  0.09190  0.20780  1.0000 0.1114701981
H   H72       1.0  0.90810  0.84090  0.20780  1.0000 0.1114701981
H   H73       1.0  0.26530  0.20570  0.07280  1.0000 0.1191090505
H   H74       1.0  0.79430  0.73470  0.07280  1.0000 0.1191090505
H   H75       1.0  0.29830  0.02010  0.19340  1.0000 0.1298231306
H   H76       1.0  0.97990  0.70170  0.19340  1.0000 0.1298231306
H   H77       1.0  0.03370  0.76570  0.81470  1.0000 0.1298231306
H   H78       1.0  0.23430  0.96630  0.81470  1.0000 0.1298231306
H   H79       1.0  0.18090  0.29210  0.13420  1.0000 0.1191090505
H   H80       1.0  0.70790  0.81910  0.13420  1.0000 0.1191090505
H   H81       1.0  0.82960  0.63040  0.70180  1.0000 0.1298231306
H   H82       1.0  0.36960  0.17040  0.70180  1.0000 0.1298231306
H   H83       1.0  0.17940  0.18940  0.18010  1.0000 0.1114701981
H   H84       1.0  0.81060  0.82060  0.18010  1.0000 0.1114701981
H   H85       1.0  0.07750  0.75990  0.91560  1.0000 0.1114701981
H   H86       1.0  0.24010  0.92250  0.91560  1.0000 0.1114701981
H   H87       1.0  0.29590  0.12390  0.14010  1.0000 0.1114701981
H   H88       1.0  0.87610  0.70410  0.14010  1.0000 0.1044009623
H   H89       1.0  0.64860  0.65180  0.58870  1.0000 0.1191090505
H   H90       1.0  0.34820  0.35140  0.58870  1.0000 0.1191090505
H   H91       1.0  0.06690  0.67230  0.73200  1.0000 0.1114701981
H   H92       1.0  0.32770  0.93310  0.73200  1.0000 0.1114701981
H   H93       1.0  0.65960  0.75540  0.67910  1.0000 0.1114701981
H   H94       1.0  0.24460  0.34040  0.67910  1.0000 0.1114701981
H   H95       1.0  0.29650  0.36910  0.16510  1.0000 0.1298231306
H   H96       1.0  0.63090  0.70350  0.16510  1.0000 0.1298231306
H   H97       1.0  0.01600  0.48200  0.44970  1.0000 0.1831502911
H   H98       1.0  0.51800  0.98400  0.44970  1.0000 0.1831502911
H   H99       1.0  0.02170  0.45830  0.40430  1.0000 0.1675480488
H   H100      1.0  0.54170  0.97830  0.40430  1.0000 0.1675480488
H   H101      1.0  0.98190  0.50590  0.37910  1.0000 0.1675480488
H   H102      1.0  0.49410  0.01810  0.37910  1.0000 0.1675480488
H   H103      1.0  0.55080  0.33360  0.68270  1.0000 0.1298231306
H   H104      1.0  0.66640  0.44920  0.68270  1.0000 0.1298231306
H   H105      1.0  0.66110  0.54750  0.47160  1.0000 0.1298231306
H   H106      1.0  0.45250  0.33890  0.47160  1.0000 0.1298231306
H   H107      1.0  0.62820  0.72360  0.34690  1.0000 0.1114701981
H   H108      1.0  0.27640  0.37180  0.34690  1.0000 0.1114701981
H   H109      1.0  0.50770  0.15710  0.84160  1.0000 0.1191090505
H   H110      1.0  0.84290  0.49230  0.84160  1.0000 0.1114701981
H   H111      1.0  0.51410  0.33710  0.74900  1.0000 0.1191090505
H   H112      1.0  0.66290  0.48590  0.74900  1.0000 0.1191090505
H   H113      1.0  0.55050  0.15670  0.77700  1.0000 0.1364354432
H   H114      1.0  0.84330  0.44950  0.77700  1.0000 0.1364354432
H   H115      1.0  0.63180  0.11240  0.39310  1.0000 0.1191090505
H   H116      1.0  0.88760  0.36820  0.39310  1.0000 0.1191090505
H   H117      1.0  0.79420  0.08020  0.51130  1.0000 0.1298231306
H   H118      1.0  0.91980  0.20580  0.51130  1.0000 0.1298231306
H   H119      1.0  0.63720  0.91760  0.05260  1.0000 0.1044009623
H   H120      1.0  0.08240  0.36280  0.05260  1.0000 0.1044009623
H   H121      1.0  0.48840  0.13220  0.32440  1.0000 0.1298231306
H   H122      1.0  0.86780  0.51160  0.32440  1.0000 0.1298231306
H   H123      1.0  0.44620  0.14020  0.22210  1.0000 0.1191090505
H   H124      1.0  0.85980  0.55380  0.22210  1.0000 0.1191090505
H   H125      1.0  0.55400  0.32060  0.18170  1.0000 0.1114701981
H   H126      1.0  0.67940  0.44600  0.18170  1.0000 0.1114701981
H   H127      1.0  0.59620  0.31260  0.28400  1.0000 0.1298231306
H   H128      1.0  0.68740  0.40380  0.28400  1.0000 0.1298231306
H   H129      1.0  0.47870  0.31510  0.99150  1.0000 0.1298231306
H   H130      1.0  0.68490  0.52130  0.99150  1.0000 0.1298231306
H   H131      1.0  0.52750  0.31530  0.09150  1.0000 0.1191090505
H   H132      1.0  0.68470  0.47250  0.09150  1.0000 0.1191090505
H   H133      1.0  0.39740  0.15260  0.14270  1.0000 0.1114701981
H   H134      1.0  0.84740  0.60260  0.14270  1.0000 0.1114701981
H   H135      1.0  0.34870  0.15230  0.04270  1.0000 0.1298231306
H   H136      1.0  0.84770  0.65130  0.04270  1.0000 0.1298231306
H   H137      1.0  0.46730  0.18510  0.97780  1.0000 0.1298231306
H   H138      1.0  0.81490  0.53270  0.97780  1.0000 0.1298231306
H   H139      1.0  0.30850  0.26450  0.97520  1.0000 0.1191090505
H   H140      1.0  0.73550  0.69150  0.97520  1.0000 0.1191090505
H   H141      1.0  0.51890  0.19130  0.91880  1.0000 0.1191090505
H   H142      1.0  0.80870  0.48110  0.91880  1.0000 0.1191090505
H   H143      1.0  0.76960  0.86100  0.24180  1.0000 0.1298231306
H   H144      1.0  0.13900  0.23040  0.24180  1.0000 0.1298231306
H   H145      1.0  0.76240  0.90580  0.35430  1.0000 0.1298231306
H   H146      1.0  0.09420  0.23760  0.35430  1.0000 0.1298231306
H   H147      1.0  0.76400  0.95480  0.41510  1.0000 0.1114701981
H   H148      1.0  0.04520  0.23600  0.41510  1.0000 0.1114701981
H   H149      1.0  0.75890  0.15530  0.90030  1.0000 0.1298231306
H   H150      1.0  0.84470  0.24110  0.90030  1.0000 0.1298231306
H   H151      1.0  0.76570  0.10990  0.00230  1.0000 0.1114701981
H   H152      1.0  0.89010  0.23430  0.00230  1.0000 0.1114701981
H   H153      1.0  0.61780  0.96160  0.96500  1.0000 0.1114701981
H   H154      1.0  0.03840  0.38220  0.96500  1.0000 0.1114701981
H   H155      1.0  0.61100  0.00700  0.86300  1.0000 0.1298231306
H   H156      1.0  0.99300  0.38900  0.86300  1.0000 0.1298231306
H   H157      1.0  0.63260  0.06220  0.33450  1.0000 0.1191090505
H   H158      1.0  0.93780  0.36740  0.33450  1.0000 0.1191090505
H   H159      1.0  0.79190  0.02690  0.45320  1.0000 0.1114701981
H   H160      1.0  0.97310  0.20810  0.45320  1.0000 0.1114701981
H   H161      1.0  0.76690  0.56170  0.38250  1.0000 0.1364354432
H   H162      1.0  0.43830  0.23310  0.38250  1.0000 0.1364354432
H   H163      1.0  0.63690  0.87450  0.15190  1.0000 0.1191090505
H   H164      1.0  0.12550  0.36310  0.15190  1.0000 0.1191090505
H   H165      1.0  0.42030  0.30130  0.77470  1.0000 0.1114701981
H   H166      1.0  0.69870  0.57970  0.77470  1.0000 0.1114701981
H   H167      1.0  0.99310  0.17010  0.73590  1.0000 0.1298231306
H   H168      1.0  0.82990  0.00690  0.73590  1.0000 0.1298231306
H   H169      1.0  0.77130  0.75730  0.29220  1.0000 0.1114701981
H   H170      1.0  0.24270  0.22870  0.29220  1.0000 0.1114701981
H   H171      1.0  0.66000  0.01120  0.20920  1.0000 0.1298231306
H   H172      1.0  0.98880  0.34000  0.20920  1.0000 0.1298231306
H   H173      1.0  0.09190  0.15910  0.79220  1.0000 0.1114701981
H   H174      1.0  0.84090  0.90810  0.79220  1.0000 0.1114701981
H   H175      1.0  0.20570  0.26530  0.92720  1.0000 0.1114701981
H   H176      1.0  0.73470  0.79430  0.92720  1.0000 0.1191090505
H   H177      1.0  0.02010  0.29830  0.80660  1.0000 0.1298231306
H   H178      1.0  0.70170  0.97990  0.80660  1.0000 0.1298231306
H   H179      1.0  0.76570  0.03370  0.18530  1.0000 0.1298231306
H   H180      1.0  0.96630  0.23430  0.18530  1.0000 0.1298231306
H   H181      1.0  0.29210  0.18090  0.86580  1.0000 0.1191090505
H   H182      1.0  0.81910  0.70790  0.86580  1.0000 0.1191090505
H   H183      1.0  0.63040  0.82960  0.29820  1.0000 0.1298231306
H   H184      1.0  0.17040  0.36960  0.29820  1.0000 0.1298231306
H   H185      1.0  0.18940  0.17940  0.81990  1.0000 0.1114701981
H   H186      1.0  0.82060  0.81060  0.81990  1.0000 0.1114701981
H   H187      1.0  0.75990  0.07750  0.08440  1.0000 0.1114701981
H   H188      1.0  0.92250  0.24010  0.08440  1.0000 0.1114701981
H   H189      1.0  0.12390  0.29590  0.85990  1.0000 0.1044009623
H   H190      1.0  0.70410  0.87610  0.85990  1.0000 0.1044009623
H   H191      1.0  0.65180  0.64860  0.41130  1.0000 0.1191090505
H   H192      1.0  0.35140  0.34820  0.41130  1.0000 0.1191090505
H   H193      1.0  0.67230  0.06690  0.26800  1.0000 0.1114701981
H   H194      1.0  0.93310  0.32770  0.26800  1.0000 0.1114701981
H   H195      1.0  0.75540  0.65960  0.32090  1.0000 0.1114701981
H   H196      1.0  0.34040  0.24460  0.32090  1.0000 0.1114701981
H   H197      1.0  0.36910  0.29650  0.83490  1.0000 0.1298231306
H   H198      1.0  0.70350  0.63090  0.83490  1.0000 0.1298231306
H   H199      1.0  0.48200  0.01600  0.55030  1.0000 0.1831502911
H   H200      1.0  0.98400  0.51800  0.55030  1.0000 0.1831502911
H   H201      1.0  0.45830  0.02170  0.59570  1.0000 0.1675480488
H   H202      1.0  0.97830  0.54170  0.59570  1.0000 0.1675480488
H   H203      1.0  0.50590  0.98190  0.62090  1.0000 0.1675480488
H   H204      1.0  0.01810  0.49410  0.62090  1.0000 0.1675480488
C   C1        1.0  0.47820  0.71340  0.53330  1.0000 0.6277366724
C   C2        1.0  0.28660  0.52180  0.53330  1.0000 0.6277366724
C   C3        1.0  0.24380  0.58360  0.31620  1.0000 0.6277366724
C   C4        1.0  0.41640  0.75620  0.31620  1.0000 0.6277366724
C   C5        1.0  0.12690  0.71090  0.50030  1.0000 0.6194878143
C   C6        1.0  0.28910  0.87310  0.50030  1.0000 0.6194878143
C   C7        1.0  0.11390  0.67730  0.19420  1.0000 0.5463230309
C   C8        1.0  0.32270  0.88610  0.19420  1.0000 0.5463230309
C   C9        1.0  0.54320  0.71080  0.57020  1.0000 -0.0271649336
C   C10       1.0  0.28920  0.45680  0.57020  1.0000 -0.0271649336
C   C11       1.0  0.24480  0.93380  0.27750  1.0000 0.6194878143
C   C12       1.0  0.06620  0.75520  0.27750  1.0000 0.6194878143
C   C13       1.0  0.29750  0.54250  0.28450  1.0000 -0.095834697
C   C14       1.0  0.45750  0.70250  0.28450  1.0000 -0.095834697
C   C15       1.0  0.24290  0.55350  0.27560  1.0000 -0.0126087025
C   C16       1.0  0.44650  0.75710  0.27560  1.0000 -0.0126087025
C   C17       1.0  0.85550  0.70210  0.73260  1.0000 0.1598067728
C   C18       1.0  0.29790  0.14450  0.73260  1.0000 0.1598067728
C   C19       1.0  0.23690  0.99830  0.23620  1.0000 -0.0126087025
C   C20       1.0  0.00170  0.76310  0.23620  1.0000 -0.0126087025
C   C21       1.0  0.07940  0.55080  0.40210  1.0000 0.7285983857
C   C22       1.0  0.44920  0.92060  0.40210  1.0000 0.7285983857
C   C23       1.0  0.57020  0.67960  0.55990  1.0000 -0.0822571336
C   C24       1.0  0.32040  0.42980  0.55990  1.0000 -0.0822571336
C   C25       1.0  0.75170  0.65850  0.67330  1.0000 -0.1372915142
C   C26       1.0  0.34150  0.24830  0.67330  1.0000 -0.1372915142
C   C27       1.0  0.73060  0.70200  0.67410  1.0000 0.0620872419
C   C28       1.0  0.29800  0.26940  0.67410  1.0000 0.0620872419
C   C29       1.0  0.09820  0.71300  0.53860  1.0000 -0.045577966
C   C30       1.0  0.28700  0.90180  0.53860  1.0000 -0.0448709096
C   C31       1.0  0.01250  0.71390  0.65000  1.0000 0.0620872419
C   C32       1.0  0.28610  0.98750  0.65000  1.0000 0.0620872419
C   C33       1.0  0.66490  0.70310  0.63970  1.0000 0.0692610733
C   C34       1.0  0.29690  0.33510  0.63970  1.0000 0.0692610733
C   C35       1.0  0.22730  0.31230  0.07840  1.0000 0.1675480488
C   C36       1.0  0.68770  0.77270  0.07840  1.0000 0.1675480488
C   C37       1.0  0.19370  0.51630  0.19070  1.0000 -0.1595467351
C   C38       1.0  0.48370  0.80630  0.19070  1.0000 -0.1595467351
C   C39       1.0  0.04160  0.71280  0.61280  1.0000 0.0692610733
C   C40       1.0  0.28720  0.95840  0.61280  1.0000 0.0692610733
C   C41       1.0  0.29900  0.51940  0.24550  1.0000 -0.1595467351
C   C42       1.0  0.48060  0.70100  0.24550  1.0000 -0.1595467351
C   C43       1.0  0.22730  0.18790  0.13530  1.0000 0.0692610733
C   C44       1.0  0.81210  0.77270  0.13530  1.0000 0.0692610733
C   C45       1.0  0.19350  0.54170  0.22990  1.0000 -0.0822571336
C   C46       1.0  0.45830  0.80650  0.22990  1.0000 -0.0822571336
C   C47       1.0  0.22090  0.57730  0.62050  1.0000 0.5341039595
C   C48       1.0  0.42270  0.77910  0.62050  1.0000 0.5341039595
C   C49       1.0  0.24690  0.50370  0.19870  1.0000 0.0782033561
C   C50       1.0  0.49630  0.75310  0.19870  1.0000 0.0782033561
C   C51       1.0  0.23050  0.12230  0.16870  1.0000 0.0854198483
C   C52       1.0  0.87770  0.76950  0.16870  1.0000 0.0854198483
C   C53       1.0  0.09490  0.66470  0.59380  1.0000 -0.0726234661
C   C54       1.0  0.33530  0.90510  0.59380  1.0000 -0.0726234661
C   C55       1.0  0.24660  0.47440  0.15970  1.0000 0.0517876107
C   C56       1.0  0.52560  0.75340  0.15970  1.0000 0.0517876107
C   C57       1.0  0.00240  0.69500  0.94150  1.0000 0.0620872419
C   C58       1.0  0.30500  0.99760  0.94150  1.0000 0.0692610733
C   C59       1.0  0.07570  0.75990  0.52390  1.0000 -0.0822571336
C   C60       1.0  0.24010  0.92430  0.52390  1.0000 -0.0822571336
C   C61       1.0  0.94210  0.66170  0.92060  1.0000 -0.1372915142
C   C62       1.0  0.33830  0.05790  0.92060  1.0000 -0.1372915142
C   C63       1.0  0.23780  0.41120  0.08740  1.0000 0.1675480488
C   C64       1.0  0.58880  0.76220  0.08740  1.0000 0.1675480488
C   C65       1.0  0.22160  0.54620  0.68620  1.0000 0.0023074794
C   C66       1.0  0.45380  0.77840  0.68620  1.0000 0.0023074794
C   C67       1.0  0.17050  0.50170  0.70460  1.0000 -0.0909119508
C   C68       1.0  0.49830  0.82950  0.70460  1.0000 -0.0909119508
C   C69       1.0  0.17520  0.47660  0.76530  1.0000 -0.151381334
C   C70       1.0  0.52340  0.82480  0.76530  1.0000 -0.151381334
C   C71       1.0  0.23110  0.49610  0.80770  1.0000 0.0782033561
C   C72       1.0  0.50390  0.76890  0.80770  1.0000 0.0782033561
C   C73       1.0  0.28240  0.54060  0.78930  1.0000 -0.1595467351
C   C74       1.0  0.45940  0.71760  0.78930  1.0000 -0.1595467351
C   C75       1.0  0.27760  0.56580  0.72860  1.0000 -0.0909119508
C   C76       1.0  0.43420  0.72240  0.72860  1.0000 -0.0909119508
C   C77       1.0  0.23371  0.40909  0.99231  1.0000 0.1675480488
C   C78       1.0  0.59091  0.76629  0.99231  1.0000 0.1675480488
C   C79       1.0  0.28220  0.46220  0.97780  1.0000 -0.1790583201
C   C80       1.0  0.53780  0.71780  0.97780  1.0000 -0.1790583201
C   C81       1.0  0.28220  0.49120  0.91840  1.0000 -0.1372915142
C   C82       1.0  0.50880  0.71780  0.91840  1.0000 -0.1372915142
C   C83       1.0  0.23400  0.46700  0.87346  1.0000 0.0692610733
C   C84       1.0  0.53300  0.76600  0.87346  1.0000 0.0692610733
C   C85       1.0  0.18550  0.41390  0.88800  1.0000 -0.1372915142
C   C86       1.0  0.58610  0.81450  0.88800  1.0000 -0.1372915142
C   C87       1.0  0.18540  0.38500  0.94740  1.0000 -0.1790583201
C   C88       1.0  0.61500  0.81460  0.94740  1.0000 -0.1790583201
C   C89       1.0  0.20840  0.45700  0.06360  1.0000 -0.1790583201
C   C90       1.0  0.54300  0.79160  0.06360  1.0000 -0.1866469322
C   C91       1.0  0.94810  0.70050  0.82110  1.0000 0.1675480488
C   C92       1.0  0.29950  0.05190  0.82110  1.0000 0.1675480488
C   C93       1.0  0.24930  0.28490  0.05850  1.0000 -0.1790583201
C   C94       1.0  0.71510  0.75070  0.05850  1.0000 -0.1790583201
C   C95       1.0  0.21230  0.48790  0.09870  1.0000 -0.1319761205
C   C96       1.0  0.51210  0.78770  0.09870  1.0000 -0.1319761205
C   C97       1.0  0.83350  0.74150  0.73550  1.0000 -0.1697013983
C   C98       1.0  0.25850  0.16650  0.73550  1.0000 -0.1697013983
C   C99       1.0  0.95210  0.70850  0.72380  1.0000 0.1675480488
C   C100      1.0  0.29150  0.04790  0.72380  1.0000 0.1675480488
C   C101      1.0  0.93660  0.74100  0.66300  1.0000 -0.1790583201
C   C102      1.0  0.25900  0.06340  0.66300  1.0000 -0.1790583201
C   C103      1.0  0.96670  0.74250  0.62680  1.0000 -0.1319761205
C   C104      1.0  0.25750  0.03330  0.62680  1.0000 -0.1319761205
C   C105      1.0  0.08530  0.68430  0.12792  1.0000 0.0023074794
C   C106      1.0  0.31570  0.91470  0.12792  1.0000 0.0023074794
C   C107      1.0  0.11591  0.73031  0.08660  1.0000 -0.0822571336
C   C108      1.0  0.26969  0.88409  0.08660  1.0000 -0.0822571336
C   C109      1.0  0.08900  0.73440  0.02600  1.0000 -0.1595467351
C   C110      1.0  0.26560  0.91100  0.02600  1.0000 -0.1595467351
C   C111      1.0  0.03150  0.69250  0.00679  1.0000 0.0782033561
C   C112      1.0  0.30750  0.96850  0.00679  1.0000 0.0782033561
C   C113      1.0  0.00089  0.64649  0.04810  1.0000 -0.1595467351
C   C114      1.0  0.35351  0.99911  0.04810  1.0000 -0.1595467351
C   C115      1.0  0.02780  0.64240  0.10870  1.0000 -0.095834697
C   C116      1.0  0.35760  0.97220  0.10870  1.0000 -0.095834697
C   C117      1.0  0.06540  0.66580  0.62920  1.0000 -0.1595467351
C   C118      1.0  0.33420  0.93460  0.62920  1.0000 -0.1595467351
C   C119      1.0  0.04500  0.75960  0.55980  1.0000 -0.151381334
C   C120      1.0  0.24040  0.95500  0.55980  1.0000 -0.151381334
C   C121      1.0  0.57810  0.74170  0.61260  1.0000 -0.0726234661
C   C122      1.0  0.25830  0.42190  0.61260  1.0000 -0.0822571336
C   C123      1.0  0.91570  0.66290  0.86110  1.0000 -0.1697013983
C   C124      1.0  0.33710  0.08430  0.86110  1.0000 -0.1697013983
C   C125      1.0  0.27750  0.42990  0.18400  1.0000 -0.1372915142
C   C126      1.0  0.57010  0.72250  0.18400  1.0000 -0.1372915142
C   C127      1.0  0.19560  0.02020  0.23860  1.0000 -0.0822571336
C   C128      1.0  0.97980  0.80440  0.23860  1.0000 -0.0822571336
C   C129      1.0  0.77110  0.74210  0.70570  1.0000 -0.1372915142
C   C130      1.0  0.25790  0.22890  0.70570  1.0000 -0.1372915142
C   C131      1.0  0.99980  0.68200  0.74910  1.0000 -0.1866469322
C   C132      1.0  0.31800  0.00020  0.74910  1.0000 -0.1866469322
C   C133      1.0  0.18940  0.07920  0.20610  1.0000 -0.1697013983
C   C134      1.0  0.92080  0.81060  0.20610  1.0000 -0.1697013983
C   C135      1.0  0.24940  0.22380  0.08690  1.0000 -0.1372915142
C   C136      1.0  0.77620  0.75060  0.08690  1.0000 -0.1372915142
C   C137      1.0  0.27230  0.03590  0.19790  1.0000 -0.0822571336
C   C138      1.0  0.96410  0.72770  0.19790  1.0000 -0.0822571336
C   C139      1.0  0.01020  0.73820  0.84200  1.0000 -0.1790583201
C   C140      1.0  0.26180  0.98980  0.84200  1.0000 -0.1790583201
C   C141      1.0  0.20010  0.27530  0.12230  1.0000 -0.1790583201
C   C142      1.0  0.72470  0.79990  0.12230  1.0000 -0.1697013983
C   C143      1.0  0.81510  0.65970  0.70280  1.0000 -0.1697013983
C   C144      1.0  0.34030  0.18490  0.70280  1.0000 -0.1697013983
C   C145      1.0  0.19960  0.21420  0.14990  1.0000 -0.1319761205
C   C146      1.0  0.78580  0.80040  0.14990  1.0000 -0.1319761205
C   C147      1.0  0.03610  0.73470  0.90160  1.0000 -0.1217588189
C   C148      1.0  0.26530  0.96390  0.90160  1.0000 -0.1217588189
C   C149      1.0  0.26990  0.09790  0.16520  1.0000 -0.1697013983
C   C150      1.0  0.90210  0.73010  0.16520  1.0000 -0.1697013983
C   C151      1.0  0.63110  0.67470  0.59550  1.0000 -0.1595467351
C   C152      1.0  0.32530  0.36890  0.59550  1.0000 -0.1595467351
C   C153      1.0  0.03140  0.68720  0.71340  1.0000 -0.1217588189
C   C154      1.0  0.31280  0.96860  0.71340  1.0000 -0.1217588189
C   C155      1.0  0.63710  0.73610  0.64810  1.0000 -0.151381334
C   C156      1.0  0.26390  0.36290  0.64810  1.0000 -0.151381334
C   C157      1.0  0.27410  0.39890  0.14820  1.0000 -0.1790583201
C   C158      1.0  0.60110  0.72590  0.14820  1.0000 -0.1790583201
C   C159      1.0  0.01900  0.49380  0.40950  1.0000 -0.5885125551
C   C160      1.0  0.50620  0.98100  0.40950  1.0000 -0.5885125551
C   C161      1.0  0.71340  0.47820  0.46670  1.0000 0.6277366724
C   C162      1.0  0.52180  0.28660  0.46670  1.0000 0.6277366724
C   C163      1.0  0.58360  0.24380  0.68380  1.0000 0.6277366724
C   C164      1.0  0.75620  0.41640  0.68380  1.0000 0.6277366724
C   C165      1.0  0.71090  0.12690  0.49970  1.0000 0.6194878143
C   C166      1.0  0.87310  0.28910  0.49970  1.0000 0.6194878143
C   C167      1.0  0.67730  0.11390  0.80580  1.0000 0.5463230309
C   C168      1.0  0.88610  0.32270  0.80580  1.0000 0.5463230309
C   C169      1.0  0.71080  0.54320  0.42980  1.0000 -0.0271649336
C   C170      1.0  0.45680  0.28920  0.42980  1.0000 -0.0271649336
C   C171      1.0  0.93380  0.24480  0.72250  1.0000 0.6194878143
C   C172      1.0  0.75520  0.06620  0.72250  1.0000 0.6194878143
C   C173      1.0  0.54250  0.29750  0.71550  1.0000 -0.095834697
C   C174      1.0  0.70250  0.45750  0.71550  1.0000 -0.095834697
C   C175      1.0  0.55350  0.24290  0.72440  1.0000 -0.0126087025
C   C176      1.0  0.75710  0.44650  0.72440  1.0000 -0.0126087025
C   C177      1.0  0.70210  0.85550  0.26740  1.0000 0.1598067728
C   C178      1.0  0.14450  0.29790  0.26740  1.0000 0.1598067728
C   C179      1.0  0.99830  0.23690  0.76380  1.0000 -0.0126087025
C   C180      1.0  0.76310  0.00170  0.76380  1.0000 -0.0126087025
C   C181      1.0  0.55080  0.07940  0.59790  1.0000 0.7285983857
C   C182      1.0  0.92060  0.44920  0.59790  1.0000 0.7285983857
C   C183      1.0  0.67960  0.57020  0.44010  1.0000 -0.0822571336
C   C184      1.0  0.42980  0.32040  0.44010  1.0000 -0.0822571336
C   C185      1.0  0.65850  0.75170  0.32670  1.0000 -0.1372915142
C   C186      1.0  0.24830  0.34150  0.32670  1.0000 -0.1372915142
C   C187      1.0  0.70200  0.73060  0.32590  1.0000 0.0620872419
C   C188      1.0  0.26940  0.29800  0.32590  1.0000 0.0620872419
C   C189      1.0  0.71300  0.09820  0.46140  1.0000 -0.045577966
C   C190      1.0  0.90180  0.28700  0.46140  1.0000 -0.045577966
C   C191      1.0  0.71390  0.01250  0.35000  1.0000 0.0620872419
C   C192      1.0  0.98750  0.28610  0.35000  1.0000 0.0620872419
C   C193      1.0  0.70310  0.66490  0.36030  1.0000 0.0692610733
C   C194      1.0  0.33510  0.29690  0.36030  1.0000 0.0692610733
C   C195      1.0  0.31230  0.22730  0.92160  1.0000 0.1675480488
C   C196      1.0  0.77270  0.68770  0.92160  1.0000 0.1675480488
C   C197      1.0  0.51630  0.19370  0.80930  1.0000 -0.1595467351
C   C198      1.0  0.80630  0.48370  0.80930  1.0000 -0.1595467351
C   C199      1.0  0.71280  0.04160  0.38720  1.0000 0.0692610733
C   C200      1.0  0.95840  0.28720  0.38720  1.0000 0.0692610733
C   C201      1.0  0.51940  0.29900  0.75450  1.0000 -0.1595467351
C   C202      1.0  0.70100  0.48060  0.75450  1.0000 -0.1595467351
C   C203      1.0  0.18790  0.22730  0.86470  1.0000 0.0692610733
C   C204      1.0  0.77270  0.81210  0.86470  1.0000 0.0692610733
C   C205      1.0  0.54170  0.19350  0.77010  1.0000 -0.0822571336
C   C206      1.0  0.80650  0.45830  0.77010  1.0000 -0.0822571336
C   C207      1.0  0.57730  0.22090  0.37950  1.0000 0.5341039595
C   C208      1.0  0.77910  0.42270  0.37950  1.0000 0.5341039595
C   C209      1.0  0.50370  0.24690  0.80130  1.0000 0.0782033561
C   C210      1.0  0.75310  0.49630  0.80130  1.0000 0.0692610733
C   C211      1.0  0.12230  0.23050  0.83130  1.0000 0.0854198483
C   C212      1.0  0.76950  0.87770  0.83130  1.0000 0.0854198483
C   C213      1.0  0.66470  0.09490  0.40620  1.0000 -0.0726234661
C   C214      1.0  0.90510  0.33530  0.40620  1.0000 -0.0726234661
C   C215      1.0  0.47440  0.24660  0.84030  1.0000 0.0517876107
C   C216      1.0  0.75340  0.52560  0.84030  1.0000 0.0517876107
C   C217      1.0  0.69500  0.00240  0.05850  1.0000 0.0620872419
C   C218      1.0  0.99760  0.30500  0.05850  1.0000 0.0620872419
C   C219      1.0  0.75990  0.07570  0.47610  1.0000 -0.0822571336
C   C220      1.0  0.92430  0.24010  0.47610  1.0000 -0.0822571336
C   C221      1.0  0.66170  0.94210  0.07940  1.0000 -0.1372915142
C   C222      1.0  0.05790  0.33830  0.07940  1.0000 -0.1372915142
C   C223      1.0  0.41120  0.23780  0.91260  1.0000 0.1675480488
C   C224      1.0  0.76220  0.58880  0.91260  1.0000 0.1675480488
C   C225      1.0  0.54620  0.22160  0.31380  1.0000 0.0023074794
C   C226      1.0  0.77840  0.45380  0.31380  1.0000 0.0023074794
C   C227      1.0  0.50170  0.17050  0.29540  1.0000 -0.0909119508
C   C228      1.0  0.82950  0.49830  0.29540  1.0000 -0.0909119508
C   C229      1.0  0.47660  0.17520  0.23470  1.0000 -0.151381334
C   C230      1.0  0.82480  0.52340  0.23470  1.0000 -0.151381334
C   C231      1.0  0.49610  0.23110  0.19230  1.0000 0.0782033561
C   C232      1.0  0.76890  0.50390  0.19230  1.0000 0.0782033561
C   C233      1.0  0.54060  0.28240  0.21070  1.0000 -0.1595467351
C   C234      1.0  0.71760  0.45940  0.21070  1.0000 -0.1595467351
C   C235      1.0  0.56580  0.27760  0.27140  1.0000 -0.0909119508
C   C236      1.0  0.72240  0.43420  0.27140  1.0000 -0.0909119508
C   C237      1.0  0.40909  0.23371  0.00769  1.0000 0.1598067728
C   C238      1.0  0.76629  0.59091  0.00769  1.0000 0.1675480488
C   C239      1.0  0.46220  0.28220  0.02220  1.0000 -0.1790583201
C   C240      1.0  0.71780  0.53780  0.02220  1.0000 -0.1790583201
C   C241      1.0  0.49120  0.28220  0.08160  1.0000 -0.1372915142
C   C242      1.0  0.71780  0.50880  0.08160  1.0000 -0.1372915142
C   C243      1.0  0.46700  0.23400  0.12654  1.0000 0.0692610733
C   C244      1.0  0.76600  0.53300  0.12654  1.0000 0.0692610733
C   C245      1.0  0.41390  0.18550  0.11200  1.0000 -0.1372915142
C   C246      1.0  0.81450  0.58610  0.11200  1.0000 -0.1372915142
C   C247      1.0  0.38500  0.18540  0.05260  1.0000 -0.1790583201
C   C248      1.0  0.81460  0.61500  0.05260  1.0000 -0.1790583201
C   C249      1.0  0.45700  0.20840  0.93640  1.0000 -0.1866469322
C   C250      1.0  0.79160  0.54300  0.93640  1.0000 -0.1866469322
C   C251      1.0  0.70050  0.94810  0.17890  1.0000 0.1598067728
C   C252      1.0  0.05190  0.29950  0.17890  1.0000 0.1598067728
C   C253      1.0  0.28490  0.24930  0.94150  1.0000 -0.1790583201
C   C254      1.0  0.75070  0.71510  0.94150  1.0000 -0.1790583201
C   C255      1.0  0.48790  0.21230  0.90130  1.0000 -0.1319761205
C   C256      1.0  0.78770  0.51210  0.90130  1.0000 -0.1319761205
C   C257      1.0  0.74150  0.83350  0.26450  1.0000 -0.1697013983
C   C258      1.0  0.16650  0.25850  0.26450  1.0000 -0.1697013983
C   C259      1.0  0.70850  0.95210  0.27620  1.0000 0.1675480488
C   C260      1.0  0.04790  0.29150  0.27620  1.0000 0.1675480488
C   C261      1.0  0.74100  0.93660  0.33700  1.0000 -0.1790583201
C   C262      1.0  0.06340  0.25900  0.33700  1.0000 -0.1790583201
C   C263      1.0  0.74250  0.96670  0.37320  1.0000 -0.1319761205
C   C264      1.0  0.03330  0.25750  0.37320  1.0000 -0.1319761205
C   C265      1.0  0.68430  0.08530  0.87208  1.0000 0.0023074794
C   C266      1.0  0.91470  0.31570  0.87208  1.0000 0.0023074794
C   C267      1.0  0.73031  0.11591  0.91340  1.0000 -0.0822571336
C   C268      1.0  0.88409  0.26969  0.91340  1.0000 -0.0909119508
C   C269      1.0  0.73440  0.08900  0.97400  1.0000 -0.1595467351
C   C270      1.0  0.91100  0.26560  0.97400  1.0000 -0.1595467351
C   C271      1.0  0.69250  0.03150  0.99321  1.0000 0.0782033561
C   C272      1.0  0.96850  0.30750  0.99321  1.0000 0.0782033561
C   C273      1.0  0.64649  0.00089  0.95190  1.0000 -0.1595467351
C   C274      1.0  0.99911  0.35351  0.95190  1.0000 -0.1595467351
C   C275      1.0  0.64240  0.02780  0.89130  1.0000 -0.095834697
C   C276      1.0  0.97220  0.35760  0.89130  1.0000 -0.095834697
C   C277      1.0  0.66580  0.06540  0.37080  1.0000 -0.1595467351
C   C278      1.0  0.93460  0.33420  0.37080  1.0000 -0.1595467351
C   C279      1.0  0.75960  0.04500  0.44020  1.0000 -0.151381334
C   C280      1.0  0.95500  0.24040  0.44020  1.0000 -0.151381334
C   C281      1.0  0.74170  0.57810  0.38740  1.0000 -0.0726234661
C   C282      1.0  0.42190  0.25830  0.38740  1.0000 -0.0726234661
C   C283      1.0  0.66290  0.91570  0.13890  1.0000 -0.1697013983
C   C284      1.0  0.08430  0.33710  0.13890  1.0000 -0.1697013983
C   C285      1.0  0.42990  0.27750  0.81600  1.0000 -0.1372915142
C   C286      1.0  0.72250  0.57010  0.81600  1.0000 -0.1372915142
C   C287      1.0  0.02020  0.19560  0.76140  1.0000 -0.0822571336
C   C288      1.0  0.80440  0.97980  0.76140  1.0000 -0.0822571336
C   C289      1.0  0.74210  0.77110  0.29430  1.0000 -0.1372915142
C   C290      1.0  0.22890  0.25790  0.29430  1.0000 -0.1372915142
C   C291      1.0  0.68200  0.99980  0.25090  1.0000 -0.1866469322
C   C292      1.0  0.00020  0.31800  0.25090  1.0000 -0.1866469322
C   C293      1.0  0.07920  0.18940  0.79390  1.0000 -0.1697013983
C   C294      1.0  0.81060  0.92080  0.79390  1.0000 -0.1697013983
C   C295      1.0  0.22380  0.24940  0.91310  1.0000 -0.1372915142
C   C296      1.0  0.75060  0.77620  0.91310  1.0000 -0.1372915142
C   C297      1.0  0.03590  0.27230  0.80210  1.0000 -0.0822571336
C   C298      1.0  0.72770  0.96410  0.80210  1.0000 -0.0822571336
C   C299      1.0  0.73820  0.01020  0.15800  1.0000 -0.1790583201
C   C300      1.0  0.98980  0.26180  0.15800  1.0000 -0.1790583201
C   C301      1.0  0.27530  0.20010  0.87770  1.0000 -0.1790583201
C   C302      1.0  0.79990  0.72470  0.87770  1.0000 -0.1790583201
C   C303      1.0  0.65970  0.81510  0.29720  1.0000 -0.1697013983
C   C304      1.0  0.18490  0.34030  0.29720  1.0000 -0.1697013983
C   C305      1.0  0.21420  0.19960  0.85010  1.0000 -0.1319761205
C   C306      1.0  0.80040  0.78580  0.85010  1.0000 -0.1319761205
C   C307      1.0  0.73470  0.03610  0.09840  1.0000 -0.1217588189
C   C308      1.0  0.96390  0.26530  0.09840  1.0000 -0.1217588189
C   C309      1.0  0.09790  0.26990  0.83480  1.0000 -0.1697013983
C   C310      1.0  0.73010  0.90210  0.83480  1.0000 -0.1697013983
C   C311      1.0  0.67470  0.63110  0.40450  1.0000 -0.1595467351
C   C312      1.0  0.36890  0.32530  0.40450  1.0000 -0.1595467351
C   C313      1.0  0.68720  0.03140  0.28660  1.0000 -0.1217588189
C   C314      1.0  0.96860  0.31280  0.28660  1.0000 -0.1217588189
C   C315      1.0  0.73610  0.63710  0.35190  1.0000 -0.151381334
C   C316      1.0  0.36290  0.26390  0.35190  1.0000 -0.151381334
C   C317      1.0  0.39890  0.27410  0.85180  1.0000 -0.1790583201
C   C318      1.0  0.72590  0.60110  0.85180  1.0000 -0.1790583201
C   C319      1.0  0.49380  0.01900  0.59050  1.0000 -0.5885125551
C   C320      1.0  0.98100  0.50620  0.59050  1.0000 -0.5885125551
N   N1        1.0  0.91930  0.70430  0.75940  1.0000 -0.1595467351
N   N2        1.0  0.29570  0.08070  0.75940  1.0000 -0.1595467351
N   N3        1.0  0.23130  0.37650  0.05220  1.0000 -0.1697013983
N   N4        1.0  0.62350  0.76870  0.05220  1.0000 -0.1697013983
N   N5        1.0  0.70430  0.91930  0.24060  1.0000 -0.1595467351
N   N6        1.0  0.08070  0.29570  0.24060  1.0000 -0.1595467351
N   N7        1.0  0.37650  0.23130  0.94780  1.0000 -0.1697013983
N   N8        1.0  0.76870  0.62350  0.94780  1.0000 -0.1697013983
O   O1        1.0  0.22218  0.77782  0.32560  1.0000 -1.042622954
O   O2        1.0  0.31226  0.85184  0.39710  1.0000 -0.9679152075
O   O3        1.0  0.14816  0.68774  0.39710  1.0000 -0.9585680468
O   O4        1.0  0.44647  0.68033  0.49910  1.0000 -0.5707167251
O   O5        1.0  0.31967  0.55353  0.49910  1.0000 -0.5753345791
O   O6        1.0  0.29276  0.59064  0.36150  1.0000 -0.5995996895
O   O7        1.0  0.40936  0.70724  0.36150  1.0000 -0.5995996895
O   O8        1.0  0.23896  0.64156  0.41493  1.0000 -1.0525104307
O   O9        1.0  0.35844  0.76104  0.41493  1.0000 -1.0525104307
O   O10       1.0  0.20948  0.90332  0.31000  1.0000 -0.5707167251
O   O11       1.0  0.09668  0.79052  0.31000  1.0000 -0.5707167251
O   O12       1.0  0.33125  0.66875  0.51600  1.0000 -0.9096823437
O   O13       1.0  0.13124  0.75576  0.45400  1.0000 -0.5707167251
O   O14       1.0  0.24424  0.86876  0.45400  1.0000 -0.5707167251
O   O15       1.0  0.25709  0.74291  0.47140  1.0000 -1.0525104307
O   O16       1.0  0.08751  0.63409  0.23080  1.0000 -0.539863475
O   O17       1.0  0.36591  0.91249  0.23080  1.0000 -0.539863475
O   O18       1.0  0.14780  0.66480  0.51840  1.0000 -0.5707167251
O   O19       1.0  0.33520  0.85220  0.51840  1.0000 -0.5707167251
O   O20       1.0  0.28276  0.71724  0.31760  1.0000 -0.9096823437
O   O21       1.0  0.19551  0.59669  0.30390  1.0000 -0.539863475
O   O22       1.0  0.40331  0.80449  0.30390  1.0000 -0.539863475
O   O23       1.0  0.09590  0.57590  0.35760  1.0000 -0.5281734569
O   O24       1.0  0.42410  0.90410  0.35760  1.0000 -0.5281734569
O   O25       1.0  0.11760  0.55520  0.46260  1.0000 -0.6711622032
O   O26       1.0  0.44480  0.88240  0.46260  1.0000 -0.6711622032
O   O27       1.0  0.46096  0.75304  0.53540  1.0000 -0.5501566383
O   O28       1.0  0.24696  0.53904  0.53540  1.0000 -0.5501566383
O   O29       1.0  0.27771  0.91589  0.26880  1.0000 -0.5241396489
O   O30       1.0  0.08411  0.72229  0.26880  1.0000 -0.5241396489
O   O31       1.0  0.16568  0.71792  0.21060  1.0000 -0.5501566383
O   O32       1.0  0.28208  0.83432  0.21060  1.0000 -0.5501566383
O   O33       1.0  0.26274  0.61926  0.60490  1.0000 -0.4687598575
O   O34       1.0  0.38074  0.73726  0.60490  1.0000 -0.4687598575
O   O35       1.0  0.17210  0.55130  0.58290  1.0000 -0.5501566383
O   O36       1.0  0.44870  0.82790  0.58290  1.0000 -0.5501566383
O   O37       1.0  0.77782  0.22218  0.67440  1.0000 -1.042622954
O   O38       1.0  0.85184  0.31226  0.60290  1.0000 -0.9585680468
O   O39       1.0  0.68774  0.14816  0.60290  1.0000 -0.9585680468
O   O40       1.0  0.68033  0.44647  0.50090  1.0000 -0.5707167251
O   O41       1.0  0.55353  0.31967  0.50090  1.0000 -0.5707167251
O   O42       1.0  0.59064  0.29276  0.63850  1.0000 -0.5995996895
O   O43       1.0  0.70724  0.40936  0.63850  1.0000 -0.5995996895
O   O44       1.0  0.64156  0.23896  0.58507  1.0000 -1.0525104307
O   O45       1.0  0.76104  0.35844  0.58507  1.0000 -1.0525104307
O   O46       1.0  0.90332  0.20948  0.69000  1.0000 -0.5707167251
O   O47       1.0  0.79052  0.09668  0.69000  1.0000 -0.5707167251
O   O48       1.0  0.66875  0.33125  0.48400  1.0000 -0.9185958806
O   O49       1.0  0.75576  0.13124  0.54600  1.0000 -0.5707167251
O   O50       1.0  0.86876  0.24424  0.54600  1.0000 -0.5707167251
O   O51       1.0  0.74291  0.25709  0.52860  1.0000 -1.0525104307
O   O52       1.0  0.63409  0.08751  0.76920  1.0000 -0.539863475
O   O53       1.0  0.91249  0.36591  0.76920  1.0000 -0.539863475
O   O54       1.0  0.66480  0.14780  0.48160  1.0000 -0.5707167251
O   O55       1.0  0.85220  0.33520  0.48160  1.0000 -0.5707167251
O   O56       1.0  0.71724  0.28276  0.68240  1.0000 -0.9096823437
O   O57       1.0  0.59669  0.19551  0.69610  1.0000 -0.539863475
O   O58       1.0  0.80449  0.40331  0.69610  1.0000 -0.539863475
O   O59       1.0  0.57590  0.09590  0.64240  1.0000 -0.5281734569
O   O60       1.0  0.90410  0.42410  0.64240  1.0000 -0.5241396489
O   O61       1.0  0.55520  0.11760  0.53740  1.0000 -0.6711622032
O   O62       1.0  0.88240  0.44480  0.53740  1.0000 -0.6711622032
O   O63       1.0  0.75304  0.46096  0.46460  1.0000 -0.5501566383
O   O64       1.0  0.53904  0.24696  0.46460  1.0000 -0.5501566383
O   O65       1.0  0.91589  0.27771  0.73120  1.0000 -0.5241396489
O   O66       1.0  0.72229  0.08411  0.73120  1.0000 -0.5241396489
O   O67       1.0  0.71792  0.16568  0.78940  1.0000 -0.5501566383
O   O68       1.0  0.83432  0.28208  0.78940  1.0000 -0.5501566383
O   O69       1.0  0.61926  0.26274  0.39510  1.0000 -0.4687598575
O   O70       1.0  0.73726  0.38074  0.39510  1.0000 -0.4687598575
O   O71       1.0  0.55130  0.17210  0.41710  1.0000 -0.5501566383
O   O72       1.0  0.82790  0.44870  0.41710  1.0000 -0.5501566383
