# DDEC6 charges by PACMAN v1.1 (https://github.com/mtap-research/PACMAN-charge/)
data_2024[Co][nan]3[ASR]3
_chemical_formula_sum              "Co8 H56 C80 N32 O12"
_cell_length_a       20.888
_cell_length_b       20.888
_cell_length_c       20.888
_cell_angle_alpha    161.056
_cell_angle_beta     105.047
_cell_angle_gamma    78.1442

_symmetry_space_group_name_H-M    "P 1"
_symmetry_Int_Tables_number       1

loop_
  _symmetry_equiv_pos_as_xyz
  'x, y, z'

loop_
  _atom_site_type_symbol
  _atom_site_label
  _atom_site_symmetry_multiplicity
  _atom_site_fract_x
  _atom_site_fract_y
  _atom_site_fract_z
  _atom_site_occupancy
  _atom_site_charge
Co  Co1       1.0  0.99596  0.37568  0.86506  1.0000 0.7948648071
Co  Co2       1.0  0.00404  0.86910  0.37972  1.0000 0.7948648071
Co  Co3       1.0  0.48938  0.36910  0.36506  1.0000 0.7948648071
Co  Co4       1.0  0.51062  0.87568  0.87972  1.0000 0.7948648071
Co  Co5       1.0  0.12383  0.22701  0.66772  1.0000 0.722161982
Co  Co6       1.0  0.87617  0.54389  0.10318  1.0000 0.722161982
Co  Co7       1.0  0.44071  0.04389  0.16772  1.0000 0.722161982
Co  Co8       1.0  0.55929  0.72701  0.60318  1.0000 0.7259937858
H   H1        1.0  0.39932  0.35925  0.19383  1.0000 0.1107674053
H   H2        1.0  0.60068  0.79451  0.95993  1.0000 0.1107674053
H   H3        1.0  0.83458  0.29451  0.69383  1.0000 0.1107674053
H   H4        1.0  0.16542  0.85925  0.45993  1.0000 0.1107674053
H   H5        1.0  0.20032  0.32400  0.64910  1.0000 0.1048365717
H   H6        1.0  0.79968  0.44878  0.12368  1.0000 0.1048365717
H   H7        1.0  0.32510  0.94878  0.14910  1.0000 0.1048365717
H   H8        1.0  0.67490  0.82400  0.62368  1.0000 0.1048365717
H   H9        1.0  0.10926  0.35042  0.04814  1.0000 0.1200216845
H   H10       1.0  0.89074  0.93888  0.24116  1.0000 0.1200216845
H   H11       1.0  0.69772  0.43888  0.54814  1.0000 0.1200216845
H   H12       1.0  0.30228  0.85042  0.74116  1.0000 0.1200216845
H   H13       1.0  0.17745  0.34379  0.14638  1.0000 0.1200216845
H   H14       1.0  0.82255  0.96893  0.16634  1.0000 0.1200216845
H   H15       1.0  0.80259  0.46893  0.64638  1.0000 0.1200216845
H   H16       1.0  0.19741  0.84379  0.66634  1.0000 0.1200216845
H   H17       1.0  0.24592  0.37323  0.61667  1.0000 0.1200216845
H   H18       1.0  0.75408  0.37075  0.12731  1.0000 0.1200216845
H   H19       1.0  0.24344  0.87075  0.11667  1.0000 0.1200216845
H   H20       1.0  0.75656  0.87323  0.62731  1.0000 0.1200216845
H   H21       1.0  0.28442  0.31633  0.82937  1.0000 0.1291319316
H   H22       1.0  0.71558  0.54495  0.03191  1.0000 0.1291319316
H   H23       1.0  0.51304  0.04495  0.32937  1.0000 0.1291319316
H   H24       1.0  0.48696  0.81633  0.53191  1.0000 0.1291319316
H   H25       1.0  0.29774  0.42162  0.57586  1.0000 0.1107674053
H   H26       1.0  0.70226  0.27812  0.12388  1.0000 0.1107674053
H   H27       1.0  0.15424  0.77812  0.07586  1.0000 0.1107674053
H   H28       1.0  0.84576  0.92162  0.62388  1.0000 0.1107674053
H   H29       1.0  0.23727  0.30947  0.21578  1.0000 0.1200216845
H   H30       1.0  0.76273  0.97851  0.07220  1.0000 0.1200216845
H   H31       1.0  0.90631  0.47851  0.71578  1.0000 0.1200216845
H   H32       1.0  0.09369  0.80947  0.57220  1.0000 0.1200216845
H   H33       1.0  0.42395  0.47716  0.84613  1.0000 0.1200216845
H   H34       1.0  0.57605  0.42218  0.05321  1.0000 0.1200216845
H   H35       1.0  0.36897  0.92218  0.34613  1.0000 0.1200216845
H   H36       1.0  0.63103  0.97716  0.55321  1.0000 0.1200216845
H   H37       1.0  0.37276  0.39810  0.85420  1.0000 0.1200216845
H   H38       1.0  0.62724  0.48144  0.02534  1.0000 0.1200216845
H   H39       1.0  0.45610  0.98144  0.35420  1.0000 0.1200216845
H   H40       1.0  0.54390  0.89810  0.52534  1.0000 0.1200216845
H   H41       1.0  0.33487  0.33809  0.33367  1.0000 0.1200216845
H   H42       1.0  0.66513  0.99880  0.00321  1.0000 0.1200216845
H   H43       1.0  0.99559  0.49881  0.83368  1.0000 0.1200216845
H   H44       1.0  0.00441  0.83808  0.50321  1.0000 0.1200216845
H   H45       1.0  0.26593  0.30486  0.93067  1.0000 0.1107674053
H   H46       1.0  0.73407  0.66474  0.03893  1.0000 0.1107674053
H   H47       1.0  0.62581  0.16474  0.43067  1.0000 0.1107674053
H   H48       1.0  0.37419  0.80486  0.53893  1.0000 0.1107674053
H   H49       1.0  0.33510  0.30530  0.03852  1.0000 0.1200216845
H   H50       1.0  0.66490  0.70342  0.97020  1.0000 0.1200216845
H   H51       1.0  0.73322  0.20342  0.53852  1.0000 0.1200216845
H   H52       1.0  0.26678  0.80530  0.47020  1.0000 0.1200216845
H   H53       1.0  0.47382  0.52432  0.80308  1.0000 0.1200216845
H   H54       1.0  0.52618  0.32926  0.05050  1.0000 0.1200216845
H   H55       1.0  0.27876  0.82926  0.30308  1.0000 0.1200216845
H   H56       1.0  0.72124  0.02432  0.55050  1.0000 0.1200216845
C   C1        1.0  0.42233  0.52783  0.67830  1.0000 0.2657777702
C   C2        1.0  0.57767  0.25597  0.10550  1.0000 0.2657777702
C   C3        1.0  0.15047  0.75597  0.17830  1.0000 0.2657777702
C   C4        1.0  0.84953  0.02783  0.60550  1.0000 0.2657777702
C   C5        1.0  0.37150  0.35190  0.21540  1.0000 0.1291319316
C   C6        1.0  0.62850  0.84390  0.98040  1.0000 0.1291319316
C   C7        1.0  0.86350  0.34390  0.71540  1.0000 0.1291319316
C   C8        1.0  0.13650  0.85190  0.48040  1.0000 0.1291319316
C   C9        1.0  0.23242  0.32982  0.69500  1.0000 0.0863657964
C   C10       1.0  0.76758  0.46258  0.09740  1.0000 0.0863657964
C   C11       1.0  0.36518  0.96258  0.19500  1.0000 0.0863657964
C   C12       1.0  0.63482  0.82982  0.59740  1.0000 0.0863657964
C   C13       1.0  0.15410  0.33570  0.04020  1.0000 -0.0862751195
C   C14       1.0  0.84590  0.88610  0.18160  1.0000 -0.0862751195
C   C15       1.0  0.70450  0.38610  0.54020  1.0000 -0.0862751195
C   C16       1.0  0.29550  0.83570  0.68160  1.0000 -0.0862751195
C   C17       1.0  0.39149  0.48749  0.69640  1.0000 0.0230945682
C   C18       1.0  0.60851  0.30491  0.09600  1.0000 0.0230945682
C   C19       1.0  0.20891  0.80491  0.19640  1.0000 0.0230945682
C   C20       1.0  0.79109  0.98749  0.59600  1.0000 0.0230945682
C   C21       1.0  0.33149  0.41489  0.73060  1.0000 0.1380658632
C   C22       1.0  0.66851  0.39911  0.08340  1.0000 0.1380658632
C   C23       1.0  0.31571  0.89911  0.23060  1.0000 0.1380658632
C   C24       1.0  0.68429  0.91489  0.58340  1.0000 0.1380658632
C   C25       1.0  0.19510  0.33600  0.10270  1.0000 -0.1975304301
C   C26       1.0  0.80490  0.90760  0.14090  1.0000 -0.1975304301
C   C27       1.0  0.76670  0.40760  0.60270  1.0000 -0.1975304301
C   C28       1.0  0.23330  0.83600  0.64090  1.0000 -0.1975304301
C   C29       1.0  0.26280  0.32490  0.10250  1.0000 0.1622459775
C   C30       1.0  0.73720  0.83970  0.06210  1.0000 0.1622459775
C   C31       1.0  0.77760  0.33970  0.60250  1.0000 0.1622459775
C   C32       1.0  0.22240  0.82490  0.56210  1.0000 0.1622459775
C   C33       1.0  0.29210  0.40270  0.65360  1.0000 -0.2199856343
C   C34       1.0  0.70790  0.36150  0.11060  1.0000 -0.2199856343
C   C35       1.0  0.25090  0.86150  0.15360  1.0000 -0.2199856343
C   C36       1.0  0.74910  0.90270  0.61060  1.0000 -0.2199856343
C   C37       1.0  0.27860  0.32670  0.79370  1.0000 -0.0297157758
C   C38       1.0  0.72140  0.51510  0.04810  1.0000 -0.0297157758
C   C39       1.0  0.46700  0.01510  0.29370  1.0000 -0.0297157758
C   C40       1.0  0.53300  0.82670  0.54810  1.0000 -0.0297157758
C   C41       1.0  0.32310  0.43520  0.63250  1.0000 -0.1407402645
C   C42       1.0  0.67690  0.30940  0.11210  1.0000 -0.1407402645
C   C43       1.0  0.19730  0.80940  0.13250  1.0000 -0.1407402645
C   C44       1.0  0.80270  0.93520  0.61210  1.0000 -0.1407402645
C   C45       1.0  0.28140  0.32350  0.22630  1.0000 -0.1306018087
C   C46       1.0  0.71860  0.94490  0.04210  1.0000 -0.1306018087
C   C47       1.0  0.90280  0.44490  0.72630  1.0000 -0.1306018087
C   C48       1.0  0.09720  0.82350  0.54210  1.0000 -0.1306018087
C   C49       1.0  0.39780  0.46430  0.79030  1.0000 -0.2054006273
C   C50       1.0  0.60220  0.39250  0.06650  1.0000 -0.2054006273
C   C51       1.0  0.32600  0.89250  0.29030  1.0000 -0.2054006273
C   C52       1.0  0.67400  0.96430  0.56650  1.0000 -0.2054006273
C   C53       1.0  0.13420  0.30500  0.88780  1.0000 0.551793549
C   C54       1.0  0.86580  0.75360  0.17080  1.0000 0.551793549
C   C55       1.0  0.58280  0.25360  0.38780  1.0000 0.551793549
C   C56       1.0  0.41720  0.80500  0.67080  1.0000 0.551793549
C   C57       1.0  0.32740  0.37200  0.80820  1.0000 -0.1200865193
C   C58       1.0  0.67260  0.48080  0.04460  1.0000 -0.1200865193
C   C59       1.0  0.43620  0.98080  0.30820  1.0000 -0.1200865193
C   C60       1.0  0.56380  0.87200  0.54460  1.0000 -0.1200865193
C   C61       1.0  0.33510  0.33980  0.29090  1.0000 -0.0218937043
C   C62       1.0  0.66490  0.95580  0.00470  1.0000 -0.0218937043
C   C63       1.0  0.95110  0.45580  0.79090  1.0000 -0.0218937043
C   C64       1.0  0.04890  0.83980  0.50470  1.0000 -0.0218937043
C   C65       1.0  0.17930  0.31330  0.96400  1.0000 -0.0489586817
C   C66       1.0  0.82070  0.78470  0.13400  1.0000 -0.0489586817
C   C67       1.0  0.65070  0.28470  0.46400  1.0000 -0.0489586817
C   C68       1.0  0.34930  0.81330  0.63400  1.0000 -0.0489586817
C   C69       1.0  0.24770  0.30930  0.97100  1.0000 -0.103813898
C   C70       1.0  0.75230  0.72330  0.06160  1.0000 -0.103813898
C   C71       1.0  0.66170  0.22330  0.47100  1.0000 -0.103813898
C   C72       1.0  0.33830  0.80930  0.56160  1.0000 -0.103813898
C   C73       1.0  0.28960  0.31210  0.03810  1.0000 -0.1975304301
C   C74       1.0  0.71040  0.74850  0.02250  1.0000 -0.1975304301
C   C75       1.0  0.72600  0.24850  0.53810  1.0000 -0.1975304301
C   C76       1.0  0.27400  0.81210  0.52250  1.0000 -0.1975304301
C   C77       1.0  0.42760  0.49630  0.76750  1.0000 -0.1200865193
C   C78       1.0  0.57240  0.33990  0.06870  1.0000 -0.1200865193
C   C79       1.0  0.27120  0.83990  0.26750  1.0000 -0.1200865193
C   C80       1.0  0.72880  0.99630  0.56870  1.0000 -0.1200865193
N   N1        1.0  0.44716  0.70726  0.83230  1.0000 -0.2719049568
N   N2        1.0  0.55284  0.38514  0.26010  1.0000 -0.2719049568
N   N3        1.0  0.12504  0.88514  0.33230  1.0000 -0.2719049568
N   N4        1.0  0.87496  0.20726  0.76010  1.0000 -0.2719049568
N   N5        1.0  0.42870  0.38820  0.50490  1.0000 -0.2719049568
N   N6        1.0  0.57130  0.07620  0.95950  1.0000 -0.2719049568
N   N7        1.0  0.11670  0.57620  0.00490  1.0000 -0.2719049568
N   N8        1.0  0.88330  0.88820  0.45950  1.0000 -0.2719049568
N   N9        1.0  0.21845  0.29685  0.72000  1.0000 -0.2859071756
N   N10       1.0  0.78155  0.50155  0.07840  1.0000 -0.2859071756
N   N11       1.0  0.42315  0.00155  0.22000  1.0000 -0.2859071756
N   N12       1.0  0.57685  0.79685  0.57840  1.0000 -0.2859071756
N   N13       1.0  0.45645  0.48355  0.55110  1.0000 -0.0297157758
N   N14       1.0  0.54355  0.09465  0.02710  1.0000 -0.0297157758
N   N15       1.0  0.06755  0.59465  0.05110  1.0000 -0.0297157758
N   N16       1.0  0.93245  0.98355  0.52710  1.0000 -0.0297157758
N   N17       1.0  0.46689  0.67139  0.74350  1.0000 -0.0218937043
N   N18       1.0  0.53311  0.27661  0.20450  1.0000 -0.0218937043
N   N19       1.0  0.07211  0.77661  0.24350  1.0000 -0.0218937043
N   N20       1.0  0.92789  0.17139  0.70450  1.0000 -0.0218937043
N   N21       1.0  0.30396  0.33136  0.17480  1.0000 -0.0218937043
N   N22       1.0  0.69604  0.87084  0.02740  1.0000 -0.0218937043
N   N23       1.0  0.84344  0.37084  0.67480  1.0000 -0.0218937043
N   N24       1.0  0.15656  0.83136  0.52740  1.0000 -0.0218937043
N   N25       1.0  0.39359  0.36049  0.28830  1.0000 -0.2623759995
N   N26       1.0  0.60641  0.89471  0.96690  1.0000 -0.2623759995
N   N27       1.0  0.92781  0.39471  0.78830  1.0000 -0.2623759995
N   N28       1.0  0.07219  0.86049  0.46690  1.0000 -0.2623759995
N   N29       1.0  0.29900  0.37370  0.74290  1.0000 -0.0018902516
N   N30       1.0  0.70100  0.44390  0.07470  1.0000 -0.0018902516
N   N31       1.0  0.36920  0.94390  0.24290  1.0000 -0.0018902516
N   N32       1.0  0.63080  0.87370  0.57470  1.0000 -0.0018902516
O   O1        1.0  0.02886  0.14732  0.60434  1.0000 -0.7040616537
O   O2        1.0  0.97114  0.57548  0.11846  1.0000 -0.7040616537
O   O3        1.0  0.45702  0.07548  0.10434  1.0000 -0.7040616537
O   O4        1.0  0.54298  0.64732  0.61846  1.0000 -0.7040616537
O   O5        1.0  0.07478  0.33544  0.91154  1.0000 -0.4817141557
O   O6        1.0  0.92522  0.83676  0.26066  1.0000 -0.4817141557
O   O7        1.0  0.57610  0.33676  0.41154  1.0000 -0.4817141557
O   O8        1.0  0.42390  0.83544  0.76066  1.0000 -0.4817141557
O   O9        1.0  0.15946  0.25839  0.79667  1.0000 -0.5450443292
O   O10       1.0  0.84054  0.63721  0.09893  1.0000 -0.5450443292
O   O11       1.0  0.53828  0.13721  0.29667  1.0000 -0.5450443292
O   O12       1.0  0.46172  0.75839  0.59893  1.0000 -0.5450443292
