# DDEC6 charges by PACMAN v1.1 (https://github.com/mtap-research/PACMAN-charge/)
data_2024[Cu][sql]2[ASR]2
_chemical_formula_sum              "Cu4 H48 C72 N8 O16"
_cell_length_a       9.8053
_cell_length_b       15.594
_cell_length_c       13.0691
_cell_angle_alpha    90
_cell_angle_beta     95.514
_cell_angle_gamma    90

_symmetry_space_group_name_H-M    "P 1"
_symmetry_Int_Tables_number       1

loop_
  _symmetry_equiv_pos_as_xyz
  'x, y, z'

loop_
  _atom_site_type_symbol
  _atom_site_label
  _atom_site_symmetry_multiplicity
  _atom_site_fract_x
  _atom_site_fract_y
  _atom_site_fract_z
  _atom_site_occupancy
  _atom_site_charge
Cu  Cu1       1.0  0.36155  0.49890  0.56806  1.0000 0.7857335834
Cu  Cu2       1.0  0.63845  0.99890  0.93194  1.0000 0.7857335834
Cu  Cu3       1.0  0.63845  0.50110  0.43194  1.0000 0.7857335834
Cu  Cu4       1.0  0.36155  0.00110  0.06806  1.0000 0.7857335834
H   H1        1.0  0.65471  0.70127  0.51104  1.0000 0.1105151573
H   H2        1.0  0.34529  0.20127  0.98896  1.0000 0.1105151573
H   H3        1.0  0.34529  0.29873  0.48896  1.0000 0.1105151573
H   H4        1.0  0.65471  0.79873  0.01104  1.0000 0.1105151573
H   H5        1.0  0.31622  0.77056  0.32667  1.0000 0.1208816857
H   H6        1.0  0.68378  0.27056  0.17333  1.0000 0.1208816857
H   H7        1.0  0.68378  0.22944  0.67333  1.0000 0.1208816857
H   H8        1.0  0.31622  0.72944  0.82667  1.0000 0.1208816857
H   H9        1.0  0.77663  0.81529  0.44633  1.0000 0.1105151573
H   H10       1.0  0.22337  0.31529  0.05367  1.0000 0.1105151573
H   H11       1.0  0.22337  0.18471  0.55367  1.0000 0.1105151573
H   H12       1.0  0.77663  0.68471  0.94633  1.0000 0.1105151573
H   H13       1.0  0.66929  0.90463  0.31857  1.0000 0.1105151573
H   H14       1.0  0.33071  0.40463  0.18143  1.0000 0.1105151573
H   H15       1.0  0.33071  0.09537  0.68143  1.0000 0.1105151573
H   H16       1.0  0.66929  0.59537  0.81857  1.0000 0.1105151573
H   H17       1.0  0.11469  0.49266  0.21176  1.0000 0.1288854527
H   H18       1.0  0.88531  0.99266  0.28824  1.0000 0.1288854527
H   H19       1.0  0.88531  0.50734  0.78824  1.0000 0.1288854527
H   H20       1.0  0.11469  0.00734  0.71176  1.0000 0.1288854527
H   H21       1.0  0.96073  0.31533  0.59090  1.0000 0.1532914468
H   H22       1.0  0.03927  0.81533  0.90910  1.0000 0.1532914468
H   H23       1.0  0.03927  0.68467  0.40910  1.0000 0.1532914468
H   H24       1.0  0.96073  0.18467  0.09090  1.0000 0.1532914468
H   H25       1.0  0.29600  0.52498  0.33471  1.0000 0.1208816857
H   H26       1.0  0.70400  0.02498  0.16529  1.0000 0.1208816857
H   H27       1.0  0.70400  0.47502  0.66529  1.0000 0.1208816857
H   H28       1.0  0.29600  0.97502  0.83471  1.0000 0.1208816857
H   H29       1.0  0.35213  0.41664  0.78015  1.0000 0.1208816857
H   H30       1.0  0.64787  0.91664  0.71985  1.0000 0.1208816857
H   H31       1.0  0.64787  0.58336  0.21985  1.0000 0.1208816857
H   H32       1.0  0.35213  0.08336  0.28015  1.0000 0.1208816857
H   H33       1.0  0.00661  0.27450  0.76393  1.0000 0.1288854527
H   H34       1.0  0.99339  0.77450  0.73607  1.0000 0.1288854527
H   H35       1.0  0.99339  0.72550  0.23607  1.0000 0.1288854527
H   H36       1.0  0.00661  0.22550  0.26393  1.0000 0.1288854527
H   H37       1.0  0.93038  0.36517  0.43200  1.0000 0.1532914468
H   H38       1.0  0.06962  0.86517  0.06800  1.0000 0.1532914468
H   H39       1.0  0.06962  0.63483  0.56800  1.0000 0.1532914468
H   H40       1.0  0.93038  0.13483  0.93200  1.0000 0.1532914468
H   H41       1.0  0.20460  0.32637  0.85980  1.0000 0.1288854527
H   H42       1.0  0.79540  0.82637  0.64020  1.0000 0.1288854527
H   H43       1.0  0.79540  0.67363  0.14020  1.0000 0.1288854527
H   H44       1.0  0.20460  0.17363  0.35980  1.0000 0.1288854527
H   H45       1.0  0.92819  0.41301  0.26077  1.0000 0.1288854527
H   H46       1.0  0.07181  0.91301  0.23923  1.0000 0.1288854527
H   H47       1.0  0.07181  0.58699  0.73923  1.0000 0.1288854527
H   H48       1.0  0.92819  0.08699  0.76077  1.0000 0.1288854527
C   C1        1.0  0.61097  0.73808  0.46006  1.0000 -0.1211813548
C   C2        1.0  0.38903  0.23808  0.03994  1.0000 -0.1211813548
C   C3        1.0  0.38903  0.26192  0.53994  1.0000 -0.1211813548
C   C4        1.0  0.61097  0.76192  0.96006  1.0000 -0.1211813548
C   C5        1.0  0.41004  0.77899  0.34997  1.0000 -0.1211813548
C   C6        1.0  0.58996  0.27899  0.15003  1.0000 -0.1211813548
C   C7        1.0  0.58996  0.22101  0.65003  1.0000 -0.1211813548
C   C8        1.0  0.41004  0.72101  0.84997  1.0000 -0.1211813548
C   C9        1.0  0.68369  0.80565  0.42132  1.0000 -0.1211813548
C   C10       1.0  0.31631  0.30565  0.07868  1.0000 -0.1211813548
C   C11       1.0  0.31631  0.19435  0.57868  1.0000 -0.1211813548
C   C12       1.0  0.68369  0.69435  0.92132  1.0000 -0.1211813548
C   C13       1.0  0.47392  0.72443  0.42404  1.0000 -0.0155537938
C   C14       1.0  0.52608  0.22443  0.07596  1.0000 -0.0155537938
C   C15       1.0  0.52608  0.27557  0.57596  1.0000 -0.0155537938
C   C16       1.0  0.47392  0.77557  0.92404  1.0000 -0.0155537938
C   C17       1.0  0.48243  0.84582  0.30968  1.0000 -0.0114185617
C   C18       1.0  0.51757  0.34582  0.19032  1.0000 -0.0114185617
C   C19       1.0  0.51757  0.15418  0.69032  1.0000 -0.0114185617
C   C20       1.0  0.48243  0.65418  0.80968  1.0000 -0.0114185617
C   C21       1.0  0.61948  0.85905  0.34569  1.0000 -0.1142305741
C   C22       1.0  0.38052  0.35905  0.15431  1.0000 -0.1142305741
C   C23       1.0  0.38052  0.14095  0.65431  1.0000 -0.1142305741
C   C24       1.0  0.61948  0.64095  0.84569  1.0000 -0.1142305741
C   C25       1.0  0.39091  0.65284  0.46299  1.0000 0.5642361669
C   C26       1.0  0.60909  0.15284  0.03701  1.0000 0.5642361669
C   C27       1.0  0.60909  0.34716  0.53701  1.0000 0.5642361669
C   C28       1.0  0.39091  0.84716  0.96299  1.0000 0.5642361669
C   C29       1.0  0.13255  0.38963  0.58799  1.0000 0.1633127956
C   C30       1.0  0.86745  0.88963  0.91201  1.0000 0.1633127956
C   C31       1.0  0.86745  0.61037  0.41201  1.0000 0.1633127956
C   C32       1.0  0.13255  0.11037  0.08799  1.0000 0.1633127956
C   C33       1.0  0.40998  0.89990  0.22639  1.0000 0.5435760049
C   C34       1.0  0.59002  0.39990  0.27361  1.0000 0.5435760049
C   C35       1.0  0.59002  0.10010  0.77361  1.0000 0.5435760049
C   C36       1.0  0.40998  0.60010  0.72639  1.0000 0.5435760049
C   C37       1.0  0.11716  0.41778  0.47950  1.0000 0.1532914468
C   C38       1.0  0.88284  0.91778  0.02050  1.0000 0.1532914468
C   C39       1.0  0.88284  0.58222  0.52050  1.0000 0.1532914468
C   C40       1.0  0.11716  0.08222  0.97950  1.0000 0.1532914468
C   C41       1.0  0.11328  0.47337  0.28061  1.0000 -0.1610020309
C   C42       1.0  0.88672  0.97337  0.21939  1.0000 -0.1610020309
C   C43       1.0  0.88672  0.52663  0.71939  1.0000 -0.1610020309
C   C44       1.0  0.11328  0.02663  0.78061  1.0000 -0.1610020309
C   C45       1.0  0.04043  0.33545  0.63077  1.0000 -0.1610020309
C   C46       1.0  0.95957  0.83545  0.86923  1.0000 -0.1610020309
C   C47       1.0  0.95957  0.66455  0.36923  1.0000 -0.1610020309
C   C48       1.0  0.04043  0.16455  0.13077  1.0000 -0.1610020309
C   C49       1.0  0.22110  0.49211  0.35416  1.0000 0.1105151573
C   C50       1.0  0.77890  0.99211  0.14584  1.0000 0.1105151573
C   C51       1.0  0.77890  0.50789  0.64584  1.0000 0.1105151573
C   C52       1.0  0.22110  0.00789  0.85416  1.0000 0.1105151573
C   C53       1.0  0.27184  0.39571  0.74173  1.0000 0.0980993519
C   C54       1.0  0.72816  0.89571  0.75827  1.0000 0.0980993519
C   C55       1.0  0.72816  0.60429  0.25827  1.0000 0.0980993519
C   C56       1.0  0.27184  0.10429  0.24173  1.0000 0.0980993519
C   C57       1.0  0.06769  0.31153  0.73296  1.0000 -0.0269369957
C   C58       1.0  0.93231  0.81153  0.76704  1.0000 -0.0269369957
C   C59       1.0  0.93231  0.68847  0.26704  1.0000 -0.0269369957
C   C60       1.0  0.06769  0.18847  0.23296  1.0000 -0.0269369957
C   C61       1.0  0.00463  0.39757  0.41060  1.0000 -0.1610020309
C   C62       1.0  0.99537  0.89757  0.08940  1.0000 -0.1610020309
C   C63       1.0  0.99537  0.60243  0.58940  1.0000 -0.1610020309
C   C64       1.0  0.00463  0.10243  0.91060  1.0000 -0.1610020309
C   C65       1.0  0.18463  0.34196  0.78969  1.0000 -0.1463369625
C   C66       1.0  0.81537  0.84196  0.71031  1.0000 -0.1463369625
C   C67       1.0  0.81537  0.65804  0.21031  1.0000 -0.1463369625
C   C68       1.0  0.18463  0.15804  0.28969  1.0000 -0.1463369625
C   C69       1.0  0.00352  0.42598  0.30956  1.0000 -0.0269369957
C   C70       1.0  0.99648  0.92598  0.19044  1.0000 -0.0269369957
C   C71       1.0  0.99648  0.57402  0.69044  1.0000 -0.0269369957
C   C72       1.0  0.00352  0.07402  0.80956  1.0000 -0.0269369957
N   N1        1.0  0.24644  0.41897  0.64318  1.0000 -0.2722018556
N   N2        1.0  0.75356  0.91897  0.85682  1.0000 -0.2722018556
N   N3        1.0  0.75356  0.58103  0.35682  1.0000 -0.2722018556
N   N4        1.0  0.24644  0.08103  0.14318  1.0000 -0.2722018556
N   N5        1.0  0.22265  0.46530  0.45144  1.0000 -0.2722018556
N   N6        1.0  0.77735  0.96530  0.04856  1.0000 -0.2722018556
N   N7        1.0  0.77735  0.53470  0.54856  1.0000 -0.2722018556
N   N8        1.0  0.22265  0.03470  0.95144  1.0000 -0.2722018556
O   O1        1.0  0.47405  0.96547  0.19520  1.0000 -0.5379126044
O   O2        1.0  0.52595  0.46547  0.30480  1.0000 -0.5379126044
O   O3        1.0  0.52595  0.03453  0.80480  1.0000 -0.5379126044
O   O4        1.0  0.47405  0.53453  0.69520  1.0000 -0.5379126044
O   O5        1.0  0.45852  0.58416  0.49188  1.0000 -0.5793578001
O   O6        1.0  0.54148  0.08416  0.00812  1.0000 -0.5793578001
O   O7        1.0  0.54148  0.41584  0.50812  1.0000 -0.5793578001
O   O8        1.0  0.45852  0.91584  0.99188  1.0000 -0.5793578001
O   O9        1.0  0.26624  0.66191  0.46386  1.0000 -0.5379126044
O   O10       1.0  0.73376  0.16191  0.03614  1.0000 -0.5379126044
O   O11       1.0  0.73376  0.33809  0.53614  1.0000 -0.5379126044
O   O12       1.0  0.26624  0.83809  0.96386  1.0000 -0.5379126044
O   O13       1.0  0.29317  0.87911  0.19034  1.0000 -0.5475289793
O   O14       1.0  0.70683  0.37911  0.30966  1.0000 -0.5475289793
O   O15       1.0  0.70683  0.12089  0.80966  1.0000 -0.5475289793
O   O16       1.0  0.29317  0.62089  0.69034  1.0000 -0.5475289793
