# DDEC6 charges by PACMAN v1.1 (https://github.com/mtap-research/PACMAN-charge/)
data_2024[Nd][sql]2[ASR]1
_chemical_formula_sum              "Nd4 H32 C38 N4 O28"
_cell_length_a       6.0356
_cell_length_b       26.7275
_cell_length_c       11.4561
_cell_angle_alpha    90
_cell_angle_beta     101.874
_cell_angle_gamma    90

_symmetry_space_group_name_H-M    "P 1"
_symmetry_Int_Tables_number       1

loop_
  _symmetry_equiv_pos_as_xyz
  'x, y, z'

loop_
  _atom_site_type_symbol
  _atom_site_label
  _atom_site_symmetry_multiplicity
  _atom_site_fract_x
  _atom_site_fract_y
  _atom_site_fract_z
  _atom_site_occupancy
  _atom_site_charge
Nd  Nd1       1.0  0.04345  0.06236  0.38817  1.0000 1.9777030398
Nd  Nd2       1.0  0.95655  0.56236  0.61183  1.0000 1.9777030398
Nd  Nd3       1.0  0.95655  0.93764  0.61183  1.0000 1.9777030398
Nd  Nd4       1.0  0.04345  0.43764  0.38817  1.0000 1.9777030398
H   H1        1.0  0.17607  0.97267  0.02272  1.0000 0.1075702583
H   H2        1.0  0.82393  0.47267  0.97728  1.0000 0.1075702583
H   H3        1.0  0.82393  0.02733  0.97728  1.0000 0.1075702583
H   H4        1.0  0.17607  0.52733  0.02272  1.0000 0.1075702583
H   H5        1.0  0.71314  0.89857  0.99137  1.0000 0.1075702583
H   H6        1.0  0.28686  0.39857  0.00863  1.0000 0.1075702583
H   H7        1.0  0.28686  0.10143  0.00863  1.0000 0.1075702583
H   H8        1.0  0.71314  0.60143  0.99137  1.0000 0.1075702583
H   H9        1.0  0.86563  0.90642  0.19173  1.0000 0.1356427272
H   H10       1.0  0.13437  0.40642  0.80827  1.0000 0.1356427272
H   H11       1.0  0.13437  0.09358  0.80827  1.0000 0.1356427272
H   H12       1.0  0.86563  0.59358  0.19173  1.0000 0.1356427272
H   H13       1.0  0.52070  0.20131  0.36828  1.0000 0.1330797871
H   H14       1.0  0.47930  0.70131  0.63172  1.0000 0.1330797871
H   H15       1.0  0.47930  0.79869  0.63172  1.0000 0.1330797871
H   H16       1.0  0.52070  0.29869  0.36828  1.0000 0.1330797871
H   H17       1.0  0.37893  0.20415  0.23763  1.0000 0.1190730681
H   H18       1.0  0.62107  0.70415  0.76237  1.0000 0.1190730681
H   H19       1.0  0.62107  0.79585  0.76237  1.0000 0.1190730681
H   H20       1.0  0.37893  0.29585  0.23763  1.0000 0.1190730681
H   H21       1.0  0.25676  0.25000  0.43661  1.0000 0.0873653566
H   H22       1.0  0.74324  0.75000  0.56339  1.0000 0.0873653566
H   H23       1.0  0.09850  0.25000  0.30972  1.0000 0.0833086682
H   H24       1.0  0.90150  0.75000  0.69028  1.0000 0.0833086682
H   H25       1.0  0.72000  0.07000  0.55100  1.0000 0.3437207987
H   H26       1.0  0.28000  0.57000  0.44900  1.0000 0.3437207987
H   H27       1.0  0.28000  0.93000  0.44900  1.0000 0.3437207987
H   H28       1.0  0.72000  0.43000  0.55100  1.0000 0.3437207987
H   H29       1.0  0.68000  0.09800  0.45700  1.0000 0.3102743378
H   H30       1.0  0.32000  0.59800  0.54300  1.0000 0.3102743378
H   H31       1.0  0.32000  0.90200  0.54300  1.0000 0.3102743378
H   H32       1.0  0.68000  0.40200  0.45700  1.0000 0.3102743378
C   C1        1.0  0.26500  0.99800  0.24890  1.0000 0.5792532613
C   C2        1.0  0.73500  0.49800  0.75110  1.0000 0.5792532613
C   C3        1.0  0.73500  0.00200  0.75110  1.0000 0.5792532613
C   C4        1.0  0.26500  0.50200  0.24890  1.0000 0.5792532613
C   C5        1.0  0.39750  0.96760  0.17870  1.0000 -0.0971481378
C   C6        1.0  0.60250  0.46760  0.82130  1.0000 -0.0971481378
C   C7        1.0  0.60250  0.03240  0.82130  1.0000 -0.0971481378
C   C8        1.0  0.39750  0.53240  0.17870  1.0000 -0.0971481378
C   C9        1.0  0.31660  0.95940  0.05750  1.0000 0.0748563906
C   C10       1.0  0.68340  0.45940  0.94250  1.0000 0.0748563906
C   C11       1.0  0.68340  0.04060  0.94250  1.0000 0.0748563906
C   C12       1.0  0.31660  0.54060  0.05750  1.0000 0.0748563906
C   C13       1.0  0.63100  0.91550  0.03920  1.0000 0.0873653566
C   C14       1.0  0.36900  0.41550  0.96080  1.0000 0.0873653566
C   C15       1.0  0.36900  0.08450  0.96080  1.0000 0.0873653566
C   C16       1.0  0.63100  0.58450  0.03920  1.0000 0.0873653566
C   C17       1.0  0.72520  0.92030  0.15940  1.0000 -0.1592845271
C   C18       1.0  0.27480  0.42030  0.84060  1.0000 -0.1592845271
C   C19       1.0  0.27480  0.07970  0.84060  1.0000 -0.1592845271
C   C20       1.0  0.72520  0.57970  0.15940  1.0000 -0.1592845271
C   C21       1.0  0.60500  0.94640  0.23010  1.0000 0.0195604128
C   C22       1.0  0.39500  0.44640  0.76990  1.0000 0.0195604128
C   C23       1.0  0.39500  0.05360  0.76990  1.0000 0.0195604128
C   C24       1.0  0.60500  0.55360  0.23010  1.0000 0.0195604128
C   C25       1.0  0.24590  0.15510  0.34110  1.0000 0.6283248489
C   C26       1.0  0.75410  0.65510  0.65890  1.0000 0.6283248489
C   C27       1.0  0.75410  0.84490  0.65890  1.0000 0.6283248489
C   C28       1.0  0.24590  0.34490  0.34110  1.0000 0.6283248489
C   C29       1.0  0.36800  0.20260  0.32080  1.0000 -0.3144448946
C   C30       1.0  0.63200  0.70260  0.67920  1.0000 -0.3144448946
C   C31       1.0  0.63200  0.79740  0.67920  1.0000 -0.3144448946
C   C32       1.0  0.36800  0.29740  0.32080  1.0000 -0.3144448946
C   C33       1.0  0.25500  0.25000  0.35180  1.0000 -0.1087588916
C   C34       1.0  0.74500  0.75000  0.64820  1.0000 -0.1087588916
C   C35       1.0  0.70720  0.94900  0.36300  1.0000 0.6283248489
C   C36       1.0  0.29280  0.44900  0.63700  1.0000 0.6283248489
C   C37       1.0  0.29280  0.05100  0.63700  1.0000 0.6283248489
C   C38       1.0  0.70720  0.55100  0.36300  1.0000 0.6283248489
N   N1        1.0  0.42850  0.93360  0.98810  1.0000 -0.2501544493
N   N2        1.0  0.57150  0.43360  0.01190  1.0000 -0.2501544493
N   N3        1.0  0.57150  0.06640  0.01190  1.0000 -0.2501544493
N   N4        1.0  0.42850  0.56640  0.98810  1.0000 -0.2501544493
O   O1        1.0  0.33300  0.99990  0.36140  1.0000 -0.6084612111
O   O2        1.0  0.66700  0.49990  0.63860  1.0000 -0.6084612111
O   O3        1.0  0.66700  0.00010  0.63860  1.0000 -0.6084612111
O   O4        1.0  0.33300  0.50010  0.36140  1.0000 -0.6084612111
O   O5        1.0  0.09160  0.02100  0.19640  1.0000 -0.6177143702
O   O6        1.0  0.90840  0.52100  0.80360  1.0000 -0.6177143702
O   O7        1.0  0.90840  0.97900  0.80360  1.0000 -0.6177143702
O   O8        1.0  0.09160  0.47900  0.19640  1.0000 -0.6177143702
O   O9        1.0  0.32150  0.11450  0.31100  1.0000 -0.6427571873
O   O10       1.0  0.67850  0.61450  0.68900  1.0000 -0.6427571873
O   O11       1.0  0.67850  0.88550  0.68900  1.0000 -0.6427571873
O   O12       1.0  0.32150  0.38550  0.31100  1.0000 -0.6427571873
O   O13       1.0  0.78070  0.08970  0.51310  1.0000 -0.7182167421
O   O14       1.0  0.21930  0.58970  0.48690  1.0000 -0.7182167421
O   O15       1.0  0.21930  0.91030  0.48690  1.0000 -0.7182167421
O   O16       1.0  0.78070  0.41030  0.51310  1.0000 -0.7182167421
O   O17       1.0  0.07550  0.15570  0.38660  1.0000 -0.6177143702
O   O18       1.0  0.92450  0.65570  0.61340  1.0000 -0.6177143702
O   O19       1.0  0.92450  0.84430  0.61340  1.0000 -0.6177143702
O   O20       1.0  0.07550  0.34430  0.38660  1.0000 -0.6177143702
O   O21       1.0  0.84360  0.98350  0.40350  1.0000 -0.7016440878
O   O22       1.0  0.15640  0.48350  0.59650  1.0000 -0.7016440878
O   O23       1.0  0.15640  0.01650  0.59650  1.0000 -0.7016440878
O   O24       1.0  0.84360  0.51650  0.40350  1.0000 -0.7016440878
O   O25       1.0  0.66830  0.91370  0.42610  1.0000 -0.5557369838
O   O26       1.0  0.33170  0.41370  0.57390  1.0000 -0.5557369838
O   O27       1.0  0.33170  0.08630  0.57390  1.0000 -0.5557369838
O   O28       1.0  0.66830  0.58630  0.42610  1.0000 -0.5557369838
