# DDEC6 charges by PACMAN v1.1 (https://github.com/mtap-research/PACMAN-charge/)
data_0000[Mn][nbo]3[FSR]1
_chemical_formula_sum              "Mn3 H54 C90 N6 O12 F18"
_cell_length_a       22.2003
_cell_length_b       22.2003
_cell_length_c       7.7298
_cell_angle_alpha    90
_cell_angle_beta     90
_cell_angle_gamma    120

_symmetry_space_group_name_H-M    "P 1"
_symmetry_Int_Tables_number       1

loop_
  _symmetry_equiv_pos_as_xyz
  'x, y, z'

loop_
  _atom_site_type_symbol
  _atom_site_label
  _atom_site_symmetry_multiplicity
  _atom_site_fract_x
  _atom_site_fract_y
  _atom_site_fract_z
  _atom_site_occupancy
  _atom_site_charge
Mn  Mn1       1.0  0.50000  0.00000  0.50000  1.0000 0.8773453488
Mn  Mn2       1.0  0.00000  0.50000  0.50000  1.0000 0.8773453488
Mn  Mn3       1.0  0.50000  0.50000  0.50000  1.0000 0.8773453488
H   H1        1.0  0.45660  0.83520  0.86860  1.0000 0.1127743862
H   H2        1.0  0.16480  0.62140  0.86860  1.0000 0.1127743862
H   H3        1.0  0.37860  0.54340  0.86860  1.0000 0.1127743862
H   H4        1.0  0.54340  0.16480  0.13140  1.0000 0.1127743862
H   H5        1.0  0.83520  0.37860  0.13140  1.0000 0.1127743862
H   H6        1.0  0.62140  0.45660  0.13140  1.0000 0.1127743862
H   H7        1.0  0.51500  0.61230  0.91530  1.0000 0.1380739167
H   H8        1.0  0.38770  0.90270  0.91530  1.0000 0.1380739167
H   H9        1.0  0.09730  0.48500  0.91530  1.0000 0.1380739167
H   H10       1.0  0.48500  0.38770  0.08470  1.0000 0.1380739167
H   H11       1.0  0.61230  0.09730  0.08470  1.0000 0.1380739167
H   H12       1.0  0.90270  0.51500  0.08470  1.0000 0.1380739167
H   H13       1.0  0.50580  0.53350  0.11550  1.0000 0.102519494
H   H14       1.0  0.46650  0.97230  0.11550  1.0000 0.102519494
H   H15       1.0  0.02770  0.49420  0.11550  1.0000 0.102519494
H   H16       1.0  0.49420  0.46650  0.88450  1.0000 0.102519494
H   H17       1.0  0.53350  0.02770  0.88450  1.0000 0.102519494
H   H18       1.0  0.97230  0.50580  0.88450  1.0000 0.102519494
H   H19       1.0  0.58900  0.86690  0.40710  1.0000 0.1320287713
H   H20       1.0  0.13310  0.72210  0.40710  1.0000 0.1320287713
H   H21       1.0  0.27790  0.41100  0.40710  1.0000 0.1320287713
H   H22       1.0  0.41100  0.13310  0.59290  1.0000 0.1320287713
H   H23       1.0  0.86690  0.27790  0.59290  1.0000 0.1320287713
H   H24       1.0  0.72210  0.58900  0.59290  1.0000 0.1320287713
H   H25       1.0  0.44100  0.74990  0.06040  1.0000 0.1166355925
H   H26       1.0  0.25010  0.69110  0.06040  1.0000 0.1166355925
H   H27       1.0  0.30890  0.55900  0.06040  1.0000 0.1166355925
H   H28       1.0  0.55900  0.25010  0.93960  1.0000 0.1166355925
H   H29       1.0  0.74990  0.30890  0.93960  1.0000 0.1166355925
H   H30       1.0  0.69110  0.44100  0.93960  1.0000 0.1166355925
H   H31       1.0  0.59460  0.80850  0.60470  1.0000 0.1166355925
H   H32       1.0  0.19150  0.78610  0.60470  1.0000 0.1166355925
H   H33       1.0  0.21390  0.40540  0.60470  1.0000 0.1166355925
H   H34       1.0  0.40540  0.19150  0.39530  1.0000 0.1166355925
H   H35       1.0  0.80850  0.21390  0.39530  1.0000 0.1166355925
H   H36       1.0  0.78610  0.59460  0.39530  1.0000 0.1166355925
H   H37       1.0  0.57520  0.71800  0.78650  1.0000 0.1166355925
H   H38       1.0  0.28200  0.85720  0.78650  1.0000 0.1166355925
H   H39       1.0  0.14280  0.42480  0.78650  1.0000 0.1166355925
H   H40       1.0  0.42480  0.28200  0.21350  1.0000 0.1166355925
H   H41       1.0  0.71800  0.14280  0.21350  1.0000 0.1166355925
H   H42       1.0  0.85720  0.57520  0.21350  1.0000 0.1166355925
H   H43       1.0  0.48820  0.71700  0.29650  1.0000 0.1320287713
H   H44       1.0  0.28300  0.77120  0.29650  1.0000 0.1320287713
H   H45       1.0  0.22880  0.51180  0.29650  1.0000 0.1320287713
H   H46       1.0  0.51180  0.28300  0.70350  1.0000 0.1320287713
H   H47       1.0  0.71700  0.22880  0.70350  1.0000 0.1320287713
H   H48       1.0  0.77120  0.48820  0.70350  1.0000 0.1320287713
H   H49       1.0  0.48780  0.63930  0.48240  1.0000 0.1127743862
H   H50       1.0  0.36070  0.84850  0.48240  1.0000 0.1127743862
H   H51       1.0  0.15150  0.51220  0.48240  1.0000 0.1127743862
H   H52       1.0  0.51220  0.36070  0.51760  1.0000 0.1127743862
H   H53       1.0  0.63930  0.15150  0.51760  1.0000 0.1127743862
H   H54       1.0  0.84850  0.48780  0.51760  1.0000 0.1127743862
C   C1        1.0  0.48180  0.81250  0.85450  1.0000 -0.1108600046
C   C2        1.0  0.18750  0.66930  0.85450  1.0000 -0.1108600046
C   C3        1.0  0.33070  0.51820  0.85450  1.0000 -0.1108600046
C   C4        1.0  0.51820  0.18750  0.14550  1.0000 -0.1108600046
C   C5        1.0  0.81250  0.33070  0.14550  1.0000 -0.1108600046
C   C6        1.0  0.66930  0.48180  0.14550  1.0000 -0.1108600046
C   C7        1.0  0.52810  0.83050  0.71250  1.0000 0.0061692094
C   C8        1.0  0.16950  0.69760  0.71250  1.0000 0.0061692094
C   C9        1.0  0.30240  0.47190  0.71250  1.0000 0.0061692094
C   C10       1.0  0.47190  0.16950  0.28750  1.0000 0.0061692094
C   C11       1.0  0.83050  0.30240  0.28750  1.0000 0.0061692094
C   C12       1.0  0.69760  0.52810  0.28750  1.0000 0.0061692094
C   C13       1.0  0.53540  0.88590  0.59200  1.0000 0.3955489252
C   C14       1.0  0.11410  0.64950  0.59200  1.0000 0.3955489252
C   C15       1.0  0.35050  0.46460  0.59200  1.0000 0.3955489252
C   C16       1.0  0.46460  0.11410  0.40800  1.0000 0.3955489252
C   C17       1.0  0.88590  0.35050  0.40800  1.0000 0.3955489252
C   C18       1.0  0.64950  0.53540  0.40800  1.0000 0.3955489252
C   C19       1.0  0.51040  0.62000  0.03150  1.0000 -0.1849186764
C   C20       1.0  0.38000  0.89040  0.03150  1.0000 -0.1849186764
C   C21       1.0  0.10960  0.48960  0.03150  1.0000 -0.1849186764
C   C22       1.0  0.48960  0.38000  0.96850  1.0000 -0.1849186764
C   C23       1.0  0.62000  0.10960  0.96850  1.0000 -0.1849186764
C   C24       1.0  0.89040  0.51040  0.96850  1.0000 -0.1849186764
C   C25       1.0  0.50590  0.57330  0.15380  1.0000 0.0866209708
C   C26       1.0  0.42670  0.93260  0.15380  1.0000 0.0866209708
C   C27       1.0  0.06740  0.49410  0.15380  1.0000 0.0866209708
C   C28       1.0  0.49410  0.42670  0.84620  1.0000 0.0866209708
C   C29       1.0  0.57330  0.06740  0.84620  1.0000 0.0866209708
C   C30       1.0  0.93260  0.50590  0.84620  1.0000 0.0866209708
C   C31       1.0  0.63350  0.95640  0.16730  1.0000 0.5918025329
C   C32       1.0  0.04360  0.67710  0.16730  1.0000 0.5918025329
C   C33       1.0  0.32290  0.36650  0.16730  1.0000 0.5918025329
C   C34       1.0  0.36650  0.04360  0.83270  1.0000 0.5918025329
C   C35       1.0  0.95640  0.32290  0.83270  1.0000 0.5918025329
C   C36       1.0  0.67710  0.63350  0.83270  1.0000 0.5918025329
C   C37       1.0  0.59270  0.95380  0.32380  1.0000 0.2073598459
C   C38       1.0  0.04620  0.63890  0.32380  1.0000 0.2073598459
C   C39       1.0  0.36110  0.40730  0.32380  1.0000 0.2073598459
C   C40       1.0  0.40730  0.04620  0.67620  1.0000 0.2073598459
C   C41       1.0  0.95380  0.36110  0.67620  1.0000 0.2073598459
C   C42       1.0  0.63890  0.59270  0.67620  1.0000 0.2073598459
C   C43       1.0  0.51400  0.73030  0.95390  1.0000 0.0715078455
C   C44       1.0  0.26970  0.78370  0.95390  1.0000 0.0715078455
C   C45       1.0  0.21630  0.48600  0.95390  1.0000 0.0715078455
C   C46       1.0  0.48600  0.26970  0.04610  1.0000 0.0715078455
C   C47       1.0  0.73030  0.21630  0.04610  1.0000 0.0715078455
C   C48       1.0  0.78370  0.51400  0.04610  1.0000 0.0715078455
C   C49       1.0  0.57460  0.89840  0.43580  1.0000 -0.4272964344
C   C50       1.0  0.10160  0.67620  0.43580  1.0000 -0.4272964344
C   C51       1.0  0.32380  0.42540  0.43580  1.0000 -0.4272964344
C   C52       1.0  0.42540  0.10160  0.56420  1.0000 -0.4272964344
C   C53       1.0  0.89840  0.32380  0.56420  1.0000 -0.4272964344
C   C54       1.0  0.67620  0.57460  0.56420  1.0000 -0.4272964344
C   C55       1.0  0.47320  0.76250  0.97120  1.0000 -0.1526452845
C   C56       1.0  0.23750  0.71070  0.97120  1.0000 -0.1526452845
C   C57       1.0  0.28930  0.52680  0.97120  1.0000 -0.1526452845
C   C58       1.0  0.52680  0.23750  0.02880  1.0000 -0.1526452845
C   C59       1.0  0.76250  0.28930  0.02880  1.0000 -0.1526452845
C   C60       1.0  0.71070  0.47320  0.02880  1.0000 -0.1526452845
C   C61       1.0  0.56310  0.79680  0.69530  1.0000 -0.1108600046
C   C62       1.0  0.20320  0.76630  0.69530  1.0000 -0.1108600046
C   C63       1.0  0.23370  0.43690  0.69530  1.0000 -0.1108600046
C   C64       1.0  0.43690  0.20320  0.30470  1.0000 -0.1108600046
C   C65       1.0  0.79680  0.23370  0.30470  1.0000 -0.1108600046
C   C66       1.0  0.76630  0.56310  0.30470  1.0000 -0.1108600046
C   C67       1.0  0.55390  0.74410  0.80950  1.0000 -0.1364616871
C   C68       1.0  0.25590  0.80980  0.80950  1.0000 -0.1364616871
C   C69       1.0  0.19020  0.44610  0.80950  1.0000 -0.1364616871
C   C70       1.0  0.44610  0.25590  0.19050  1.0000 -0.1364616871
C   C71       1.0  0.74410  0.19020  0.19050  1.0000 -0.1364616871
C   C72       1.0  0.80980  0.55390  0.19050  1.0000 -0.1364616871
C   C73       1.0  0.49550  0.68170  0.25640  1.0000 -0.2016884256
C   C74       1.0  0.31830  0.81380  0.25640  1.0000 -0.2016884256
C   C75       1.0  0.18620  0.50450  0.25640  1.0000 -0.2016884256
C   C76       1.0  0.50450  0.31830  0.74360  1.0000 -0.2016884256
C   C77       1.0  0.68170  0.18620  0.74360  1.0000 -0.2016884256
C   C78       1.0  0.81380  0.49550  0.74360  1.0000 -0.2016884256
C   C79       1.0  0.49440  0.63420  0.36560  1.0000 0.0715078455
C   C80       1.0  0.36580  0.86020  0.36560  1.0000 0.0715078455
C   C81       1.0  0.13980  0.50560  0.36560  1.0000 0.0715078455
C   C82       1.0  0.50560  0.36580  0.63440  1.0000 0.0715078455
C   C83       1.0  0.63420  0.13980  0.63440  1.0000 0.0715078455
C   C84       1.0  0.86020  0.49440  0.63440  1.0000 0.0715078455
C   C85       1.0  0.50790  0.67690  0.07970  1.0000 0.1166355925
C   C86       1.0  0.32310  0.83100  0.07970  1.0000 0.1166355925
C   C87       1.0  0.16900  0.49210  0.07970  1.0000 0.1166355925
C   C88       1.0  0.49210  0.32310  0.92030  1.0000 0.1166355925
C   C89       1.0  0.67690  0.16900  0.92030  1.0000 0.1166355925
C   C90       1.0  0.83100  0.50790  0.92030  1.0000 0.1166355925
N   N1        1.0  0.50180  0.58060  0.32140  1.0000 -0.2217811838
N   N2        1.0  0.41940  0.92120  0.32140  1.0000 -0.2217811838
N   N3        1.0  0.07880  0.49820  0.32140  1.0000 -0.2217811838
N   N4        1.0  0.49820  0.41940  0.67860  1.0000 -0.2217811838
N   N5        1.0  0.58060  0.07880  0.67860  1.0000 -0.2217811838
N   N6        1.0  0.92120  0.50180  0.67860  1.0000 -0.2217811838
O   O1        1.0  0.50480  0.91910  0.63640  1.0000 -0.4857064829
O   O2        1.0  0.08090  0.58570  0.63640  1.0000 -0.4857064829
O   O3        1.0  0.41430  0.49520  0.63640  1.0000 -0.4857064829
O   O4        1.0  0.49520  0.08090  0.36360  1.0000 -0.4857064829
O   O5        1.0  0.91910  0.41430  0.36360  1.0000 -0.4857064829
O   O6        1.0  0.58570  0.50480  0.36360  1.0000 -0.4857064829
O   O7        1.0  0.57750  0.00090  0.33260  1.0000 -0.4431459502
O   O8        1.0  0.99910  0.57660  0.33260  1.0000 -0.4431459502
O   O9        1.0  0.42340  0.42250  0.33260  1.0000 -0.4431459502
O   O10       1.0  0.42250  0.99910  0.66740  1.0000 -0.4431459502
O   O11       1.0  0.00090  0.42340  0.66740  1.0000 -0.4431459502
O   O12       1.0  0.57660  0.57750  0.66740  1.0000 -0.4431459502
F   F1        1.0  0.59970  0.95630  0.01980  1.0000 -0.2016884256
F   F2        1.0  0.04370  0.64340  0.01980  1.0000 -0.2016884256
F   F3        1.0  0.35660  0.40030  0.01980  1.0000 -0.2016884256
F   F4        1.0  0.40030  0.04370  0.98020  1.0000 -0.2016884256
F   F5        1.0  0.95630  0.35660  0.98020  1.0000 -0.2016884256
F   F6        1.0  0.64340  0.59970  0.98020  1.0000 -0.2016884256
F   F7        1.0  0.64860  0.90620  0.15110  1.0000 -0.2016884256
F   F8        1.0  0.09380  0.74240  0.15110  1.0000 -0.2016884256
F   F9        1.0  0.25760  0.35140  0.15110  1.0000 -0.2016884256
F   F10       1.0  0.35140  0.09380  0.84890  1.0000 -0.2016884256
F   F11       1.0  0.90620  0.25760  0.84890  1.0000 -0.2016884256
F   F12       1.0  0.74240  0.64860  0.84890  1.0000 -0.2072119311
F   F13       1.0  0.69250  0.01500  0.16250  1.0000 -0.1862703756
F   F14       1.0  0.98500  0.67750  0.16250  1.0000 -0.1862703756
F   F15       1.0  0.32250  0.30750  0.16250  1.0000 -0.1862703756
F   F16       1.0  0.30750  0.98500  0.83750  1.0000 -0.1862703756
F   F17       1.0  0.01500  0.32250  0.83750  1.0000 -0.1862703756
F   F18       1.0  0.67750  0.69250  0.83750  1.0000 -0.1862703756
