# DDEC6 charges by PACMAN v1.1 (https://github.com/mtap-research/PACMAN-charge/)
data_0000[Co][nan]3[FSR]1
_chemical_formula_sum              "Co8 H32 C48 O64"
_cell_length_a       18.968
_cell_length_b       18.968
_cell_length_c       5.773
_cell_angle_alpha    90
_cell_angle_beta     90
_cell_angle_gamma    90

_symmetry_space_group_name_H-M    "P 1"
_symmetry_Int_Tables_number       1

loop_
  _symmetry_equiv_pos_as_xyz
  'x, y, z'

loop_
  _atom_site_type_symbol
  _atom_site_label
  _atom_site_symmetry_multiplicity
  _atom_site_fract_x
  _atom_site_fract_y
  _atom_site_fract_z
  _atom_site_occupancy
  _atom_site_charge
Co  Co1       1.0  0.72968  0.27032  0.75000  1.0000 1.0593339776
Co  Co2       1.0  0.27032  0.72968  0.25000  1.0000 1.0593339776
Co  Co3       1.0  0.77032  0.77032  0.00000  1.0000 1.0593339776
Co  Co4       1.0  0.22968  0.22968  0.50000  1.0000 1.0593339776
Co  Co5       1.0  0.27992  0.27992  0.00000  1.0000 1.0103832458
Co  Co6       1.0  0.72008  0.72008  0.50000  1.0000 1.0103832458
Co  Co7       1.0  0.22008  0.77992  0.75000  1.0000 1.0103832458
Co  Co8       1.0  0.77992  0.22008  0.25000  1.0000 1.0103832458
H   H1        1.0  0.54780  0.20620  0.66430  1.0000 0.1259613086
H   H2        1.0  0.45220  0.79380  0.16430  1.0000 0.1259613086
H   H3        1.0  0.95220  0.70620  0.08570  1.0000 0.1259613086
H   H4        1.0  0.04780  0.29380  0.58570  1.0000 0.1259613086
H   H5        1.0  0.79380  0.45220  0.83570  1.0000 0.1259613086
H   H6        1.0  0.20620  0.54780  0.33570  1.0000 0.1259613086
H   H7        1.0  0.29380  0.04780  0.41430  1.0000 0.1259613086
H   H8        1.0  0.70620  0.95220  0.91430  1.0000 0.1259613086
H   H9        1.0  0.49450  0.30690  0.47760  1.0000 0.1259613086
H   H10       1.0  0.50550  0.69310  0.97760  1.0000 0.1259613086
H   H11       1.0  0.00550  0.80690  0.27240  1.0000 0.1259613086
H   H12       1.0  0.99450  0.19310  0.77240  1.0000 0.1259613086
H   H13       1.0  0.69310  0.50550  0.02240  1.0000 0.1259613086
H   H14       1.0  0.30690  0.49450  0.52240  1.0000 0.1259613086
H   H15       1.0  0.19310  0.99450  0.22760  1.0000 0.1259613086
H   H16       1.0  0.80690  0.00550  0.72760  1.0000 0.1259613086
H   H17       1.0  0.50880  0.32430  0.96210  1.0000 0.1364406992
H   H18       1.0  0.49120  0.67570  0.46210  1.0000 0.1364406992
H   H19       1.0  0.99120  0.82430  0.78790  1.0000 0.1364406992
H   H20       1.0  0.00880  0.17570  0.28790  1.0000 0.1364406992
H   H21       1.0  0.67570  0.49120  0.53790  1.0000 0.1364406992
H   H22       1.0  0.32430  0.50880  0.03790  1.0000 0.1364406992
H   H23       1.0  0.17570  0.00880  0.71210  1.0000 0.1364406992
H   H24       1.0  0.82430  0.99120  0.21210  1.0000 0.1364406992
H   H25       1.0  0.45860  0.21000  0.91580  1.0000 0.1484575246
H   H26       1.0  0.54140  0.79000  0.41580  1.0000 0.1484575246
H   H27       1.0  0.04140  0.71000  0.83420  1.0000 0.1484575246
H   H28       1.0  0.95860  0.29000  0.33420  1.0000 0.1484575246
H   H29       1.0  0.79000  0.54140  0.58420  1.0000 0.1484575246
H   H30       1.0  0.21000  0.45860  0.08420  1.0000 0.1484575246
H   H31       1.0  0.29000  0.95860  0.66580  1.0000 0.1484575246
H   H32       1.0  0.71000  0.04140  0.16580  1.0000 0.1484575246
C   C1        1.0  0.62500  0.23840  0.40800  1.0000 0.5776509021
C   C2        1.0  0.37500  0.76160  0.90800  1.0000 0.5776509021
C   C3        1.0  0.87500  0.73840  0.34200  1.0000 0.5776509021
C   C4        1.0  0.12500  0.26160  0.84200  1.0000 0.5776509021
C   C5        1.0  0.76160  0.37500  0.09200  1.0000 0.5776509021
C   C6        1.0  0.23840  0.62500  0.59200  1.0000 0.5776509021
C   C7        1.0  0.26160  0.12500  0.15800  1.0000 0.5776509021
C   C8        1.0  0.73840  0.87500  0.65800  1.0000 0.5776509021
C   C9        1.0  0.57570  0.24990  0.63200  1.0000 0.0156085463
C   C10       1.0  0.42430  0.75010  0.13200  1.0000 0.0156085463
C   C11       1.0  0.92430  0.74990  0.11800  1.0000 0.0156085463
C   C12       1.0  0.07570  0.25010  0.61800  1.0000 0.0156085463
C   C13       1.0  0.75010  0.42430  0.86800  1.0000 0.0156085463
C   C14       1.0  0.24990  0.57570  0.36800  1.0000 0.0156085463
C   C15       1.0  0.25010  0.07570  0.38200  1.0000 0.0156085463
C   C16       1.0  0.74990  0.92430  0.88200  1.0000 0.0156085463
C   C17       1.0  0.52560  0.31520  0.61500  1.0000 0.1105552365
C   C18       1.0  0.47440  0.68480  0.11500  1.0000 0.1105552365
C   C19       1.0  0.97440  0.81520  0.13500  1.0000 0.1105552365
C   C20       1.0  0.02560  0.18480  0.63500  1.0000 0.1105552365
C   C21       1.0  0.68480  0.47440  0.88500  1.0000 0.1105552365
C   C22       1.0  0.31520  0.52560  0.38500  1.0000 0.1105552365
C   C23       1.0  0.18480  0.02560  0.36500  1.0000 0.1105552365
C   C24       1.0  0.81520  0.97440  0.86500  1.0000 0.1105552365
C   C25       1.0  0.47860  0.31610  0.82300  1.0000 0.070170251
C   C26       1.0  0.52140  0.68390  0.32300  1.0000 0.070170251
C   C27       1.0  0.02140  0.81610  0.92700  1.0000 0.070170251
C   C28       1.0  0.97860  0.18390  0.42700  1.0000 0.070170251
C   C29       1.0  0.68390  0.52140  0.67700  1.0000 0.070170251
C   C30       1.0  0.31610  0.47860  0.17700  1.0000 0.070170251
C   C31       1.0  0.18390  0.97860  0.57300  1.0000 0.070170251
C   C32       1.0  0.81610  0.02140  0.07300  1.0000 0.070170251
C   C33       1.0  0.42920  0.25200  0.87600  1.0000 -0.0443260323
C   C34       1.0  0.57080  0.74800  0.37600  1.0000 -0.0443260323
C   C35       1.0  0.07080  0.75200  0.87400  1.0000 -0.0443260323
C   C36       1.0  0.92920  0.24800  0.37400  1.0000 -0.0443260323
C   C37       1.0  0.74800  0.57080  0.62400  1.0000 -0.0443260323
C   C38       1.0  0.25200  0.42920  0.12400  1.0000 -0.0443260323
C   C39       1.0  0.24800  0.92920  0.62600  1.0000 -0.0443260323
C   C40       1.0  0.75200  0.07080  0.12600  1.0000 -0.0443260323
C   C41       1.0  0.38870  0.23720  0.66900  1.0000 0.6073816989
C   C42       1.0  0.61130  0.76280  0.16900  1.0000 0.6073816989
C   C43       1.0  0.11130  0.73720  0.08100  1.0000 0.6073816989
C   C44       1.0  0.88870  0.26280  0.58100  1.0000 0.6073816989
C   C45       1.0  0.76280  0.61130  0.83100  1.0000 0.6073816989
C   C46       1.0  0.23720  0.38870  0.33100  1.0000 0.6073816989
C   C47       1.0  0.26280  0.88870  0.41900  1.0000 0.6073816989
C   C48       1.0  0.73720  0.11130  0.91900  1.0000 0.6073816989
O   O1        1.0  0.68540  0.24260  0.43400  1.0000 -0.4529541309
O   O2        1.0  0.31460  0.75740  0.93400  1.0000 -0.4529541309
O   O3        1.0  0.81460  0.74260  0.31600  1.0000 -0.4529541309
O   O4        1.0  0.18540  0.25740  0.81600  1.0000 -0.4529541309
O   O5        1.0  0.75740  0.31460  0.06600  1.0000 -0.4529541309
O   O6        1.0  0.24260  0.68540  0.56600  1.0000 -0.4529541309
O   O7        1.0  0.25740  0.18540  0.18400  1.0000 -0.4529541309
O   O8        1.0  0.74260  0.81460  0.68400  1.0000 -0.4529541309
O   O9        1.0  0.59280  0.22440  0.23100  1.0000 -0.37129153
O   O10       1.0  0.40720  0.77560  0.73100  1.0000 -0.37129153
O   O11       1.0  0.90720  0.72440  0.51900  1.0000 -0.37129153
O   O12       1.0  0.09280  0.27560  0.01900  1.0000 -0.37129153
O   O13       1.0  0.77560  0.40720  0.26900  1.0000 -0.37129153
O   O14       1.0  0.22440  0.59280  0.76900  1.0000 -0.37129153
O   O15       1.0  0.27560  0.09280  0.98100  1.0000 -0.37129153
O   O16       1.0  0.72440  0.90720  0.48100  1.0000 -0.37129153
O   O17       1.0  0.62610  0.26390  0.82500  1.0000 -0.37129153
O   O18       1.0  0.37390  0.73610  0.32500  1.0000 -0.37129153
O   O19       1.0  0.87390  0.76390  0.92500  1.0000 -0.37129153
O   O20       1.0  0.12610  0.23610  0.42500  1.0000 -0.37129153
O   O21       1.0  0.73610  0.37390  0.67500  1.0000 -0.37129153
O   O22       1.0  0.26390  0.62610  0.17500  1.0000 -0.37129153
O   O23       1.0  0.23610  0.12610  0.57500  1.0000 -0.37129153
O   O24       1.0  0.76390  0.87390  0.07500  1.0000 -0.37129153
O   O25       1.0  0.56220  0.37360  0.57000  1.0000 -0.2295536126
O   O26       1.0  0.43780  0.62640  0.07000  1.0000 -0.2295536126
O   O27       1.0  0.93780  0.87360  0.18000  1.0000 -0.2295536126
O   O28       1.0  0.06220  0.12640  0.68000  1.0000 -0.2295536126
O   O29       1.0  0.62640  0.43780  0.93000  1.0000 -0.2295536126
O   O30       1.0  0.37360  0.56220  0.43000  1.0000 -0.2295536126
O   O31       1.0  0.12640  0.06220  0.32000  1.0000 -0.2295536126
O   O32       1.0  0.87360  0.93780  0.82000  1.0000 -0.2295536126
O   O33       1.0  0.43140  0.37980  0.79300  1.0000 -0.0820765372
O   O34       1.0  0.56860  0.62020  0.29300  1.0000 -0.0820765372
O   O35       1.0  0.06860  0.87980  0.95700  1.0000 -0.0820765372
O   O36       1.0  0.93140  0.12020  0.45700  1.0000 -0.0820765372
O   O37       1.0  0.62020  0.56860  0.70700  1.0000 -0.0820765372
O   O38       1.0  0.37980  0.43140  0.20700  1.0000 -0.0820765372
O   O39       1.0  0.12020  0.93140  0.54300  1.0000 -0.0820765372
O   O40       1.0  0.87980  0.06860  0.04300  1.0000 -0.0820765372
O   O41       1.0  0.38640  0.27110  0.07300  1.0000 -0.3041031982
O   O42       1.0  0.61360  0.72890  0.57300  1.0000 -0.3041031982
O   O43       1.0  0.11360  0.77110  0.67700  1.0000 -0.3041031982
O   O44       1.0  0.88640  0.22890  0.17700  1.0000 -0.3041031982
O   O45       1.0  0.72890  0.61360  0.42700  1.0000 -0.3041031982
O   O46       1.0  0.27110  0.38640  0.92700  1.0000 -0.3041031982
O   O47       1.0  0.22890  0.88640  0.82300  1.0000 -0.3041031982
O   O48       1.0  0.77110  0.11360  0.32300  1.0000 -0.3041031982
O   O49       1.0  0.32040  0.24550  0.68900  1.0000 -0.5980103935
O   O50       1.0  0.67960  0.75450  0.18900  1.0000 -0.5980103935
O   O51       1.0  0.17960  0.74550  0.06100  1.0000 -0.5980103935
O   O52       1.0  0.82040  0.25450  0.56100  1.0000 -0.5980103935
O   O53       1.0  0.75450  0.67960  0.81100  1.0000 -0.5980103935
O   O54       1.0  0.24550  0.32040  0.31100  1.0000 -0.5980103935
O   O55       1.0  0.25450  0.82040  0.43900  1.0000 -0.5980103935
O   O56       1.0  0.74550  0.17960  0.93900  1.0000 -0.5980103935
O   O57       1.0  0.42220  0.21420  0.48200  1.0000 -0.4994391228
O   O58       1.0  0.57780  0.78580  0.98200  1.0000 -0.4994391228
O   O59       1.0  0.07780  0.71420  0.26800  1.0000 -0.4994391228
O   O60       1.0  0.92220  0.28580  0.76800  1.0000 -0.4994391228
O   O61       1.0  0.78580  0.57780  0.01800  1.0000 -0.4994391228
O   O62       1.0  0.21420  0.42220  0.51800  1.0000 -0.4994391228
O   O63       1.0  0.28580  0.92220  0.23200  1.0000 -0.4994391228
O   O64       1.0  0.71420  0.07780  0.73200  1.0000 -0.4994391228
