# DDEC6 charges by PACMAN v1.1 (https://github.com/mtap-research/PACMAN-charge/)
data_1991[Ag][eci]3[FSR]1
_chemical_formula_sum              "Ag4 H64 C40 S16 O8"
_cell_length_a       8.258
_cell_length_b       14.371
_cell_length_c       16.189
_cell_angle_alpha    90
_cell_angle_beta     90
_cell_angle_gamma    90

_symmetry_space_group_name_H-M    "P 1"
_symmetry_Int_Tables_number       1

loop_
  _symmetry_equiv_pos_as_xyz
  'x, y, z'

loop_
  _atom_site_type_symbol
  _atom_site_label
  _atom_site_symmetry_multiplicity
  _atom_site_fract_x
  _atom_site_fract_y
  _atom_site_fract_z
  _atom_site_occupancy
  _atom_site_charge
Ag  Ag1       1.0  0.20658  0.08698  0.15224  1.0000 0.0253097642
Ag  Ag2       1.0  0.70658  0.41302  0.84776  1.0000 0.0253097642
Ag  Ag3       1.0  0.79342  0.58698  0.34776  1.0000 0.0253097642
Ag  Ag4       1.0  0.29342  0.91302  0.65224  1.0000 0.0219157797
H   H1        1.0  0.48300  0.28400  0.19600  1.0000 0.1493171656
H   H2        1.0  0.98300  0.21600  0.80400  1.0000 0.1493171656
H   H3        1.0  0.51700  0.78400  0.30400  1.0000 0.1493171656
H   H4        1.0  0.01700  0.71600  0.69600  1.0000 0.1493171656
H   H5        1.0  0.37400  0.37300  0.20200  1.0000 0.1400291364
H   H6        1.0  0.87400  0.12700  0.79800  1.0000 0.1400291364
H   H7        1.0  0.62600  0.87300  0.29800  1.0000 0.1400291364
H   H8        1.0  0.12600  0.62700  0.70200  1.0000 0.1400291364
H   H9        1.0  0.59200  0.33000  0.05500  1.0000 0.1493171656
H   H10       1.0  0.09200  0.17000  0.94500  1.0000 0.1493171656
H   H11       1.0  0.40800  0.83000  0.44500  1.0000 0.1493171656
H   H12       1.0  0.90800  0.67000  0.55500  1.0000 0.1493171656
H   H13       1.0  0.49500  0.42400  0.06700  1.0000 0.1336517741
H   H14       1.0  0.99500  0.07600  0.93300  1.0000 0.1336517741
H   H15       1.0  0.50500  0.92400  0.43300  1.0000 0.1336517741
H   H16       1.0  0.00500  0.57600  0.56700  1.0000 0.1336517741
H   H17       1.0  0.31300  0.49200  0.87900  1.0000 0.0985519604
H   H18       1.0  0.81300  0.00800  0.12100  1.0000 0.0985519604
H   H19       1.0  0.68700  0.99200  0.62100  1.0000 0.0985519604
H   H20       1.0  0.18700  0.50800  0.37900  1.0000 0.0985519604
H   H21       1.0  0.28900  0.48900  0.97500  1.0000 0.1090953211
H   H22       1.0  0.78900  0.01100  0.02500  1.0000 0.1090953211
H   H23       1.0  0.71100  0.98900  0.52500  1.0000 0.1090953211
H   H24       1.0  0.21100  0.51100  0.47500  1.0000 0.1090953211
H   H25       1.0  0.10100  0.37200  0.96200  1.0000 0.1198624947
H   H26       1.0  0.60100  0.12800  0.03800  1.0000 0.1198624947
H   H27       1.0  0.89900  0.87200  0.53800  1.0000 0.1198624947
H   H28       1.0  0.39900  0.62800  0.46200  1.0000 0.1198624947
H   H29       1.0  0.13300  0.36500  0.86700  1.0000 0.1198624947
H   H30       1.0  0.63300  0.13500  0.13300  1.0000 0.1198624947
H   H31       1.0  0.86700  0.86500  0.63300  1.0000 0.1198624947
H   H32       1.0  0.36700  0.63500  0.36700  1.0000 0.1198624947
H   H33       1.0  0.85900  0.58900  0.99100  1.0000 0.1493171656
H   H34       1.0  0.35900  0.91100  0.00900  1.0000 0.1493171656
H   H35       1.0  0.14100  0.08900  0.50900  1.0000 0.1493171656
H   H36       1.0  0.64100  0.41100  0.49100  1.0000 0.1493171656
H   H37       1.0  0.04300  0.57300  0.01100  1.0000 0.1400291364
H   H38       1.0  0.54300  0.92700  0.98900  1.0000 0.1400291364
H   H39       1.0  0.95700  0.07300  0.48900  1.0000 0.1400291364
H   H40       1.0  0.45700  0.42700  0.51100  1.0000 0.1400291364
H   H41       1.0  0.78500  0.57100  0.13900  1.0000 0.1400291364
H   H42       1.0  0.28500  0.92900  0.86100  1.0000 0.1400291364
H   H43       1.0  0.21500  0.07100  0.36100  1.0000 0.1400291364
H   H44       1.0  0.71500  0.42900  0.63900  1.0000 0.1400291364
H   H45       1.0  0.97100  0.56300  0.15800  1.0000 0.1336517741
H   H46       1.0  0.47100  0.93700  0.84200  1.0000 0.1336517741
H   H47       1.0  0.02900  0.06300  0.34200  1.0000 0.1336517741
H   H48       1.0  0.52900  0.43700  0.65800  1.0000 0.1336517741
H   H49       1.0  0.03400  0.38800  0.31300  1.0000 0.1090953211
H   H50       1.0  0.53400  0.11200  0.68700  1.0000 0.1090953211
H   H51       1.0  0.96600  0.88800  0.18700  1.0000 0.1090953211
H   H52       1.0  0.46600  0.61200  0.81300  1.0000 0.1090953211
H   H53       1.0  0.11000  0.43700  0.23600  1.0000 0.1090953211
H   H54       1.0  0.61000  0.06300  0.76400  1.0000 0.1090953211
H   H55       1.0  0.89000  0.93700  0.26400  1.0000 0.1090953211
H   H56       1.0  0.39000  0.56300  0.73600  1.0000 0.1090953211
H   H57       1.0  0.03700  0.31400  0.15300  1.0000 0.1198624947
H   H58       1.0  0.53700  0.18600  0.84700  1.0000 0.1198624947
H   H59       1.0  0.96300  0.81400  0.34700  1.0000 0.1198624947
H   H60       1.0  0.46300  0.68600  0.65300  1.0000 0.1198624947
H   H61       1.0  0.94900  0.26600  0.22700  1.0000 0.1198624947
H   H62       1.0  0.44900  0.23400  0.77300  1.0000 0.1198624947
H   H63       1.0  0.05100  0.76600  0.27300  1.0000 0.1198624947
H   H64       1.0  0.55100  0.73400  0.72700  1.0000 0.1198624947
C   C1        1.0  0.37800  0.30910  0.18430  1.0000 -0.367843265
C   C2        1.0  0.87800  0.19090  0.81570  1.0000 -0.367843265
C   C3        1.0  0.62200  0.80910  0.31570  1.0000 -0.367843265
C   C4        1.0  0.12200  0.69090  0.68430  1.0000 -0.367843265
C   C5        1.0  0.35800  0.30880  0.09020  1.0000 0.4559221321
C   C6        1.0  0.85800  0.19120  0.90980  1.0000 0.4559221321
C   C7        1.0  0.64200  0.80880  0.40980  1.0000 0.4559221321
C   C8        1.0  0.14200  0.69120  0.59020  1.0000 0.4559221321
C   C9        1.0  0.48900  0.36190  0.04560  1.0000 -0.3627008196
C   C10       1.0  0.98900  0.13810  0.95440  1.0000 -0.3627008196
C   C11       1.0  0.51100  0.86190  0.45440  1.0000 -0.3627008196
C   C12       1.0  0.01100  0.63810  0.54560  1.0000 -0.3627008196
C   C13       1.0  0.29200  0.45230  0.92540  1.0000 -0.2085304785
C   C14       1.0  0.79200  0.04770  0.07460  1.0000 -0.2085304785
C   C15       1.0  0.70800  0.95230  0.57460  1.0000 -0.2085304785
C   C16       1.0  0.20800  0.54770  0.42540  1.0000 -0.2085304785
C   C17       1.0  0.12800  0.40570  0.91350  1.0000 -0.2016144453
C   C18       1.0  0.62800  0.09430  0.08650  1.0000 -0.2016144453
C   C19       1.0  0.87200  0.90570  0.58650  1.0000 -0.2016144453
C   C20       1.0  0.37200  0.59430  0.41350  1.0000 -0.2016144453
C   C21       1.0  0.94300  0.54340  0.99610  1.0000 -0.3627008196
C   C22       1.0  0.44300  0.95660  0.00390  1.0000 -0.3627008196
C   C23       1.0  0.05700  0.04340  0.50390  1.0000 -0.3627008196
C   C24       1.0  0.55700  0.45660  0.49610  1.0000 -0.3627008196
C   C25       1.0  0.89800  0.47720  0.06600  1.0000 0.4559221321
C   C26       1.0  0.39800  0.02280  0.93400  1.0000 0.4559221321
C   C27       1.0  0.10200  0.97720  0.43400  1.0000 0.4559221321
C   C28       1.0  0.60200  0.52280  0.56600  1.0000 0.4559221321
C   C29       1.0  0.87400  0.52820  0.14610  1.0000 -0.3787540442
C   C30       1.0  0.37400  0.97180  0.85390  1.0000 -0.3787540442
C   C31       1.0  0.12600  0.02820  0.35390  1.0000 -0.3787540442
C   C32       1.0  0.62600  0.47180  0.64610  1.0000 -0.3787540442
C   C33       1.0  0.02600  0.39710  0.25470  1.0000 -0.2085304785
C   C34       1.0  0.52600  0.10290  0.74530  1.0000 -0.2085304785
C   C35       1.0  0.97400  0.89710  0.24530  1.0000 -0.2085304785
C   C36       1.0  0.47400  0.60290  0.75470  1.0000 -0.2085304785
C   C37       1.0  0.04100  0.30420  0.21260  1.0000 -0.2199648715
C   C38       1.0  0.54100  0.19580  0.78740  1.0000 -0.2199648715
C   C39       1.0  0.95900  0.80420  0.28740  1.0000 -0.2199648715
C   C40       1.0  0.45900  0.69580  0.71260  1.0000 -0.2199648715
S   S1        1.0  0.22530  0.24290  0.23810  1.0000 0.0373138019
S   S2        1.0  0.72530  0.25710  0.76190  1.0000 0.0373138019
S   S3        1.0  0.77470  0.74290  0.26190  1.0000 0.0373138019
S   S4        1.0  0.27470  0.75710  0.73810  1.0000 0.0373138019
S   S5        1.0  0.45520  0.36700  0.93440  1.0000 0.0011360044
S   S6        1.0  0.95520  0.13300  0.06560  1.0000 0.0011360044
S   S7        1.0  0.54480  0.86700  0.56560  1.0000 0.0011360044
S   S8        1.0  0.04480  0.63300  0.43440  1.0000 0.0011360044
S   S9        1.0  0.97050  0.49170  0.89520  1.0000 0.0219157797
S   S10       1.0  0.47050  0.00830  0.10480  1.0000 0.0219157797
S   S11       1.0  0.02950  0.99170  0.60480  1.0000 0.0219157797
S   S12       1.0  0.52950  0.50830  0.39520  1.0000 0.0219157797
S   S13       1.0  0.83180  0.45460  0.23450  1.0000 -0.0201453243
S   S14       1.0  0.33180  0.04540  0.76550  1.0000 -0.0133222526
S   S15       1.0  0.16820  0.95460  0.26550  1.0000 -0.0201453243
S   S16       1.0  0.66820  0.54540  0.73450  1.0000 -0.0201453243
O   O1        1.0  0.26500  0.26100  0.05660  1.0000 -0.3455218769
O   O2        1.0  0.76500  0.23900  0.94340  1.0000 -0.3455218769
O   O3        1.0  0.73500  0.76100  0.44340  1.0000 -0.3455218769
O   O4        1.0  0.23500  0.73900  0.55660  1.0000 -0.3455218769
O   O5        1.0  0.36700  0.10120  0.94460  1.0000 -0.3627008196
O   O6        1.0  0.86700  0.39880  0.05540  1.0000 -0.3627008196
O   O7        1.0  0.63300  0.60120  0.55540  1.0000 -0.3627008196
O   O8        1.0  0.13300  0.89880  0.44460  1.0000 -0.3627008196
