# DDEC6 charges by PACMAN v1.1 (https://github.com/mtap-research/PACMAN-charge/)
data_1993[CoCu][tfk]3[FSR]1
_chemical_formula_sum              "Co2 Cu4 H72 C72 N24 Cl12"
_cell_length_a       11.6823
_cell_length_b       11.6823
_cell_length_c       28.155
_cell_angle_alpha    88.017
_cell_angle_beta     91.983
_cell_angle_gamma    37.3119

_symmetry_space_group_name_H-M    "P 1"
_symmetry_Int_Tables_number       1

loop_
  _symmetry_equiv_pos_as_xyz
  'x, y, z'

loop_
  _atom_site_type_symbol
  _atom_site_label
  _atom_site_symmetry_multiplicity
  _atom_site_fract_x
  _atom_site_fract_y
  _atom_site_fract_z
  _atom_site_occupancy
  _atom_site_charge
Co  Co1       1.0  0.11902  0.11902  0.75000  1.0000 0.6489014093
Co  Co2       1.0  0.88098  0.88098  0.25000  1.0000 0.6489014093
Cu  Cu1       1.0  0.41121  0.45563  0.96807  1.0000 0.6489014093
Cu  Cu2       1.0  0.45563  0.41121  0.53193  1.0000 0.6489014093
Cu  Cu3       1.0  0.58879  0.54437  0.03193  1.0000 0.6489014093
Cu  Cu4       1.0  0.54437  0.58879  0.46807  1.0000 0.6489014093
H   H1        1.0  0.44100  0.60900  0.88100  1.0000 0.1289934072
H   H2        1.0  0.60900  0.44100  0.61900  1.0000 0.1289934072
H   H3        1.0  0.55900  0.39100  0.11900  1.0000 0.1289934072
H   H4        1.0  0.39100  0.55900  0.38100  1.0000 0.1289934072
H   H5        1.0  0.66800  0.40400  0.82000  1.0000 0.1477944269
H   H6        1.0  0.40400  0.66800  0.68000  1.0000 0.1477944269
H   H7        1.0  0.33200  0.59600  0.18000  1.0000 0.1477944269
H   H8        1.0  0.59600  0.33200  0.32000  1.0000 0.1477944269
H   H9        1.0  0.89500  0.06300  0.84600  1.0000 0.1289934072
H   H10       1.0  0.06300  0.89500  0.65400  1.0000 0.1289934072
H   H11       1.0  0.10500  0.93700  0.15400  1.0000 0.1289934072
H   H12       1.0  0.93700  0.10500  0.34600  1.0000 0.1289934072
H   H13       1.0  0.78600  0.04200  0.96200  1.0000 0.1289934072
H   H14       1.0  0.04200  0.78600  0.53800  1.0000 0.1289934072
H   H15       1.0  0.21400  0.95800  0.03800  1.0000 0.1289934072
H   H16       1.0  0.95800  0.21400  0.46200  1.0000 0.1289934072
H   H17       1.0  0.92200  0.90800  0.92300  1.0000 0.1289934072
H   H18       1.0  0.90800  0.92200  0.57700  1.0000 0.1289934072
H   H19       1.0  0.07800  0.09200  0.07700  1.0000 0.1289934072
H   H20       1.0  0.09200  0.07800  0.42300  1.0000 0.1289934072
H   H21       1.0  0.78300  0.77100  0.94700  1.0000 0.1115648593
H   H22       1.0  0.77100  0.78300  0.55300  1.0000 0.1115648593
H   H23       1.0  0.21700  0.22900  0.05300  1.0000 0.1115648593
H   H24       1.0  0.22900  0.21700  0.44700  1.0000 0.1115648593
H   H25       1.0  0.50100  0.81500  0.98000  1.0000 0.1194271959
H   H26       1.0  0.81500  0.50100  0.52000  1.0000 0.1194271959
H   H27       1.0  0.49900  0.18500  0.02000  1.0000 0.1194271959
H   H28       1.0  0.18500  0.49900  0.48000  1.0000 0.1194271959
H   H29       1.0  0.66500  0.74900  0.00900  1.0000 0.1194271959
H   H30       1.0  0.74900  0.66500  0.49100  1.0000 0.1194271959
H   H31       1.0  0.33500  0.25100  0.99100  1.0000 0.1194271959
H   H32       1.0  0.25100  0.33500  0.50900  1.0000 0.1194271959
H   H33       1.0  0.05800  0.50000  0.07900  1.0000 0.1115648593
H   H34       1.0  0.50000  0.05800  0.42100  1.0000 0.1115648593
H   H35       1.0  0.94200  0.50000  0.92100  1.0000 0.1115648593
H   H36       1.0  0.50000  0.94200  0.57900  1.0000 0.1115648593
H   H37       1.0  0.07700  0.81700  0.03000  1.0000 0.1194271959
H   H38       1.0  0.81700  0.07700  0.47000  1.0000 0.1194271959
H   H39       1.0  0.92300  0.18300  0.97000  1.0000 0.1194271959
H   H40       1.0  0.18300  0.92300  0.53000  1.0000 0.1194271959
H   H41       1.0  0.56700  0.14100  0.84800  1.0000 0.1115648593
H   H42       1.0  0.14100  0.56700  0.65200  1.0000 0.1115648593
H   H43       1.0  0.43300  0.85900  0.15200  1.0000 0.1115648593
H   H44       1.0  0.85900  0.43300  0.34800  1.0000 0.1115648593
H   H45       1.0  0.43500  0.11700  0.79000  1.0000 0.1194271959
H   H46       1.0  0.11700  0.43500  0.71000  1.0000 0.1194271959
H   H47       1.0  0.56500  0.88300  0.21000  1.0000 0.1194271959
H   H48       1.0  0.88300  0.56500  0.29000  1.0000 0.1194271959
H   H49       1.0  0.41700  0.00100  0.80200  1.0000 0.1115648593
H   H50       1.0  0.00100  0.41700  0.69800  1.0000 0.1115648593
H   H51       1.0  0.58300  0.99900  0.19800  1.0000 0.1115648593
H   H52       1.0  0.99900  0.58300  0.30200  1.0000 0.1115648593
H   H53       1.0  0.15700  0.45900  0.84000  1.0000 0.1289934072
H   H54       1.0  0.45900  0.15700  0.66000  1.0000 0.1289934072
H   H55       1.0  0.84300  0.54100  0.16000  1.0000 0.1289934072
H   H56       1.0  0.54100  0.84300  0.34000  1.0000 0.1289934072
H   H57       1.0  0.79700  0.71100  0.82400  1.0000 0.1289934072
H   H58       1.0  0.71100  0.79700  0.67600  1.0000 0.1289934072
H   H59       1.0  0.20300  0.28900  0.17600  1.0000 0.1289934072
H   H60       1.0  0.28900  0.20300  0.32400  1.0000 0.1289934072
H   H61       1.0  0.76690  0.54510  0.79100  1.0000 0.1289934072
H   H62       1.0  0.54510  0.76690  0.70900  1.0000 0.1289934072
H   H63       1.0  0.23310  0.45490  0.20900  1.0000 0.1289934072
H   H64       1.0  0.45490  0.23310  0.29100  1.0000 0.1289934072
H   H65       1.0  0.09900  0.17700  0.91600  1.0000 0.1477944269
H   H66       1.0  0.17700  0.09900  0.58400  1.0000 0.1477944269
H   H67       1.0  0.90100  0.82300  0.08400  1.0000 0.1477944269
H   H68       1.0  0.82300  0.90100  0.41600  1.0000 0.1477944269
H   H69       1.0  0.47000  0.95400  0.86200  1.0000 0.0961665582
H   H70       1.0  0.95400  0.47000  0.63800  1.0000 0.0961665582
H   H71       1.0  0.53000  0.04600  0.13800  1.0000 0.0961665582
H   H72       1.0  0.04600  0.53000  0.36200  1.0000 0.0961665582
C   C1        1.0  0.53700  0.47160  0.88090  1.0000 0.0382492035
C   C2        1.0  0.47160  0.53700  0.61910  1.0000 0.0382492035
C   C3        1.0  0.46300  0.52840  0.11910  1.0000 0.0382492035
C   C4        1.0  0.52840  0.46300  0.38090  1.0000 0.0382492035
C   C5        1.0  0.66570  0.36210  0.84680  1.0000 -0.1805586875
C   C6        1.0  0.36210  0.66570  0.65320  1.0000 -0.1805586875
C   C7        1.0  0.33430  0.63790  0.15320  1.0000 -0.1805586875
C   C8        1.0  0.63790  0.33430  0.34680  1.0000 -0.1805586875
C   C9        1.0  0.77550  0.18350  0.85970  1.0000 -0.0671678171
C   C10       1.0  0.18350  0.77550  0.64030  1.0000 -0.0671678171
C   C11       1.0  0.22450  0.81650  0.14030  1.0000 -0.0671678171
C   C12       1.0  0.81650  0.22450  0.35970  1.0000 -0.0671678171
C   C13       1.0  0.78580  0.02760  0.92750  1.0000 -0.2089262348
C   C14       1.0  0.02760  0.78580  0.57250  1.0000 -0.2089262348
C   C15       1.0  0.21420  0.97240  0.07250  1.0000 -0.2089262348
C   C16       1.0  0.97240  0.21420  0.42750  1.0000 -0.2089262348
C   C17       1.0  0.68110  0.00130  0.91600  1.0000 0.1194271959
C   C18       1.0  0.00130  0.68110  0.58400  1.0000 0.1194271959
C   C19       1.0  0.31890  0.99870  0.08400  1.0000 0.1194271959
C   C20       1.0  0.99870  0.31890  0.41600  1.0000 0.1194271959
C   C21       1.0  0.69320  0.90480  0.94990  1.0000 -0.1475848317
C   C22       1.0  0.90480  0.69320  0.55010  1.0000 -0.1475848317
C   C23       1.0  0.30680  0.09520  0.05010  1.0000 -0.1475848317
C   C24       1.0  0.09520  0.30680  0.44990  1.0000 -0.1475848317
C   C25       1.0  0.60160  0.86940  0.93970  1.0000 0.0506127863
C   C26       1.0  0.86940  0.60160  0.56030  1.0000 0.0506127863
C   C27       1.0  0.39840  0.13060  0.06030  1.0000 0.0506127863
C   C28       1.0  0.13060  0.39840  0.43970  1.0000 0.0506127863
C   C29       1.0  0.62940  0.74960  0.97670  1.0000 -0.1928063244
C   C30       1.0  0.74960  0.62940  0.52330  1.0000 -0.1928063244
C   C31       1.0  0.37060  0.25040  0.02330  1.0000 -0.1928063244
C   C32       1.0  0.25040  0.37060  0.47670  1.0000 -0.1928063244
C   C33       1.0  0.09640  0.54360  0.06440  1.0000 -0.041436559
C   C34       1.0  0.54360  0.09640  0.43560  1.0000 -0.041436559
C   C35       1.0  0.90360  0.45640  0.93560  1.0000 -0.041436559
C   C36       1.0  0.45640  0.90360  0.56440  1.0000 -0.041436559
C   C37       1.0  0.00950  0.71810  0.06580  1.0000 -0.1997398645
C   C38       1.0  0.71810  0.00950  0.43420  1.0000 -0.1997398645
C   C39       1.0  0.99050  0.28190  0.93420  1.0000 -0.1997398645
C   C40       1.0  0.28190  0.99050  0.56580  1.0000 -0.1997398645
C   C41       1.0  0.10950  0.70750  0.03740  1.0000 0.0273658159
C   C42       1.0  0.70750  0.10950  0.46260  1.0000 0.0273658159
C   C43       1.0  0.89050  0.29250  0.96260  1.0000 0.0273658159
C   C44       1.0  0.29250  0.89050  0.53740  1.0000 0.0273658159
C   C45       1.0  0.50170  0.93430  0.89580  1.0000 -0.1104493779
C   C46       1.0  0.93430  0.50170  0.60420  1.0000 -0.1104493779
C   C47       1.0  0.49830  0.06570  0.10420  1.0000 -0.1104493779
C   C48       1.0  0.06570  0.49830  0.39580  1.0000 -0.1104493779
C   C49       1.0  0.48890  0.03630  0.86120  1.0000 0.0273658159
C   C50       1.0  0.03630  0.48890  0.63880  1.0000 0.0273658159
C   C51       1.0  0.51110  0.96370  0.13880  1.0000 0.0273658159
C   C52       1.0  0.96370  0.51110  0.36120  1.0000 0.0273658159
C   C53       1.0  0.57730  0.06710  0.87230  1.0000 -0.1805586875
C   C54       1.0  0.06710  0.57730  0.62770  1.0000 -0.1805586875
C   C55       1.0  0.42270  0.93290  0.12770  1.0000 -0.1805586875
C   C56       1.0  0.93290  0.42270  0.37230  1.0000 -0.1805586875
C   C57       1.0  0.38800  0.09900  0.81250  1.0000 -0.1997398645
C   C58       1.0  0.09900  0.38800  0.68750  1.0000 -0.1997398645
C   C59       1.0  0.61200  0.90100  0.18750  1.0000 -0.1997398645
C   C60       1.0  0.90100  0.61200  0.31250  1.0000 -0.1997398645
C   C61       1.0  0.09280  0.43740  0.82490  1.0000 -0.0271113184
C   C62       1.0  0.43740  0.09280  0.67510  1.0000 -0.0271113184
C   C63       1.0  0.90720  0.56260  0.17510  1.0000 -0.0271113184
C   C64       1.0  0.56260  0.90720  0.32490  1.0000 -0.0271113184
C   C65       1.0  0.90290  0.56990  0.81650  1.0000 -0.2089262348
C   C66       1.0  0.56990  0.90290  0.68350  1.0000 -0.2089262348
C   C67       1.0  0.09710  0.43010  0.18350  1.0000 -0.2089262348
C   C68       1.0  0.43010  0.09710  0.31650  1.0000 -0.2089262348
C   C69       1.0  0.89050  0.47570  0.79590  1.0000 0.0065718009
C   C70       1.0  0.47570  0.89050  0.70410  1.0000 0.0065718009
C   C71       1.0  0.10950  0.52430  0.20410  1.0000 0.0065718009
C   C72       1.0  0.52430  0.10950  0.29590  1.0000 0.0065718009
N   N1        1.0  0.56790  0.36470  0.91430  1.0000 -0.2159519852
N   N2        1.0  0.36470  0.56790  0.58570  1.0000 -0.2159519852
N   N3        1.0  0.43210  0.63530  0.08570  1.0000 -0.2159519852
N   N4        1.0  0.63530  0.43210  0.41430  1.0000 -0.2159519852
N   N5        1.0  0.71750  0.18570  0.90040  1.0000 0.1969386205
N   N6        1.0  0.18570  0.71750  0.59960  1.0000 0.1969386205
N   N7        1.0  0.28250  0.81430  0.09960  1.0000 0.1969386205
N   N8        1.0  0.81430  0.28250  0.40040  1.0000 0.1969386205
N   N9        1.0  0.23590  0.44290  0.03680  1.0000 0.1895412668
N   N10       1.0  0.44290  0.23590  0.46320  1.0000 0.1895412668
N   N11       1.0  0.76410  0.55710  0.96320  1.0000 0.1895412668
N   N12       1.0  0.55710  0.76410  0.53680  1.0000 0.1895412668
N   N13       1.0  0.24850  0.54250  0.01980  1.0000 -0.1928063244
N   N14       1.0  0.54250  0.24850  0.48020  1.0000 -0.1928063244
N   N15       1.0  0.75150  0.45750  0.98020  1.0000 -0.1928063244
N   N16       1.0  0.45750  0.75150  0.51980  1.0000 -0.1928063244
N   N17       1.0  0.18000  0.27820  0.81160  1.0000 0.1831764444
N   N18       1.0  0.27820  0.18000  0.68840  1.0000 0.1831764444
N   N19       1.0  0.82000  0.72180  0.18840  1.0000 0.1831764444
N   N20       1.0  0.72180  0.82000  0.31160  1.0000 0.1831764444
N   N21       1.0  0.05970  0.29370  0.79110  1.0000 -0.2471916512
N   N22       1.0  0.29370  0.05970  0.70890  1.0000 -0.2471916512
N   N23       1.0  0.94030  0.70630  0.20890  1.0000 -0.2471916512
N   N24       1.0  0.70630  0.94030  0.29110  1.0000 -0.2471916512
Cl  Cl1       1.0  0.30153  0.84293  0.79050  1.0000 -0.5192176238
Cl  Cl2       1.0  0.84293  0.30153  0.70950  1.0000 -0.5192176238
Cl  Cl3       1.0  0.69847  0.15707  0.20950  1.0000 -0.5192176238
Cl  Cl4       1.0  0.15707  0.69847  0.29050  1.0000 -0.5192176238
Cl  Cl5       1.0  0.19758  0.53618  0.91633  1.0000 -0.5392257706
Cl  Cl6       1.0  0.53618  0.19758  0.58367  1.0000 -0.5392257706
Cl  Cl7       1.0  0.80242  0.46382  0.08367  1.0000 -0.5392257706
Cl  Cl8       1.0  0.46382  0.80242  0.41633  1.0000 -0.5392257706
Cl  Cl9       1.0  0.67717  0.25917  0.02706  1.0000 -0.5518793896
Cl  Cl10      1.0  0.25917  0.67717  0.47294  1.0000 -0.5518793896
Cl  Cl11      1.0  0.32283  0.74083  0.97294  1.0000 -0.5518793896
Cl  Cl12      1.0  0.74083  0.32283  0.52706  1.0000 -0.5518793896
