# DDEC6 charges by PACMAN v1.1 (https://github.com/mtap-research/PACMAN-charge/)
data_1994[Ag][dia]3[FSR]1
_chemical_formula_sum              "Ag2 H16 C24 N8"
_cell_length_a       12.269
_cell_length_b       12.269
_cell_length_c       4.822
_cell_angle_alpha    90
_cell_angle_beta     90
_cell_angle_gamma    90

_symmetry_space_group_name_H-M    "P 1"
_symmetry_Int_Tables_number       1

loop_
  _symmetry_equiv_pos_as_xyz
  'x, y, z'

loop_
  _atom_site_type_symbol
  _atom_site_label
  _atom_site_symmetry_multiplicity
  _atom_site_fract_x
  _atom_site_fract_y
  _atom_site_fract_z
  _atom_site_occupancy
  _atom_site_charge
Ag  Ag1       1.0  0.00000  0.50000  0.00000  1.0000 0.3197154289
Ag  Ag2       1.0  0.50000  0.00000  0.00000  1.0000 0.3197154289
H   H1        1.0  0.01810  0.74160  0.22900  1.0000 0.0969098023
H   H2        1.0  0.74160  0.98190  0.22900  1.0000 0.0969098023
H   H3        1.0  0.51810  0.75840  0.22900  1.0000 0.0969098023
H   H4        1.0  0.98190  0.25840  0.22900  1.0000 0.0969098023
H   H5        1.0  0.75840  0.48190  0.22900  1.0000 0.0969098023
H   H6        1.0  0.25840  0.01810  0.22900  1.0000 0.0969098023
H   H7        1.0  0.48190  0.24160  0.22900  1.0000 0.0969098023
H   H8        1.0  0.24160  0.51810  0.22900  1.0000 0.0969098023
H   H9        1.0  0.12450  0.85560  0.48900  1.0000 0.1216848528
H   H10       1.0  0.85560  0.87550  0.48900  1.0000 0.1216848528
H   H11       1.0  0.62450  0.64440  0.48900  1.0000 0.1216848528
H   H12       1.0  0.87550  0.14440  0.48900  1.0000 0.1216848528
H   H13       1.0  0.64440  0.37550  0.48900  1.0000 0.1216848528
H   H14       1.0  0.14440  0.12450  0.48900  1.0000 0.1216848528
H   H15       1.0  0.37550  0.35560  0.48900  1.0000 0.1216848528
H   H16       1.0  0.35560  0.62450  0.48900  1.0000 0.1216848528
C   C1        1.0  0.08650  0.71760  0.28500  1.0000 0.0498335919
C   C2        1.0  0.71760  0.91350  0.28500  1.0000 0.0498335919
C   C3        1.0  0.58650  0.78240  0.28500  1.0000 0.0498335919
C   C4        1.0  0.91350  0.28240  0.28500  1.0000 0.0498335919
C   C5        1.0  0.78240  0.41350  0.28500  1.0000 0.0498335919
C   C6        1.0  0.28240  0.08650  0.28500  1.0000 0.0498335919
C   C7        1.0  0.41350  0.21760  0.28500  1.0000 0.0498335919
C   C8        1.0  0.21760  0.58650  0.28500  1.0000 0.0498335919
C   C9        1.0  0.14950  0.78660  0.44100  1.0000 -0.1985799783
C   C10       1.0  0.78660  0.85050  0.44100  1.0000 -0.1985799783
C   C11       1.0  0.64950  0.71340  0.44100  1.0000 -0.1985799783
C   C12       1.0  0.85050  0.21340  0.44100  1.0000 -0.1985799783
C   C13       1.0  0.71340  0.35050  0.44100  1.0000 -0.1985799783
C   C14       1.0  0.21340  0.14950  0.44100  1.0000 -0.1985799783
C   C15       1.0  0.35050  0.28660  0.44100  1.0000 -0.1985799783
C   C16       1.0  0.28660  0.64950  0.44100  1.0000 -0.1985799783
C   C17       1.0  0.25100  0.75100  0.52400  1.0000 0.0623965895
C   C18       1.0  0.75100  0.74900  0.52400  1.0000 0.0623965895
C   C19       1.0  0.74900  0.24900  0.52400  1.0000 0.0623965895
C   C20       1.0  0.24900  0.25100  0.52400  1.0000 0.0623965895
C   C21       1.0  0.32170  0.82170  0.67200  1.0000 0.2366427815
C   C22       1.0  0.82170  0.67830  0.67200  1.0000 0.2366427815
C   C23       1.0  0.67830  0.17830  0.67200  1.0000 0.2366427815
C   C24       1.0  0.17830  0.32170  0.67200  1.0000 0.2366427815
N   N1        1.0  0.11790  0.61790  0.21000  1.0000 -0.188583743
N   N2        1.0  0.61790  0.88210  0.21000  1.0000 -0.188583743
N   N3        1.0  0.88210  0.38210  0.21000  1.0000 -0.188583743
N   N4        1.0  0.38210  0.11790  0.21000  1.0000 -0.188583743
N   N5        1.0  0.37890  0.87890  0.78300  1.0000 -0.4100098798
N   N6        1.0  0.87890  0.62110  0.78300  1.0000 -0.4100098798
N   N7        1.0  0.62110  0.12110  0.78300  1.0000 -0.4100098798
N   N8        1.0  0.12110  0.37890  0.78300  1.0000 -0.4100098798
