# DDEC6 charges by PACMAN v1.1 (https://github.com/mtap-research/PACMAN-charge/)
data_1996[Ce][nan]3[FSR]1
_chemical_formula_sum              "Ce4 C10 O26"
_cell_length_a       6.329
_cell_length_b       8.743
_cell_length_c       13
_cell_angle_alpha    105.61
_cell_angle_beta     90.55
_cell_angle_gamma    105.1

_symmetry_space_group_name_H-M    "P 1"
_symmetry_Int_Tables_number       1

loop_
  _symmetry_equiv_pos_as_xyz
  'x, y, z'

loop_
  _atom_site_type_symbol
  _atom_site_label
  _atom_site_symmetry_multiplicity
  _atom_site_fract_x
  _atom_site_fract_y
  _atom_site_fract_z
  _atom_site_occupancy
  _atom_site_charge
Ce  Ce1       1.0  0.06026  0.03013  0.25725  1.0000 1.9732133481
Ce  Ce2       1.0  0.93974  0.96987  0.74275  1.0000 1.9732133481
Ce  Ce3       1.0  0.30963  0.66699  0.07528  1.0000 2.0099668834
Ce  Ce4       1.0  0.69037  0.33301  0.92472  1.0000 2.0099668834
C   C1        1.0  0.23260  0.39610  0.21910  1.0000 0.5235481892
C   C2        1.0  0.76740  0.60390  0.78090  1.0000 0.5235481892
C   C3        1.0  0.04430  0.30570  0.12950  1.0000 0.5000975985
C   C4        1.0  0.95570  0.69430  0.87050  1.0000 0.5000975985
C   C5        1.0  0.44600  0.05120  0.04550  1.0000 0.5235481892
C   C6        1.0  0.55400  0.94880  0.95450  1.0000 0.5235481892
C   C7        1.0  0.09370  0.08050  0.52160  1.0000 0.5000975985
C   C8        1.0  0.90630  0.91950  0.47840  1.0000 0.5000975985
C   C9        1.0  0.78540  0.70800  0.13100  1.0000 0.8670727942
C   C10       1.0  0.21460  0.29200  0.86900  1.0000 0.8641783331
O   O1        1.0  0.26490  0.31830  0.28370  1.0000 -0.5349787738
O   O2        1.0  0.73510  0.68170  0.71630  1.0000 -0.5357661214
O   O3        1.0  0.33580  0.54120  0.22400  1.0000 -0.4825903591
O   O4        1.0  0.66420  0.45880  0.77600  1.0000 -0.4825903591
O   O5        1.0  0.94490  0.16160  0.12610  1.0000 -0.4997850325
O   O6        1.0  0.05510  0.83840  0.87390  1.0000 -0.4997850325
O   O7        1.0  0.00730  0.38650  0.06750  1.0000 -0.6091351923
O   O8        1.0  0.99270  0.61350  0.93250  1.0000 -0.6091351923
O   O9        1.0  0.48060  0.20150  0.05550  1.0000 -0.4997850325
O   O10       1.0  0.51940  0.79850  0.94450  1.0000 -0.5054410961
O   O11       1.0  0.32900  0.97170  0.10300  1.0000 -0.6091351923
O   O12       1.0  0.67100  0.02830  0.89700  1.0000 -0.6091351923
O   O13       1.0  0.18570  0.14790  0.45420  1.0000 -0.5357661214
O   O14       1.0  0.81430  0.85210  0.54580  1.0000 -0.5349787738
O   O15       1.0  0.14180  0.12820  0.62090  1.0000 -0.4924418595
O   O16       1.0  0.85820  0.87180  0.37910  1.0000 -0.4924418595
O   O17       1.0  0.66190  0.56930  0.07610  1.0000 -0.7114413347
O   O18       1.0  0.33810  0.43070  0.92390  1.0000 -0.7114413347
O   O19       1.0  0.98700  0.73100  0.16010  1.0000 -0.7008778717
O   O20       1.0  0.01300  0.26900  0.83990  1.0000 -0.7008778717
O   O21       1.0  0.70310  0.83070  0.16020  1.0000 -0.6521970894
O   O22       1.0  0.29690  0.16930  0.83980  1.0000 -0.6521970894
O   O23       1.0  0.36070  0.89710  0.29360  1.0000 -0.3821904924
O   O24       1.0  0.63930  0.10290  0.70640  1.0000 -0.3821904924
O   O25       1.0  0.76780  0.17100  0.33790  1.0000 -0.1829449874
O   O26       1.0  0.23220  0.82900  0.66210  1.0000 -0.1829449874
