# DDEC6 charges by PACMAN v1.1 (https://github.com/mtap-research/PACMAN-charge/)
data_1998[Nd][sqc]3[FSR]1
_chemical_formula_sum              "Nd4 H36 C30 O28"
_cell_length_a       8.60885
_cell_length_b       8.60885
_cell_length_c       19.8803
_cell_angle_alpha    88.2274
_cell_angle_beta     91.7726
_cell_angle_gamma    56.2578

_symmetry_space_group_name_H-M    "P 1"
_symmetry_Int_Tables_number       1

loop_
  _symmetry_equiv_pos_as_xyz
  'x, y, z'

loop_
  _atom_site_type_symbol
  _atom_site_label
  _atom_site_symmetry_multiplicity
  _atom_site_fract_x
  _atom_site_fract_y
  _atom_site_fract_z
  _atom_site_occupancy
  _atom_site_charge
Nd  Nd1       1.0  0.28330  0.79210  0.48810  1.0000 2.0462434553
Nd  Nd2       1.0  0.79210  0.28330  0.01190  1.0000 2.0462434553
Nd  Nd3       1.0  0.71670  0.20790  0.51190  1.0000 2.0462434553
Nd  Nd4       1.0  0.20790  0.71670  0.98810  1.0000 2.0462434553
H   H1        1.0  0.26280  0.49160  0.69770  1.0000 0.1304380261
H   H2        1.0  0.49160  0.26280  0.80230  1.0000 0.1304380261
H   H3        1.0  0.73720  0.50840  0.30230  1.0000 0.1304380261
H   H4        1.0  0.50840  0.73720  0.19770  1.0000 0.1304380261
H   H5        1.0  0.40380  0.30860  0.66180  1.0000 0.1381644595
H   H6        1.0  0.30860  0.40380  0.83820  1.0000 0.1381644595
H   H7        1.0  0.59620  0.69140  0.33820  1.0000 0.1381644595
H   H8        1.0  0.69140  0.59620  0.16180  1.0000 0.1381644595
H   H9        1.0  0.09890  0.35790  0.67460  1.0000 0.098562576
H   H10       1.0  0.35790  0.09890  0.82540  1.0000 0.098562576
H   H11       1.0  0.90110  0.64210  0.32540  1.0000 0.098562576
H   H12       1.0  0.64210  0.90110  0.17460  1.0000 0.098562576
H   H13       1.0  0.01460  0.52920  0.62210  1.0000 0.1101121922
H   H14       1.0  0.52920  0.01460  0.87790  1.0000 0.1101121922
H   H15       1.0  0.98540  0.47080  0.37790  1.0000 0.1101121922
H   H16       1.0  0.47080  0.98540  0.12210  1.0000 0.1101121922
H   H17       1.0  0.20270  0.32670  0.53960  1.0000 0.1553338134
H   H18       1.0  0.32670  0.20270  0.96040  1.0000 0.1553338134
H   H19       1.0  0.79730  0.67330  0.46040  1.0000 0.1553338134
H   H20       1.0  0.67330  0.79730  0.03960  1.0000 0.1553338134
H   H21       1.0  0.28530  0.15590  0.59200  1.0000 0.1381644595
H   H22       1.0  0.15590  0.28530  0.90800  1.0000 0.1381644595
H   H23       1.0  0.71470  0.84410  0.40800  1.0000 0.1381644595
H   H24       1.0  0.84410  0.71470  0.09200  1.0000 0.1381644595
H   H25       1.0  0.39030  0.05590  0.29230  1.0000 0.1304380261
H   H26       1.0  0.05590  0.39030  0.20770  1.0000 0.1304380261
H   H27       1.0  0.60970  0.94410  0.70770  1.0000 0.1304380261
H   H28       1.0  0.94410  0.60970  0.79230  1.0000 0.1304380261
H   H29       1.0  0.22520  0.24000  0.32060  1.0000 0.1381644595
H   H30       1.0  0.24000  0.22520  0.17940  1.0000 0.1381644595
H   H31       1.0  0.77480  0.76000  0.67940  1.0000 0.1381644595
H   H32       1.0  0.76000  0.77480  0.82060  1.0000 0.1381644595
H   H33       1.0  0.18150  0.01130  0.23350  1.0000 0.1101121922
H   H34       1.0  0.01130  0.18150  0.26650  1.0000 0.1101121922
H   H35       1.0  0.81850  0.98870  0.76650  1.0000 0.1101121922
H   H36       1.0  0.98870  0.81850  0.73350  1.0000 0.1101121922
C   C1        1.0  0.30560  0.54600  0.60150  1.0000 0.6707166993
C   C2        1.0  0.54600  0.30560  0.89850  1.0000 0.6707166993
C   C3        1.0  0.69440  0.45400  0.39850  1.0000 0.6707166993
C   C4        1.0  0.45400  0.69440  0.10150  1.0000 0.6707166993
C   C5        1.0  0.28730  0.43070  0.65540  1.0000 -0.3333717323
C   C6        1.0  0.43070  0.28730  0.84460  1.0000 -0.3333717323
C   C7        1.0  0.71270  0.56930  0.34460  1.0000 -0.3333717323
C   C8        1.0  0.56930  0.71270  0.15540  1.0000 -0.3333717323
C   C9        1.0  0.12620  0.40740  0.63560  1.0000 -0.0954586006
C   C10       1.0  0.40740  0.12620  0.86440  1.0000 -0.0954586006
C   C11       1.0  0.87380  0.59260  0.36440  1.0000 -0.0954586006
C   C12       1.0  0.59260  0.87380  0.13560  1.0000 -0.0954586006
C   C13       1.0  0.17380  0.27740  0.57820  1.0000 -0.3354282714
C   C14       1.0  0.27740  0.17380  0.92180  1.0000 -0.3354282714
C   C15       1.0  0.82620  0.72260  0.42180  1.0000 -0.3354282714
C   C16       1.0  0.72260  0.82620  0.07820  1.0000 -0.3354282714
C   C17       1.0  0.97980  0.74840  0.44320  1.0000 0.6707166993
C   C18       1.0  0.74840  0.97980  0.05680  1.0000 0.6707166993
C   C19       1.0  0.02020  0.25160  0.55680  1.0000 0.6707166993
C   C20       1.0  0.25160  0.02020  0.94320  1.0000 0.6707166993
C   C21       1.0  0.27130  0.00450  0.37010  1.0000 0.6127533578
C   C22       1.0  0.00450  0.27130  0.12990  1.0000 0.6127533578
C   C23       1.0  0.72870  0.99550  0.62990  1.0000 0.6127533578
C   C24       1.0  0.99550  0.72870  0.87010  1.0000 0.6127533578
C   C25       1.0  0.26490  0.11570  0.30800  1.0000 -0.3195870853
C   C26       1.0  0.11570  0.26490  0.19200  1.0000 -0.3195870853
C   C27       1.0  0.73510  0.88430  0.69200  1.0000 -0.3195870853
C   C28       1.0  0.88430  0.73510  0.80800  1.0000 -0.3195870853
C   C29       1.0  0.13400  0.13400  0.25000  1.0000 -0.0935921109
C   C30       1.0  0.86600  0.86600  0.75000  1.0000 -0.0935921109
O   O1        1.0  0.44100  0.46940  0.56160  1.0000 -0.7057396508
O   O2        1.0  0.46940  0.44100  0.93840  1.0000 -0.7057396508
O   O3        1.0  0.55900  0.53060  0.43840  1.0000 -0.7057396508
O   O4        1.0  0.53060  0.55900  0.06160  1.0000 -0.7057396508
O   O5        1.0  0.18230  0.71850  0.59430  1.0000 -0.5928445793
O   O6        1.0  0.71850  0.18230  0.90570  1.0000 -0.5928445793
O   O7        1.0  0.81770  0.28150  0.40570  1.0000 -0.5928445793
O   O8        1.0  0.28150  0.81770  0.09430  1.0000 -0.5928445793
O   O9        1.0  0.93530  0.90530  0.46560  1.0000 -0.740331117
O   O10       1.0  0.90530  0.93530  0.03440  1.0000 -0.740331117
O   O11       1.0  0.06470  0.09470  0.53440  1.0000 -0.740331117
O   O12       1.0  0.09470  0.06470  0.96560  1.0000 -0.740331117
O   O13       1.0  0.15030  0.61810  0.44010  1.0000 -0.5509358383
O   O14       1.0  0.61810  0.15030  0.05990  1.0000 -0.5509358383
O   O15       1.0  0.84970  0.38190  0.55990  1.0000 -0.5509358383
O   O16       1.0  0.38190  0.84970  0.94010  1.0000 -0.5509358383
O   O17       1.0  0.20850  0.90170  0.36650  1.0000 -0.6131159699
O   O18       1.0  0.90170  0.20850  0.13350  1.0000 -0.6131159699
O   O19       1.0  0.79150  0.09830  0.63350  1.0000 -0.6131159699
O   O20       1.0  0.09830  0.79150  0.86650  1.0000 -0.6131159699
O   O21       1.0  0.34570  0.00990  0.42580  1.0000 -0.5509358383
O   O22       1.0  0.00990  0.34570  0.07420  1.0000 -0.5509358383
O   O23       1.0  0.65430  0.99010  0.57420  1.0000 -0.5509358383
O   O24       1.0  0.99010  0.65430  0.92580  1.0000 -0.5509358383
O   O25       1.0  0.53650  0.76010  0.56190  1.0000 -0.2658369876
O   O26       1.0  0.76010  0.53650  0.93810  1.0000 -0.2649143673
O   O27       1.0  0.46350  0.23990  0.43810  1.0000 -0.2649143673
O   O28       1.0  0.23990  0.46350  0.06190  1.0000 -0.2658369876
