# DDEC6 charges by PACMAN v1.1 (https://github.com/mtap-research/PACMAN-charge/)
data_2001[La][noy]3[FSR]1
_chemical_formula_sum              "La8 B8 H320 C320 N40 O64"
_cell_length_a       15.814
_cell_length_b       21.958
_cell_length_c       48.422
_cell_angle_alpha    90
_cell_angle_beta     90
_cell_angle_gamma    90

_symmetry_space_group_name_H-M    "P 1"
_symmetry_Int_Tables_number       1

loop_
  _symmetry_equiv_pos_as_xyz
  'x, y, z'

loop_
  _atom_site_type_symbol
  _atom_site_label
  _atom_site_symmetry_multiplicity
  _atom_site_fract_x
  _atom_site_fract_y
  _atom_site_fract_z
  _atom_site_occupancy
  _atom_site_charge
La  La1       1.0  0.88936  0.24945  0.13419  1.0000 1.7600132149
La  La2       1.0  0.38936  0.25055  0.36581  1.0000 1.7600132149
La  La3       1.0  0.61064  0.24945  0.86581  1.0000 1.7600132149
La  La4       1.0  0.11064  0.25055  0.63419  1.0000 1.7600132149
La  La5       1.0  0.11064  0.75055  0.86581  1.0000 1.7600132149
La  La6       1.0  0.61064  0.74945  0.63419  1.0000 1.7600132149
La  La7       1.0  0.38936  0.75055  0.13419  1.0000 1.7600132149
La  La8       1.0  0.88936  0.74945  0.36581  1.0000 1.7600132149
B   B1        1.0  0.02590  0.17590  0.09860  1.0000 0.4471466016
B   B2        1.0  0.52590  0.32410  0.40140  1.0000 0.4471466016
B   B3        1.0  0.47410  0.17590  0.90140  1.0000 0.4471466016
B   B4        1.0  0.97410  0.32410  0.59860  1.0000 0.4471466016
B   B5        1.0  0.97410  0.82410  0.90140  1.0000 0.4471466016
B   B6        1.0  0.47410  0.67590  0.59860  1.0000 0.4471466016
B   B7        1.0  0.52590  0.82410  0.09860  1.0000 0.4471466016
B   B8        1.0  0.02590  0.67590  0.40140  1.0000 0.4471466016
H   H1        1.0  0.99920  0.25700  0.05400  1.0000 0.102491244
H   H2        1.0  0.49920  0.24300  0.44600  1.0000 0.102491244
H   H3        1.0  0.50080  0.25700  0.94600  1.0000 0.102491244
H   H4        1.0  0.00080  0.24300  0.55400  1.0000 0.102491244
H   H5        1.0  0.00080  0.74300  0.94600  1.0000 0.102491244
H   H6        1.0  0.50080  0.75700  0.55400  1.0000 0.102491244
H   H7        1.0  0.49920  0.74300  0.05400  1.0000 0.102491244
H   H8        1.0  0.99920  0.75700  0.44600  1.0000 0.102491244
H   H9        1.0  0.99300  0.31510  0.07270  1.0000 0.102491244
H   H10       1.0  0.49300  0.18490  0.42730  1.0000 0.102491244
H   H11       1.0  0.50700  0.31510  0.92730  1.0000 0.102491244
H   H12       1.0  0.00700  0.18490  0.57270  1.0000 0.102491244
H   H13       1.0  0.00700  0.68490  0.92730  1.0000 0.102491244
H   H14       1.0  0.50700  0.81510  0.57270  1.0000 0.102491244
H   H15       1.0  0.49300  0.68490  0.07270  1.0000 0.102491244
H   H16       1.0  0.99300  0.81510  0.42730  1.0000 0.102491244
H   H17       1.0  0.07580  0.27580  0.07270  1.0000 0.089945238
H   H18       1.0  0.57580  0.22420  0.42730  1.0000 0.089945238
H   H19       1.0  0.42420  0.27580  0.92730  1.0000 0.089945238
H   H20       1.0  0.92420  0.22420  0.57270  1.0000 0.089945238
H   H21       1.0  0.92420  0.72420  0.92730  1.0000 0.089945238
H   H22       1.0  0.42420  0.77580  0.57270  1.0000 0.089945238
H   H23       1.0  0.57580  0.72420  0.07270  1.0000 0.089945238
H   H24       1.0  0.07580  0.77580  0.42730  1.0000 0.089945238
H   H25       1.0  0.02970  0.08050  0.13000  1.0000 0.102491244
H   H26       1.0  0.52970  0.41950  0.37000  1.0000 0.102491244
H   H27       1.0  0.47030  0.08050  0.87000  1.0000 0.102491244
H   H28       1.0  0.97030  0.41950  0.63000  1.0000 0.102491244
H   H29       1.0  0.97030  0.91950  0.87000  1.0000 0.102491244
H   H30       1.0  0.47030  0.58050  0.63000  1.0000 0.102491244
H   H31       1.0  0.52970  0.91950  0.13000  1.0000 0.102491244
H   H32       1.0  0.02970  0.58050  0.37000  1.0000 0.102491244
H   H33       1.0  0.95300  0.09240  0.14980  1.0000 0.089945238
H   H34       1.0  0.45300  0.40760  0.35020  1.0000 0.089945238
H   H35       1.0  0.54700  0.09240  0.85020  1.0000 0.089945238
H   H36       1.0  0.04700  0.40760  0.64980  1.0000 0.089945238
H   H37       1.0  0.04700  0.90760  0.85020  1.0000 0.089945238
H   H38       1.0  0.54700  0.59240  0.64980  1.0000 0.089945238
H   H39       1.0  0.45300  0.90760  0.14980  1.0000 0.089945238
H   H40       1.0  0.95300  0.59240  0.35020  1.0000 0.089945238
H   H41       1.0  0.93690  0.07140  0.11930  1.0000 0.1082431823
H   H42       1.0  0.43690  0.42860  0.38070  1.0000 0.1082431823
H   H43       1.0  0.56310  0.07140  0.88070  1.0000 0.1082431823
H   H44       1.0  0.06310  0.42860  0.61930  1.0000 0.1082431823
H   H45       1.0  0.06310  0.92860  0.88070  1.0000 0.1082431823
H   H46       1.0  0.56310  0.57140  0.61930  1.0000 0.1082431823
H   H47       1.0  0.43690  0.92860  0.11930  1.0000 0.1082431823
H   H48       1.0  0.93690  0.57140  0.38070  1.0000 0.1082431823
H   H49       1.0  0.75300  0.15280  0.13180  1.0000 0.3245754015
H   H50       1.0  0.25300  0.34720  0.36820  1.0000 0.3245754015
H   H51       1.0  0.74700  0.15280  0.86820  1.0000 0.3245754015
H   H52       1.0  0.24700  0.34720  0.63180  1.0000 0.3245754015
H   H53       1.0  0.24700  0.84720  0.86820  1.0000 0.3245754015
H   H54       1.0  0.74700  0.65280  0.63180  1.0000 0.3245754015
H   H55       1.0  0.25300  0.84720  0.13180  1.0000 0.3245754015
H   H56       1.0  0.75300  0.65280  0.36820  1.0000 0.3245754015
H   H57       1.0  0.72410  0.11250  0.17350  1.0000 0.1082431823
H   H58       1.0  0.22410  0.38750  0.32650  1.0000 0.1082431823
H   H59       1.0  0.77590  0.11250  0.82650  1.0000 0.1082431823
H   H60       1.0  0.27590  0.38750  0.67350  1.0000 0.1082431823
H   H61       1.0  0.27590  0.88750  0.82650  1.0000 0.1082431823
H   H62       1.0  0.77590  0.61250  0.67350  1.0000 0.1082431823
H   H63       1.0  0.22410  0.88750  0.17350  1.0000 0.1082431823
H   H64       1.0  0.72410  0.61250  0.32650  1.0000 0.1082431823
H   H65       1.0  0.79550  0.07760  0.15750  1.0000 0.1082431823
H   H66       1.0  0.29550  0.42240  0.34250  1.0000 0.1082431823
H   H67       1.0  0.70450  0.07760  0.84250  1.0000 0.1082431823
H   H68       1.0  0.20450  0.42240  0.65750  1.0000 0.1082431823
H   H69       1.0  0.20450  0.92240  0.84250  1.0000 0.1082431823
H   H70       1.0  0.70450  0.57760  0.65750  1.0000 0.1082431823
H   H71       1.0  0.29550  0.92240  0.15750  1.0000 0.1082431823
H   H72       1.0  0.79550  0.57760  0.34250  1.0000 0.1082431823
H   H73       1.0  0.81940  0.12540  0.18030  1.0000 0.1197961842
H   H74       1.0  0.31940  0.37460  0.31970  1.0000 0.1197961842
H   H75       1.0  0.68060  0.12540  0.81970  1.0000 0.1197961842
H   H76       1.0  0.18060  0.37460  0.68030  1.0000 0.1197961842
H   H77       1.0  0.18060  0.87460  0.81970  1.0000 0.1197961842
H   H78       1.0  0.68060  0.62540  0.68030  1.0000 0.1197961842
H   H79       1.0  0.31940  0.87460  0.18030  1.0000 0.1197961842
H   H80       1.0  0.81940  0.62540  0.31970  1.0000 0.1197961842
H   H81       1.0  0.69200  0.17020  0.06980  1.0000 0.1197961842
H   H82       1.0  0.19200  0.32980  0.43020  1.0000 0.1197961842
H   H83       1.0  0.80800  0.17020  0.93020  1.0000 0.1197961842
H   H84       1.0  0.30800  0.32980  0.56980  1.0000 0.1197961842
H   H85       1.0  0.30800  0.82980  0.93020  1.0000 0.1197961842
H   H86       1.0  0.80800  0.67020  0.56980  1.0000 0.1197961842
H   H87       1.0  0.19200  0.82980  0.06980  1.0000 0.1197961842
H   H88       1.0  0.69200  0.67020  0.43020  1.0000 0.1197961842
H   H89       1.0  0.67930  0.17120  0.02260  1.0000 0.1372941729
H   H90       1.0  0.17930  0.32880  0.47740  1.0000 0.1372941729
H   H91       1.0  0.82070  0.17120  0.97740  1.0000 0.1372941729
H   H92       1.0  0.32070  0.32880  0.52260  1.0000 0.1372941729
H   H93       1.0  0.32070  0.82880  0.97740  1.0000 0.1372941729
H   H94       1.0  0.82070  0.67120  0.52260  1.0000 0.1372941729
H   H95       1.0  0.17930  0.82880  0.02260  1.0000 0.1372941729
H   H96       1.0  0.67930  0.67120  0.47740  1.0000 0.1372941729
H   H97       1.0  0.82850  0.31740  0.01940  1.0000 0.1372941729
H   H98       1.0  0.32850  0.18260  0.48060  1.0000 0.1372941729
H   H99       1.0  0.67150  0.31740  0.98060  1.0000 0.1372941729
H   H100      1.0  0.17150  0.18260  0.51940  1.0000 0.1372941729
H   H101      1.0  0.17150  0.68260  0.98060  1.0000 0.1372941729
H   H102      1.0  0.67150  0.81740  0.51940  1.0000 0.1372941729
H   H103      1.0  0.32850  0.68260  0.01940  1.0000 0.1372941729
H   H104      1.0  0.82850  0.81740  0.48060  1.0000 0.1372941729
H   H105      1.0  0.83890  0.31470  0.06670  1.0000 0.1197961842
H   H106      1.0  0.33890  0.18530  0.43330  1.0000 0.1197961842
H   H107      1.0  0.66110  0.31470  0.93330  1.0000 0.1197961842
H   H108      1.0  0.16110  0.18530  0.56670  1.0000 0.1197961842
H   H109      1.0  0.16110  0.68530  0.93330  1.0000 0.1197961842
H   H110      1.0  0.66110  0.81470  0.56670  1.0000 0.1197961842
H   H111      1.0  0.33890  0.68530  0.06670  1.0000 0.1197961842
H   H112      1.0  0.83890  0.81470  0.43330  1.0000 0.1197961842
H   H113      1.0  0.91050  0.46470  0.11100  1.0000 0.1197961842
H   H114      1.0  0.41050  0.03530  0.38900  1.0000 0.1197961842
H   H115      1.0  0.58950  0.46470  0.88900  1.0000 0.1197961842
H   H116      1.0  0.08950  0.03530  0.61100  1.0000 0.1197961842
H   H117      1.0  0.08950  0.53530  0.88900  1.0000 0.1197961842
H   H118      1.0  0.58950  0.96470  0.61100  1.0000 0.1197961842
H   H119      1.0  0.41050  0.53530  0.11100  1.0000 0.1197961842
H   H120      1.0  0.91050  0.96470  0.38900  1.0000 0.1197961842
H   H121      1.0  0.81930  0.54470  0.11710  1.0000 0.1372941729
H   H122      1.0  0.31930  0.95530  0.38290  1.0000 0.1372941729
H   H123      1.0  0.68070  0.54470  0.88290  1.0000 0.1372941729
H   H124      1.0  0.18070  0.95530  0.61710  1.0000 0.1372941729
H   H125      1.0  0.18070  0.45530  0.88290  1.0000 0.1372941729
H   H126      1.0  0.68070  0.04470  0.61710  1.0000 0.1372941729
H   H127      1.0  0.31930  0.45530  0.11710  1.0000 0.1372941729
H   H128      1.0  0.81930  0.04470  0.38290  1.0000 0.1372941729
H   H129      1.0  0.62840  0.42710  0.12440  1.0000 0.1372941729
H   H130      1.0  0.12840  0.07290  0.37560  1.0000 0.1372941729
H   H131      1.0  0.87160  0.42710  0.87560  1.0000 0.1372941729
H   H132      1.0  0.37160  0.07290  0.62440  1.0000 0.1372941729
H   H133      1.0  0.37160  0.57290  0.87560  1.0000 0.1372941729
H   H134      1.0  0.87160  0.92710  0.62440  1.0000 0.1372941729
H   H135      1.0  0.12840  0.57290  0.12440  1.0000 0.1372941729
H   H136      1.0  0.62840  0.92710  0.37560  1.0000 0.1372941729
H   H137      1.0  0.72230  0.34850  0.11790  1.0000 0.1197961842
H   H138      1.0  0.22230  0.15150  0.38210  1.0000 0.1197961842
H   H139      1.0  0.77770  0.34850  0.88210  1.0000 0.1197961842
H   H140      1.0  0.27770  0.15150  0.61790  1.0000 0.1197961842
H   H141      1.0  0.27770  0.65150  0.88210  1.0000 0.1197961842
H   H142      1.0  0.77770  0.84850  0.61790  1.0000 0.1197961842
H   H143      1.0  0.22230  0.65150  0.11790  1.0000 0.1197961842
H   H144      1.0  0.72230  0.84850  0.38210  1.0000 0.1197961842
H   H145      1.0  0.48780  0.58410  0.16290  1.0000 0.1197961842
H   H146      1.0  0.98780  0.91590  0.33710  1.0000 0.1197961842
H   H147      1.0  0.01220  0.58410  0.83710  1.0000 0.1197961842
H   H148      1.0  0.51220  0.91590  0.66290  1.0000 0.1197961842
H   H149      1.0  0.51220  0.41590  0.83710  1.0000 0.1197961842
H   H150      1.0  0.01220  0.08410  0.66290  1.0000 0.1197961842
H   H151      1.0  0.98780  0.41590  0.16290  1.0000 0.1197961842
H   H152      1.0  0.48780  0.08410  0.33710  1.0000 0.1197961842
H   H153      1.0  0.57140  0.50210  0.15150  1.0000 0.1315033209
H   H154      1.0  0.07140  0.99790  0.34850  1.0000 0.1315033209
H   H155      1.0  0.92860  0.50210  0.84850  1.0000 0.1315033209
H   H156      1.0  0.42860  0.99790  0.65150  1.0000 0.1315033209
H   H157      1.0  0.42860  0.49790  0.84850  1.0000 0.1315033209
H   H158      1.0  0.92860  0.00210  0.65150  1.0000 0.1315033209
H   H159      1.0  0.07140  0.49790  0.15150  1.0000 0.1315033209
H   H160      1.0  0.57140  0.00210  0.34850  1.0000 0.1315033209
H   H161      1.0  0.71680  0.61260  0.10620  1.0000 0.1315033209
H   H162      1.0  0.21680  0.88740  0.39380  1.0000 0.1315033209
H   H163      1.0  0.78320  0.61260  0.89380  1.0000 0.1315033209
H   H164      1.0  0.28320  0.88740  0.60620  1.0000 0.1315033209
H   H165      1.0  0.28320  0.38740  0.89380  1.0000 0.1315033209
H   H166      1.0  0.78320  0.11260  0.60620  1.0000 0.1315033209
H   H167      1.0  0.21680  0.38740  0.10620  1.0000 0.1315033209
H   H168      1.0  0.71680  0.11260  0.39380  1.0000 0.1315033209
H   H169      1.0  0.63270  0.69300  0.11910  1.0000 0.1197961842
H   H170      1.0  0.13270  0.80700  0.38090  1.0000 0.1197961842
H   H171      1.0  0.86730  0.69300  0.88090  1.0000 0.1197961842
H   H172      1.0  0.36730  0.80700  0.61910  1.0000 0.1197961842
H   H173      1.0  0.36730  0.30700  0.88090  1.0000 0.1197961842
H   H174      1.0  0.86730  0.19300  0.61910  1.0000 0.1197961842
H   H175      1.0  0.13270  0.30700  0.11910  1.0000 0.1197961842
H   H176      1.0  0.63270  0.19300  0.38090  1.0000 0.1197961842
H   H177      1.0  0.00760  0.11560  0.19570  1.0000 0.1197961842
H   H178      1.0  0.50760  0.38440  0.30430  1.0000 0.1197961842
H   H179      1.0  0.49240  0.11560  0.80430  1.0000 0.1197961842
H   H180      1.0  0.99240  0.38440  0.69570  1.0000 0.1197961842
H   H181      1.0  0.99240  0.88440  0.80430  1.0000 0.1197961842
H   H182      1.0  0.49240  0.61560  0.69570  1.0000 0.1197961842
H   H183      1.0  0.50760  0.88440  0.19570  1.0000 0.1197961842
H   H184      1.0  0.00760  0.61560  0.30430  1.0000 0.1197961842
H   H185      1.0  0.11130  0.11260  0.22880  1.0000 0.1315033209
H   H186      1.0  0.61130  0.38740  0.27120  1.0000 0.1315033209
H   H187      1.0  0.38870  0.11260  0.77120  1.0000 0.1315033209
H   H188      1.0  0.88870  0.38740  0.72880  1.0000 0.1315033209
H   H189      1.0  0.88870  0.88740  0.77120  1.0000 0.1315033209
H   H190      1.0  0.38870  0.61260  0.72880  1.0000 0.1315033209
H   H191      1.0  0.61130  0.88740  0.22880  1.0000 0.1315033209
H   H192      1.0  0.11130  0.61260  0.27120  1.0000 0.1315033209
H   H193      1.0  0.08560  0.29150  0.23890  1.0000 0.1315033209
H   H194      1.0  0.58560  0.20850  0.26110  1.0000 0.1315033209
H   H195      1.0  0.41440  0.29150  0.76110  1.0000 0.1315033209
H   H196      1.0  0.91440  0.20850  0.73890  1.0000 0.1315033209
H   H197      1.0  0.91440  0.70850  0.76110  1.0000 0.1315033209
H   H198      1.0  0.41440  0.79150  0.73890  1.0000 0.1315033209
H   H199      1.0  0.58560  0.70850  0.23890  1.0000 0.1315033209
H   H200      1.0  0.08560  0.79150  0.26110  1.0000 0.1315033209
H   H201      1.0  0.98860  0.29260  0.20370  1.0000 0.1197961842
H   H202      1.0  0.48860  0.20740  0.29630  1.0000 0.1197961842
H   H203      1.0  0.51140  0.29260  0.79630  1.0000 0.1197961842
H   H204      1.0  0.01140  0.20740  0.70370  1.0000 0.1197961842
H   H205      1.0  0.01140  0.70740  0.79630  1.0000 0.1197961842
H   H206      1.0  0.51140  0.79260  0.70370  1.0000 0.1197961842
H   H207      1.0  0.48860  0.70740  0.20370  1.0000 0.1197961842
H   H208      1.0  0.98860  0.79260  0.29630  1.0000 0.1197961842
H   H209      1.0  0.19120  0.26540  0.32270  1.0000 0.1197961842
H   H210      1.0  0.69120  0.23460  0.17730  1.0000 0.1197961842
H   H211      1.0  0.30880  0.26540  0.67730  1.0000 0.1197961842
H   H212      1.0  0.80880  0.23460  0.82270  1.0000 0.1197961842
H   H213      1.0  0.80880  0.73460  0.67730  1.0000 0.1197961842
H   H214      1.0  0.30880  0.76540  0.82270  1.0000 0.1197961842
H   H215      1.0  0.69120  0.73460  0.32270  1.0000 0.1197961842
H   H216      1.0  0.19120  0.76540  0.17730  1.0000 0.1197961842
H   H217      1.0  0.10770  0.26880  0.28400  1.0000 0.1315033209
H   H218      1.0  0.60770  0.23120  0.21600  1.0000 0.1315033209
H   H219      1.0  0.39230  0.26880  0.71600  1.0000 0.1315033209
H   H220      1.0  0.89230  0.23120  0.78400  1.0000 0.1315033209
H   H221      1.0  0.89230  0.73120  0.71600  1.0000 0.1315033209
H   H222      1.0  0.39230  0.76880  0.78400  1.0000 0.1315033209
H   H223      1.0  0.60770  0.73120  0.28400  1.0000 0.1315033209
H   H224      1.0  0.10770  0.76880  0.21600  1.0000 0.1315033209
H   H225      1.0  0.23810  0.12910  0.25280  1.0000 0.1315033209
H   H226      1.0  0.73810  0.37090  0.24720  1.0000 0.1315033209
H   H227      1.0  0.26190  0.12910  0.74720  1.0000 0.1315033209
H   H228      1.0  0.76190  0.37090  0.75280  1.0000 0.1315033209
H   H229      1.0  0.76190  0.87090  0.74720  1.0000 0.1315033209
H   H230      1.0  0.26190  0.62910  0.75280  1.0000 0.1315033209
H   H231      1.0  0.73810  0.87090  0.25280  1.0000 0.1315033209
H   H232      1.0  0.23810  0.62910  0.24720  1.0000 0.1315033209
H   H233      1.0  0.31580  0.12490  0.29280  1.0000 0.1197961842
H   H234      1.0  0.81580  0.37510  0.20720  1.0000 0.1197961842
H   H235      1.0  0.18420  0.12490  0.70720  1.0000 0.1197961842
H   H236      1.0  0.68420  0.37510  0.79280  1.0000 0.1197961842
H   H237      1.0  0.68420  0.87510  0.70720  1.0000 0.1197961842
H   H238      1.0  0.18420  0.62490  0.79280  1.0000 0.1197961842
H   H239      1.0  0.81580  0.87510  0.29280  1.0000 0.1197961842
H   H240      1.0  0.31580  0.62490  0.20720  1.0000 0.1197961842
H   H241      1.0  0.17840  0.19470  0.07120  1.0000 0.1082431823
H   H242      1.0  0.67840  0.30530  0.42880  1.0000 0.1082431823
H   H243      1.0  0.32160  0.19470  0.92880  1.0000 0.1082431823
H   H244      1.0  0.82160  0.30530  0.57120  1.0000 0.1082431823
H   H245      1.0  0.82160  0.80530  0.92880  1.0000 0.1082431823
H   H246      1.0  0.32160  0.69470  0.57120  1.0000 0.1082431823
H   H247      1.0  0.67840  0.80530  0.07120  1.0000 0.1082431823
H   H248      1.0  0.17840  0.69470  0.42880  1.0000 0.1082431823
H   H249      1.0  0.31080  0.21960  0.08670  1.0000 0.102491244
H   H250      1.0  0.81080  0.28040  0.41330  1.0000 0.102491244
H   H251      1.0  0.18920  0.21960  0.91330  1.0000 0.102491244
H   H252      1.0  0.68920  0.28040  0.58670  1.0000 0.102491244
H   H253      1.0  0.68920  0.78040  0.91330  1.0000 0.102491244
H   H254      1.0  0.18920  0.71960  0.58670  1.0000 0.102491244
H   H255      1.0  0.81080  0.78040  0.08670  1.0000 0.102491244
H   H256      1.0  0.31080  0.71960  0.41330  1.0000 0.102491244
H   H257      1.0  0.34000  0.22560  0.13350  1.0000 0.102491244
H   H258      1.0  0.84000  0.27440  0.36650  1.0000 0.102491244
H   H259      1.0  0.16000  0.22560  0.86650  1.0000 0.102491244
H   H260      1.0  0.66000  0.27440  0.63350  1.0000 0.102491244
H   H261      1.0  0.66000  0.77440  0.86650  1.0000 0.102491244
H   H262      1.0  0.16000  0.72560  0.63350  1.0000 0.102491244
H   H263      1.0  0.84000  0.77440  0.13350  1.0000 0.102491244
H   H264      1.0  0.34000  0.72560  0.36650  1.0000 0.102491244
H   H265      1.0  0.23120  0.20640  0.16470  1.0000 0.1082431823
H   H266      1.0  0.73120  0.29360  0.33530  1.0000 0.1082431823
H   H267      1.0  0.26880  0.20640  0.83530  1.0000 0.1082431823
H   H268      1.0  0.76880  0.29360  0.66470  1.0000 0.1082431823
H   H269      1.0  0.76880  0.79360  0.83530  1.0000 0.1082431823
H   H270      1.0  0.26880  0.70640  0.66470  1.0000 0.1082431823
H   H271      1.0  0.73120  0.79360  0.16470  1.0000 0.1082431823
H   H272      1.0  0.23120  0.70640  0.33530  1.0000 0.1082431823
H   H273      1.0  0.09900  0.18120  0.14900  1.0000 0.102491244
H   H274      1.0  0.59900  0.31880  0.35100  1.0000 0.102491244
H   H275      1.0  0.40100  0.18120  0.85100  1.0000 0.102491244
H   H276      1.0  0.90100  0.31880  0.64900  1.0000 0.1082431823
H   H277      1.0  0.90100  0.81880  0.85100  1.0000 0.102491244
H   H278      1.0  0.40100  0.68120  0.64900  1.0000 0.102491244
H   H279      1.0  0.59900  0.81880  0.14900  1.0000 0.102491244
H   H280      1.0  0.09900  0.68120  0.35100  1.0000 0.102491244
H   H281      1.0  0.11900  0.08370  0.07120  1.0000 0.1082431823
H   H282      1.0  0.61900  0.41630  0.42880  1.0000 0.1082431823
H   H283      1.0  0.38100  0.08370  0.92880  1.0000 0.1082431823
H   H284      1.0  0.88100  0.41630  0.57120  1.0000 0.1082431823
H   H285      1.0  0.88100  0.91630  0.92880  1.0000 0.1082431823
H   H286      1.0  0.38100  0.58370  0.57120  1.0000 0.1082431823
H   H287      1.0  0.61900  0.91630  0.07120  1.0000 0.1082431823
H   H288      1.0  0.11900  0.58370  0.42880  1.0000 0.1082431823
H   H289      1.0  0.07820  0.00670  0.04170  1.0000 0.102491244
H   H290      1.0  0.57820  0.49330  0.45830  1.0000 0.102491244
H   H291      1.0  0.42180  0.00670  0.95830  1.0000 0.102491244
H   H292      1.0  0.92180  0.49330  0.54170  1.0000 0.102491244
H   H293      1.0  0.92180  0.99330  0.95830  1.0000 0.102491244
H   H294      1.0  0.42180  0.50670  0.54170  1.0000 0.102491244
H   H295      1.0  0.57820  0.99330  0.04170  1.0000 0.102491244
H   H296      1.0  0.07820  0.50670  0.45830  1.0000 0.102491244
H   H297      1.0  0.94010  0.00390  0.02530  1.0000 0.102491244
H   H298      1.0  0.44010  0.49610  0.47470  1.0000 0.102491244
H   H299      1.0  0.55990  0.00390  0.97470  1.0000 0.102491244
H   H300      1.0  0.05990  0.49610  0.52530  1.0000 0.102491244
H   H301      1.0  0.05990  0.99610  0.97470  1.0000 0.102491244
H   H302      1.0  0.55990  0.50390  0.52530  1.0000 0.102491244
H   H303      1.0  0.44010  0.99610  0.02530  1.0000 0.102491244
H   H304      1.0  0.94010  0.50390  0.47470  1.0000 0.102491244
H   H305      1.0  0.84430  0.07740  0.03970  1.0000 0.102491244
H   H306      1.0  0.34430  0.42260  0.46030  1.0000 0.102491244
H   H307      1.0  0.65570  0.07740  0.96030  1.0000 0.102491244
H   H308      1.0  0.15570  0.42260  0.53970  1.0000 0.102491244
H   H309      1.0  0.15570  0.92260  0.96030  1.0000 0.102491244
H   H310      1.0  0.65570  0.57740  0.53970  1.0000 0.102491244
H   H311      1.0  0.34430  0.92260  0.03970  1.0000 0.102491244
H   H312      1.0  0.84430  0.57740  0.46030  1.0000 0.102491244
H   H313      1.0  0.88710  0.15360  0.06900  1.0000 0.102491244
H   H314      1.0  0.38710  0.34640  0.43100  1.0000 0.102491244
H   H315      1.0  0.61290  0.15360  0.93100  1.0000 0.102491244
H   H316      1.0  0.11290  0.34640  0.56900  1.0000 0.102491244
H   H317      1.0  0.11290  0.84640  0.93100  1.0000 0.102491244
H   H318      1.0  0.61290  0.65360  0.56900  1.0000 0.102491244
H   H319      1.0  0.38710  0.84640  0.06900  1.0000 0.102491244
H   H320      1.0  0.88710  0.65360  0.43100  1.0000 0.102491244
C   C1        1.0  0.01530  0.27450  0.07137  1.0000 -0.1908855336
C   C2        1.0  0.51530  0.22550  0.42863  1.0000 -0.1908855336
C   C3        1.0  0.48470  0.27450  0.92863  1.0000 -0.1908855336
C   C4        1.0  0.98470  0.22550  0.57137  1.0000 -0.1908855336
C   C5        1.0  0.98470  0.72550  0.92863  1.0000 -0.1908855336
C   C6        1.0  0.48470  0.77450  0.57137  1.0000 -0.1908855336
C   C7        1.0  0.51530  0.72550  0.07137  1.0000 -0.1908855336
C   C8        1.0  0.01530  0.77450  0.42863  1.0000 -0.1908855336
C   C9        1.0  0.97270  0.09530  0.13110  1.0000 -0.2109946314
C   C10       1.0  0.47270  0.40470  0.36890  1.0000 -0.2109946314
C   C11       1.0  0.52730  0.09530  0.86890  1.0000 -0.2109946314
C   C12       1.0  0.02730  0.40470  0.63110  1.0000 -0.2109946314
C   C13       1.0  0.02730  0.90470  0.86890  1.0000 -0.2109946314
C   C14       1.0  0.52730  0.59530  0.63110  1.0000 -0.2109946314
C   C15       1.0  0.47270  0.90470  0.13110  1.0000 -0.2109946314
C   C16       1.0  0.97270  0.59530  0.36890  1.0000 -0.2109946314
C   C17       1.0  0.78000  0.11570  0.16580  1.0000 -0.2109946314
C   C18       1.0  0.28000  0.38430  0.33420  1.0000 -0.2109946314
C   C19       1.0  0.72000  0.11570  0.83420  1.0000 -0.2109946314
C   C20       1.0  0.22000  0.38430  0.66580  1.0000 -0.2109946314
C   C21       1.0  0.22000  0.88430  0.83420  1.0000 -0.2109946314
C   C22       1.0  0.72000  0.61570  0.66580  1.0000 -0.2109946314
C   C23       1.0  0.28000  0.88430  0.16580  1.0000 -0.2109946314
C   C24       1.0  0.78000  0.61570  0.33420  1.0000 -0.2109946314
C   C25       1.0  0.71960  0.19990  0.05947  1.0000 -0.0703078993
C   C26       1.0  0.21960  0.30010  0.44053  1.0000 -0.0703078993
C   C27       1.0  0.78040  0.19990  0.94053  1.0000 -0.0703078993
C   C28       1.0  0.28040  0.30010  0.55947  1.0000 -0.0703078993
C   C29       1.0  0.28040  0.80010  0.94053  1.0000 -0.0703078993
C   C30       1.0  0.78040  0.69990  0.55947  1.0000 -0.0703078993
C   C31       1.0  0.21960  0.80010  0.05947  1.0000 -0.0703078993
C   C32       1.0  0.71960  0.69990  0.44053  1.0000 -0.0703078993
C   C33       1.0  0.71230  0.20060  0.03123  1.0000 -0.1908855336
C   C34       1.0  0.21230  0.29940  0.46877  1.0000 -0.1908855336
C   C35       1.0  0.78770  0.20060  0.96877  1.0000 -0.1908855336
C   C36       1.0  0.28770  0.29940  0.53123  1.0000 -0.1908855336
C   C37       1.0  0.28770  0.79940  0.96877  1.0000 -0.1908855336
C   C38       1.0  0.78770  0.70060  0.53123  1.0000 -0.1908855336
C   C39       1.0  0.21230  0.79940  0.03123  1.0000 -0.1908855336
C   C40       1.0  0.71230  0.70060  0.46877  1.0000 -0.1908855336
C   C41       1.0  0.75290  0.24400  0.01526  1.0000 0.089945238
C   C42       1.0  0.25290  0.25600  0.48474  1.0000 0.089945238
C   C43       1.0  0.74710  0.24400  0.98474  1.0000 0.089945238
C   C44       1.0  0.24710  0.25600  0.51526  1.0000 0.089945238
C   C45       1.0  0.24710  0.75600  0.98474  1.0000 0.089945238
C   C46       1.0  0.74710  0.74400  0.51526  1.0000 0.089945238
C   C47       1.0  0.25290  0.75600  0.01526  1.0000 0.089945238
C   C48       1.0  0.75290  0.74400  0.48474  1.0000 0.089945238
C   C49       1.0  0.80050  0.28710  0.02928  1.0000 -0.1781597035
C   C50       1.0  0.30050  0.21290  0.47072  1.0000 -0.1781597035
C   C51       1.0  0.69950  0.28710  0.97072  1.0000 -0.1781597035
C   C52       1.0  0.19950  0.21290  0.52928  1.0000 -0.1781597035
C   C53       1.0  0.19950  0.71290  0.97072  1.0000 -0.1781597035
C   C54       1.0  0.69950  0.78710  0.52928  1.0000 -0.1781597035
C   C55       1.0  0.30050  0.71290  0.02928  1.0000 -0.1781597035
C   C56       1.0  0.80050  0.78710  0.47072  1.0000 -0.1781597035
C   C57       1.0  0.80670  0.28550  0.05759  1.0000 -0.0703078993
C   C58       1.0  0.30670  0.21450  0.44241  1.0000 -0.0703078993
C   C59       1.0  0.69330  0.28550  0.94241  1.0000 -0.0703078993
C   C60       1.0  0.19330  0.21450  0.55759  1.0000 -0.0703078993
C   C61       1.0  0.19330  0.71450  0.94241  1.0000 -0.0703078993
C   C62       1.0  0.69330  0.78550  0.55759  1.0000 -0.0703078993
C   C63       1.0  0.30670  0.71450  0.05759  1.0000 -0.0703078993
C   C64       1.0  0.80670  0.78550  0.44241  1.0000 -0.0703078993
C   C65       1.0  0.85340  0.45730  0.11407  1.0000 -0.079930732
C   C66       1.0  0.35340  0.04270  0.38593  1.0000 -0.079930732
C   C67       1.0  0.64660  0.45730  0.88593  1.0000 -0.079930732
C   C68       1.0  0.14660  0.04270  0.61407  1.0000 -0.079930732
C   C69       1.0  0.14660  0.54270  0.88593  1.0000 -0.079930732
C   C70       1.0  0.64660  0.95730  0.61407  1.0000 -0.079930732
C   C71       1.0  0.35340  0.54270  0.11407  1.0000 -0.079930732
C   C72       1.0  0.85340  0.95730  0.38593  1.0000 -0.079930732
C   C73       1.0  0.79850  0.50500  0.11769  1.0000 -0.1908855336
C   C74       1.0  0.29850  0.99500  0.38231  1.0000 -0.1908855336
C   C75       1.0  0.70150  0.50500  0.88231  1.0000 -0.1908855336
C   C76       1.0  0.20150  0.99500  0.61769  1.0000 -0.1908855336
C   C77       1.0  0.20150  0.49500  0.88231  1.0000 -0.1908855336
C   C78       1.0  0.70150  0.00500  0.61769  1.0000 -0.1908855336
C   C79       1.0  0.29850  0.49500  0.11769  1.0000 -0.1908855336
C   C80       1.0  0.79850  0.00500  0.38231  1.0000 -0.1908855336
C   C81       1.0  0.71310  0.49570  0.12220  1.0000 0.089945238
C   C82       1.0  0.21310  0.00430  0.37780  1.0000 0.089945238
C   C83       1.0  0.78690  0.49570  0.87780  1.0000 0.089945238
C   C84       1.0  0.28690  0.00430  0.62220  1.0000 0.089945238
C   C85       1.0  0.28690  0.50430  0.87780  1.0000 0.089945238
C   C86       1.0  0.78690  0.99570  0.62220  1.0000 0.089945238
C   C87       1.0  0.21310  0.50430  0.12220  1.0000 0.089945238
C   C88       1.0  0.71310  0.99570  0.37780  1.0000 0.089945238
C   C89       1.0  0.68550  0.43560  0.12195  1.0000 -0.1908855336
C   C90       1.0  0.18550  0.06440  0.37805  1.0000 -0.1908855336
C   C91       1.0  0.81450  0.43560  0.87805  1.0000 -0.1908855336
C   C92       1.0  0.31450  0.06440  0.62195  1.0000 -0.1908855336
C   C93       1.0  0.31450  0.56440  0.87805  1.0000 -0.1908855336
C   C94       1.0  0.81450  0.93560  0.62195  1.0000 -0.1908855336
C   C95       1.0  0.18550  0.56440  0.12195  1.0000 -0.1908855336
C   C96       1.0  0.68550  0.93560  0.37805  1.0000 -0.1908855336
C   C97       1.0  0.74180  0.38850  0.11818  1.0000 -0.0612216371
C   C98       1.0  0.24180  0.11150  0.38182  1.0000 -0.0612216371
C   C99       1.0  0.75820  0.38850  0.88182  1.0000 -0.0612216371
C   C100      1.0  0.25820  0.11150  0.61818  1.0000 -0.0612216371
C   C101      1.0  0.25820  0.61150  0.88182  1.0000 -0.0612216371
C   C102      1.0  0.75820  0.88850  0.61818  1.0000 -0.0612216371
C   C103      1.0  0.24180  0.61150  0.11818  1.0000 -0.0612216371
C   C104      1.0  0.74180  0.88850  0.38182  1.0000 -0.0612216371
C   C105      1.0  0.53520  0.58950  0.15180  1.0000 -0.0612216371
C   C106      1.0  0.03520  0.91050  0.34820  1.0000 -0.0703078993
C   C107      1.0  0.96480  0.58950  0.84820  1.0000 -0.0612216371
C   C108      1.0  0.46480  0.91050  0.65180  1.0000 -0.0612216371
C   C109      1.0  0.46480  0.41050  0.84820  1.0000 -0.0612216371
C   C110      1.0  0.96480  0.08950  0.65180  1.0000 -0.0612216371
C   C111      1.0  0.03520  0.41050  0.15180  1.0000 -0.0703078993
C   C112      1.0  0.53520  0.08950  0.34820  1.0000 -0.0612216371
C   C113      1.0  0.58510  0.54060  0.14493  1.0000 -0.1908855336
C   C114      1.0  0.08510  0.95940  0.35507  1.0000 -0.1908855336
C   C115      1.0  0.91490  0.54060  0.85507  1.0000 -0.1908855336
C   C116      1.0  0.41490  0.95940  0.64493  1.0000 -0.1908855336
C   C117      1.0  0.41490  0.45940  0.85507  1.0000 -0.1908855336
C   C118      1.0  0.91490  0.04060  0.64493  1.0000 -0.1908855336
C   C119      1.0  0.08510  0.45940  0.14493  1.0000 -0.1908855336
C   C120      1.0  0.58510  0.04060  0.35507  1.0000 -0.1908855336
C   C121      1.0  0.65580  0.54790  0.12824  1.0000 0.089945238
C   C122      1.0  0.15580  0.95210  0.37176  1.0000 0.089945238
C   C123      1.0  0.84420  0.54790  0.87176  1.0000 0.089945238
C   C124      1.0  0.34420  0.95210  0.62824  1.0000 0.089945238
C   C125      1.0  0.34420  0.45210  0.87176  1.0000 0.089945238
C   C126      1.0  0.84420  0.04790  0.62824  1.0000 0.089945238
C   C127      1.0  0.15580  0.45210  0.12824  1.0000 0.089945238
C   C128      1.0  0.65580  0.04790  0.37176  1.0000 0.089945238
C   C129      1.0  0.67160  0.60620  0.11812  1.0000 -0.1908855336
C   C130      1.0  0.17160  0.89380  0.38188  1.0000 -0.1908855336
C   C131      1.0  0.82840  0.60620  0.88188  1.0000 -0.1908855336
C   C132      1.0  0.32840  0.89380  0.61812  1.0000 -0.1908855336
C   C133      1.0  0.32840  0.39380  0.88188  1.0000 -0.1908855336
C   C134      1.0  0.82840  0.10620  0.61812  1.0000 -0.1908855336
C   C135      1.0  0.17160  0.39380  0.11812  1.0000 -0.1908855336
C   C136      1.0  0.67160  0.10620  0.38188  1.0000 -0.1908855336
C   C137      1.0  0.62100  0.65410  0.12566  1.0000 -0.0436369054
C   C138      1.0  0.12100  0.84590  0.37434  1.0000 -0.0436369054
C   C139      1.0  0.87900  0.65410  0.87434  1.0000 -0.0436369054
C   C140      1.0  0.37900  0.84590  0.62566  1.0000 -0.0436369054
C   C141      1.0  0.37900  0.34590  0.87434  1.0000 -0.0436369054
C   C142      1.0  0.87900  0.15410  0.62566  1.0000 -0.0436369054
C   C143      1.0  0.12100  0.34590  0.12566  1.0000 -0.0436369054
C   C144      1.0  0.62100  0.15410  0.37434  1.0000 -0.0436369054
C   C145      1.0  0.02290  0.15110  0.20490  1.0000 -0.079930732
C   C146      1.0  0.52290  0.34890  0.29510  1.0000 -0.079930732
C   C147      1.0  0.47710  0.15110  0.79510  1.0000 -0.079930732
C   C148      1.0  0.97710  0.34890  0.70490  1.0000 -0.079930732
C   C149      1.0  0.97710  0.84890  0.79510  1.0000 -0.079930732
C   C150      1.0  0.47710  0.65110  0.70490  1.0000 -0.079930732
C   C151      1.0  0.52290  0.84890  0.20490  1.0000 -0.079930732
C   C152      1.0  0.02290  0.65110  0.29510  1.0000 -0.079930732
C   C153      1.0  0.08380  0.14910  0.22510  1.0000 -0.1781597035
C   C154      1.0  0.58380  0.35090  0.27490  1.0000 -0.1781597035
C   C155      1.0  0.41620  0.14910  0.77490  1.0000 -0.1781597035
C   C156      1.0  0.91620  0.35090  0.72510  1.0000 -0.1781597035
C   C157      1.0  0.91620  0.85090  0.77490  1.0000 -0.1781597035
C   C158      1.0  0.41620  0.64910  0.72510  1.0000 -0.1781597035
C   C159      1.0  0.58380  0.85090  0.22510  1.0000 -0.1781597035
C   C160      1.0  0.08380  0.64910  0.27490  1.0000 -0.1781597035
C   C161      1.0  0.10470  0.20090  0.23994  1.0000 0.0845325064
C   C162      1.0  0.60470  0.29910  0.26006  1.0000 0.089945238
C   C163      1.0  0.39530  0.20090  0.76006  1.0000 0.089945238
C   C164      1.0  0.89530  0.29910  0.73994  1.0000 0.089945238
C   C165      1.0  0.89530  0.79910  0.76006  1.0000 0.089945238
C   C166      1.0  0.39530  0.70090  0.73994  1.0000 0.0845325064
C   C167      1.0  0.60470  0.79910  0.23994  1.0000 0.0845325064
C   C168      1.0  0.10470  0.70090  0.26006  1.0000 0.0845325064
C   C169      1.0  0.06930  0.25500  0.23074  1.0000 -0.1908855336
C   C170      1.0  0.56930  0.24500  0.26926  1.0000 -0.1956457872
C   C171      1.0  0.43070  0.25500  0.76926  1.0000 -0.1956457872
C   C172      1.0  0.93070  0.24500  0.73074  1.0000 -0.1956457872
C   C173      1.0  0.93070  0.74500  0.76926  1.0000 -0.1956457872
C   C174      1.0  0.43070  0.75500  0.73074  1.0000 -0.1956457872
C   C175      1.0  0.56930  0.74500  0.23074  1.0000 -0.1956457872
C   C176      1.0  0.06930  0.75500  0.26926  1.0000 -0.1956457872
C   C177      1.0  0.01060  0.25570  0.20985  1.0000 -0.0703078993
C   C178      1.0  0.51060  0.24430  0.29015  1.0000 -0.0612216371
C   C179      1.0  0.48940  0.25570  0.79015  1.0000 -0.0612216371
C   C180      1.0  0.98940  0.24430  0.70985  1.0000 -0.0612216371
C   C181      1.0  0.98940  0.74430  0.79015  1.0000 -0.0612216371
C   C182      1.0  0.48940  0.75570  0.70985  1.0000 -0.0703078993
C   C183      1.0  0.51060  0.74430  0.20985  1.0000 -0.0612216371
C   C184      1.0  0.01060  0.75570  0.29015  1.0000 -0.0703078993
C   C185      1.0  0.19880  0.23690  0.30869  1.0000 -0.0703078993
C   C186      1.0  0.69880  0.26310  0.19131  1.0000 -0.0703078993
C   C187      1.0  0.30120  0.23690  0.69131  1.0000 -0.0703078993
C   C188      1.0  0.80120  0.26310  0.80869  1.0000 -0.0703078993
C   C189      1.0  0.80120  0.76310  0.69131  1.0000 -0.0703078993
C   C190      1.0  0.30120  0.73690  0.80869  1.0000 -0.0703078993
C   C191      1.0  0.69880  0.76310  0.30869  1.0000 -0.0703078993
C   C192      1.0  0.19880  0.73690  0.19131  1.0000 -0.0703078993
C   C193      1.0  0.14970  0.23930  0.28539  1.0000 -0.1781597035
C   C194      1.0  0.64970  0.26070  0.21461  1.0000 -0.1781597035
C   C195      1.0  0.35030  0.23930  0.71461  1.0000 -0.1781597035
C   C196      1.0  0.85030  0.26070  0.78539  1.0000 -0.1781597035
C   C197      1.0  0.85030  0.76070  0.71461  1.0000 -0.1781597035
C   C198      1.0  0.35030  0.73930  0.78539  1.0000 -0.1781597035
C   C199      1.0  0.64970  0.76070  0.28539  1.0000 -0.1781597035
C   C200      1.0  0.14970  0.73930  0.21461  1.0000 -0.1781597035
C   C201      1.0  0.16180  0.19850  0.26392  1.0000 0.089945238
C   C202      1.0  0.66180  0.30150  0.23608  1.0000 0.089945238
C   C203      1.0  0.33820  0.19850  0.73608  1.0000 0.089945238
C   C204      1.0  0.83820  0.30150  0.76392  1.0000 0.089945238
C   C205      1.0  0.83820  0.80150  0.73608  1.0000 0.089945238
C   C206      1.0  0.33820  0.69850  0.76392  1.0000 0.089945238
C   C207      1.0  0.66180  0.80150  0.26392  1.0000 0.089945238
C   C208      1.0  0.16180  0.69850  0.23608  1.0000 0.089945238
C   C209      1.0  0.22650  0.15620  0.26703  1.0000 -0.1908855336
C   C210      1.0  0.72650  0.34380  0.23297  1.0000 -0.1908855336
C   C211      1.0  0.27350  0.15620  0.73297  1.0000 -0.1908855336
C   C212      1.0  0.77350  0.34380  0.76703  1.0000 -0.1908855336
C   C213      1.0  0.77350  0.84380  0.73297  1.0000 -0.1908855336
C   C214      1.0  0.27350  0.65620  0.76703  1.0000 -0.1908855336
C   C215      1.0  0.72650  0.84380  0.26703  1.0000 -0.1908855336
C   C216      1.0  0.22650  0.65620  0.23297  1.0000 -0.1908855336
C   C217      1.0  0.27340  0.15390  0.29088  1.0000 -0.079930732
C   C218      1.0  0.77340  0.34610  0.20912  1.0000 -0.079930732
C   C219      1.0  0.22660  0.15390  0.70912  1.0000 -0.079930732
C   C220      1.0  0.72660  0.34610  0.79088  1.0000 -0.079930732
C   C221      1.0  0.72660  0.84610  0.70912  1.0000 -0.079930732
C   C222      1.0  0.22660  0.65390  0.79088  1.0000 -0.079930732
C   C223      1.0  0.77340  0.84610  0.29088  1.0000 -0.079930732
C   C224      1.0  0.27340  0.65390  0.20912  1.0000 -0.079930732
C   C225      1.0  0.12110  0.18480  0.10822  1.0000 -0.1491257477
C   C226      1.0  0.62110  0.31520  0.39178  1.0000 -0.1491257477
C   C227      1.0  0.37890  0.18480  0.89178  1.0000 -0.1491257477
C   C228      1.0  0.87890  0.31520  0.60822  1.0000 -0.1491257477
C   C229      1.0  0.87890  0.81520  0.89178  1.0000 -0.1491257477
C   C230      1.0  0.37890  0.68480  0.60822  1.0000 -0.1491257477
C   C231      1.0  0.62110  0.81520  0.10822  1.0000 -0.1491257477
C   C232      1.0  0.12110  0.68480  0.39178  1.0000 -0.1491257477
C   C233      1.0  0.18800  0.19690  0.09014  1.0000 -0.1174971781
C   C234      1.0  0.68800  0.30310  0.40986  1.0000 -0.1174971781
C   C235      1.0  0.31200  0.19690  0.90986  1.0000 -0.1174971781
C   C236      1.0  0.81200  0.30310  0.59014  1.0000 -0.1174971781
C   C237      1.0  0.81200  0.80310  0.90986  1.0000 -0.1174971781
C   C238      1.0  0.31200  0.69690  0.59014  1.0000 -0.1174971781
C   C239      1.0  0.68800  0.80310  0.09014  1.0000 -0.1174971781
C   C240      1.0  0.18800  0.69690  0.40986  1.0000 -0.1174971781
C   C241      1.0  0.26820  0.21190  0.09950  1.0000 -0.1029359054
C   C242      1.0  0.76820  0.28810  0.40050  1.0000 -0.1029359054
C   C243      1.0  0.23180  0.21190  0.90050  1.0000 -0.1029359054
C   C244      1.0  0.73180  0.28810  0.59950  1.0000 -0.1029359054
C   C245      1.0  0.73180  0.78810  0.90050  1.0000 -0.1029359054
C   C246      1.0  0.23180  0.71190  0.59950  1.0000 -0.1029359054
C   C247      1.0  0.76820  0.78810  0.09950  1.0000 -0.1029359054
C   C248      1.0  0.26820  0.71190  0.40050  1.0000 -0.1029359054
C   C249      1.0  0.28610  0.21560  0.12730  1.0000 -0.1076685931
C   C250      1.0  0.78610  0.28440  0.37270  1.0000 -0.1076685931
C   C251      1.0  0.21390  0.21560  0.87270  1.0000 -0.1076685931
C   C252      1.0  0.71390  0.28440  0.62730  1.0000 -0.1076685931
C   C253      1.0  0.71390  0.78440  0.87270  1.0000 -0.1076685931
C   C254      1.0  0.21390  0.71560  0.62730  1.0000 -0.1076685931
C   C255      1.0  0.78610  0.78440  0.12730  1.0000 -0.1076685931
C   C256      1.0  0.28610  0.71560  0.37270  1.0000 -0.1076685931
C   C257      1.0  0.22120  0.20400  0.14584  1.0000 -0.1029359054
C   C258      1.0  0.72120  0.29600  0.35416  1.0000 -0.1029359054
C   C259      1.0  0.27880  0.20400  0.85416  1.0000 -0.1029359054
C   C260      1.0  0.77880  0.29600  0.64584  1.0000 -0.1029359054
C   C261      1.0  0.77880  0.79600  0.85416  1.0000 -0.1029359054
C   C262      1.0  0.27880  0.70400  0.64584  1.0000 -0.1029359054
C   C263      1.0  0.72120  0.79600  0.14584  1.0000 -0.1029359054
C   C264      1.0  0.22120  0.70400  0.35416  1.0000 -0.1029359054
C   C265      1.0  0.14130  0.18900  0.13615  1.0000 -0.1174971781
C   C266      1.0  0.64130  0.31100  0.36385  1.0000 -0.1174971781
C   C267      1.0  0.35870  0.18900  0.86385  1.0000 -0.1174971781
C   C268      1.0  0.85870  0.31100  0.63615  1.0000 -0.1174971781
C   C269      1.0  0.85870  0.81100  0.86385  1.0000 -0.1174971781
C   C270      1.0  0.35870  0.68900  0.63615  1.0000 -0.1174971781
C   C271      1.0  0.64130  0.81100  0.13615  1.0000 -0.1174971781
C   C272      1.0  0.14130  0.68900  0.36385  1.0000 -0.1174971781
C   C273      1.0  0.00890  0.12960  0.07330  1.0000 -0.1405280794
C   C274      1.0  0.50890  0.37040  0.42670  1.0000 -0.1405280794
C   C275      1.0  0.49110  0.12960  0.92670  1.0000 -0.1405280794
C   C276      1.0  0.99110  0.37040  0.57330  1.0000 -0.1405280794
C   C277      1.0  0.99110  0.87040  0.92670  1.0000 -0.1405280794
C   C278      1.0  0.49110  0.62960  0.57330  1.0000 -0.1405280794
C   C279      1.0  0.50890  0.87040  0.07330  1.0000 -0.1405280794
C   C280      1.0  0.00890  0.62960  0.42670  1.0000 -0.1405280794
C   C281      1.0  0.06370  0.08320  0.06470  1.0000 -0.1029359054
C   C282      1.0  0.56370  0.41680  0.43530  1.0000 -0.1076685931
C   C283      1.0  0.43630  0.08320  0.93530  1.0000 -0.1076685931
C   C284      1.0  0.93630  0.41680  0.56470  1.0000 -0.1076685931
C   C285      1.0  0.93630  0.91680  0.93530  1.0000 -0.1076685931
C   C286      1.0  0.43630  0.58320  0.56470  1.0000 -0.1076685931
C   C287      1.0  0.56370  0.91680  0.06470  1.0000 -0.1076685931
C   C288      1.0  0.06370  0.58320  0.43530  1.0000 -0.1029359054
C   C289      1.0  0.03950  0.03640  0.04700  1.0000 -0.1029359054
C   C290      1.0  0.53950  0.46360  0.45300  1.0000 -0.1029359054
C   C291      1.0  0.46050  0.03640  0.95300  1.0000 -0.1029359054
C   C292      1.0  0.96050  0.46360  0.54700  1.0000 -0.1029359054
C   C293      1.0  0.96050  0.96360  0.95300  1.0000 -0.1029359054
C   C294      1.0  0.46050  0.53640  0.54700  1.0000 -0.1029359054
C   C295      1.0  0.53950  0.96360  0.04700  1.0000 -0.1029359054
C   C296      1.0  0.03950  0.53640  0.45300  1.0000 -0.1029359054
C   C297      1.0  0.95710  0.03450  0.03740  1.0000 -0.1076685931
C   C298      1.0  0.45710  0.46550  0.46260  1.0000 -0.1076685931
C   C299      1.0  0.54290  0.03450  0.96260  1.0000 -0.1076685931
C   C300      1.0  0.04290  0.46550  0.53740  1.0000 -0.1076685931
C   C301      1.0  0.04290  0.96550  0.96260  1.0000 -0.1076685931
C   C302      1.0  0.54290  0.53450  0.53740  1.0000 -0.1076685931
C   C303      1.0  0.45710  0.96550  0.03740  1.0000 -0.1076685931
C   C304      1.0  0.95710  0.53450  0.46260  1.0000 -0.1076685931
C   C305      1.0  0.90010  0.07860  0.04580  1.0000 -0.1076685931
C   C306      1.0  0.40010  0.42140  0.45420  1.0000 -0.1076685931
C   C307      1.0  0.59990  0.07860  0.95420  1.0000 -0.1076685931
C   C308      1.0  0.09990  0.42140  0.54580  1.0000 -0.1076685931
C   C309      1.0  0.09990  0.92140  0.95420  1.0000 -0.1076685931
C   C310      1.0  0.59990  0.57860  0.54580  1.0000 -0.1076685931
C   C311      1.0  0.40010  0.92140  0.04580  1.0000 -0.1076685931
C   C312      1.0  0.90010  0.57860  0.45420  1.0000 -0.1076685931
C   C313      1.0  0.92650  0.12460  0.06350  1.0000 -0.1076685931
C   C314      1.0  0.42650  0.37540  0.43650  1.0000 -0.1076685931
C   C315      1.0  0.57350  0.12460  0.93650  1.0000 -0.1076685931
C   C316      1.0  0.07350  0.37540  0.56350  1.0000 -0.1076685931
C   C317      1.0  0.07350  0.87540  0.93650  1.0000 -0.1076685931
C   C318      1.0  0.57350  0.62460  0.56350  1.0000 -0.1076685931
C   C319      1.0  0.42650  0.87540  0.06350  1.0000 -0.1076685931
C   C320      1.0  0.92650  0.62460  0.43650  1.0000 -0.1076685931
N   N1        1.0  0.76670  0.24230  0.07210  1.0000 0.2773942125
N   N2        1.0  0.26670  0.25770  0.42790  1.0000 0.2773942125
N   N3        1.0  0.73330  0.24230  0.92790  1.0000 0.2773942125
N   N4        1.0  0.23330  0.25770  0.57210  1.0000 0.2773942125
N   N5        1.0  0.23330  0.75770  0.92790  1.0000 0.2773942125
N   N6        1.0  0.73330  0.74230  0.57210  1.0000 0.2773942125
N   N7        1.0  0.26670  0.75770  0.07210  1.0000 0.2773942125
N   N8        1.0  0.76670  0.74230  0.42790  1.0000 0.2773942125
N   N9        1.0  0.82460  0.39980  0.11491  1.0000 0.289499126
N   N10       1.0  0.32460  0.10020  0.38509  1.0000 0.289499126
N   N11       1.0  0.67540  0.39980  0.88509  1.0000 0.289499126
N   N12       1.0  0.17540  0.10020  0.61491  1.0000 0.289499126
N   N13       1.0  0.17540  0.60020  0.88509  1.0000 0.289499126
N   N14       1.0  0.67540  0.89980  0.61491  1.0000 0.289499126
N   N15       1.0  0.32460  0.60020  0.11491  1.0000 0.289499126
N   N16       1.0  0.82460  0.89980  0.38509  1.0000 0.289499126
N   N17       1.0  0.98520  0.20430  0.19838  1.0000 0.2575655651
N   N18       1.0  0.48520  0.29570  0.30162  1.0000 0.2575655651
N   N19       1.0  0.51480  0.20430  0.80162  1.0000 0.2575655651
N   N20       1.0  0.01480  0.29570  0.69838  1.0000 0.2575655651
N   N21       1.0  0.01480  0.79570  0.80162  1.0000 0.2575655651
N   N22       1.0  0.51480  0.70430  0.69838  1.0000 0.2575655651
N   N23       1.0  0.48520  0.79570  0.19838  1.0000 0.2575655651
N   N24       1.0  0.98520  0.70430  0.30162  1.0000 0.2575655651
N   N25       1.0  0.55540  0.64530  0.14238  1.0000 0.2704191652
N   N26       1.0  0.05540  0.85470  0.35762  1.0000 0.2704191652
N   N27       1.0  0.94460  0.64530  0.85762  1.0000 0.2704191652
N   N28       1.0  0.44460  0.85470  0.64238  1.0000 0.2704191652
N   N29       1.0  0.44460  0.35470  0.85762  1.0000 0.2704191652
N   N30       1.0  0.94460  0.14530  0.64238  1.0000 0.2704191652
N   N31       1.0  0.05540  0.35470  0.14238  1.0000 0.2704191652
N   N32       1.0  0.55540  0.14530  0.35762  1.0000 0.2704191652
N   N33       1.0  0.25800  0.19350  0.31131  1.0000 0.2575655651
N   N34       1.0  0.75800  0.30650  0.18869  1.0000 0.2575655651
N   N35       1.0  0.24200  0.19350  0.68869  1.0000 0.2575655651
N   N36       1.0  0.74200  0.30650  0.81131  1.0000 0.2575655651
N   N37       1.0  0.74200  0.80650  0.68869  1.0000 0.2575655651
N   N38       1.0  0.24200  0.69350  0.81131  1.0000 0.2575655651
N   N39       1.0  0.75800  0.80650  0.31131  1.0000 0.2575655651
N   N40       1.0  0.25800  0.69350  0.18869  1.0000 0.2575655651
O   O1        1.0  0.98260  0.23880  0.09306  1.0000 -0.4702948242
O   O2        1.0  0.48260  0.26120  0.40694  1.0000 -0.4702948242
O   O3        1.0  0.51740  0.23880  0.90694  1.0000 -0.4702948242
O   O4        1.0  0.01740  0.26120  0.59306  1.0000 -0.4702948242
O   O5        1.0  0.01740  0.76120  0.90694  1.0000 -0.4702948242
O   O6        1.0  0.51740  0.73880  0.59306  1.0000 -0.4702948242
O   O7        1.0  0.48260  0.76120  0.09306  1.0000 -0.4702948242
O   O8        1.0  0.98260  0.73880  0.40694  1.0000 -0.4702948242
O   O9        1.0  0.97020  0.15770  0.12237  1.0000 -0.4702948242
O   O10       1.0  0.47020  0.34230  0.37763  1.0000 -0.4702948242
O   O11       1.0  0.52980  0.15770  0.87763  1.0000 -0.4702948242
O   O12       1.0  0.02980  0.34230  0.62237  1.0000 -0.4702948242
O   O13       1.0  0.02980  0.84230  0.87763  1.0000 -0.4702948242
O   O14       1.0  0.52980  0.65770  0.62237  1.0000 -0.4702948242
O   O15       1.0  0.47020  0.84230  0.12237  1.0000 -0.4702948242
O   O16       1.0  0.97020  0.65770  0.37763  1.0000 -0.4702948242
O   O17       1.0  0.78150  0.16330  0.14511  1.0000 -0.4589883763
O   O18       1.0  0.28150  0.33670  0.35489  1.0000 -0.4589883763
O   O19       1.0  0.71850  0.16330  0.85489  1.0000 -0.4589883763
O   O20       1.0  0.21850  0.33670  0.64511  1.0000 -0.4589883763
O   O21       1.0  0.21850  0.83670  0.85489  1.0000 -0.4589883763
O   O22       1.0  0.71850  0.66330  0.64511  1.0000 -0.4589883763
O   O23       1.0  0.28150  0.83670  0.14511  1.0000 -0.4589883763
O   O24       1.0  0.78150  0.66330  0.35489  1.0000 -0.4589883763
O   O25       1.0  0.77370  0.24010  0.09960  1.0000 -0.5976268131
O   O26       1.0  0.27370  0.25990  0.40040  1.0000 -0.5976268131
O   O27       1.0  0.72630  0.24010  0.90040  1.0000 -0.5976268131
O   O28       1.0  0.22630  0.25990  0.59960  1.0000 -0.5976268131
O   O29       1.0  0.22630  0.75990  0.90040  1.0000 -0.5976268131
O   O30       1.0  0.72630  0.74010  0.59960  1.0000 -0.5976268131
O   O31       1.0  0.27370  0.75990  0.09960  1.0000 -0.5976268131
O   O32       1.0  0.77370  0.74010  0.40040  1.0000 -0.5976268131
O   O33       1.0  0.87960  0.35410  0.11196  1.0000 -0.5771768767
O   O34       1.0  0.37960  0.14590  0.38804  1.0000 -0.5771768767
O   O35       1.0  0.62040  0.35410  0.88804  1.0000 -0.5771768767
O   O36       1.0  0.12040  0.14590  0.61196  1.0000 -0.5771768767
O   O37       1.0  0.12040  0.64590  0.88804  1.0000 -0.5771768767
O   O38       1.0  0.62040  0.85410  0.61196  1.0000 -0.5771768767
O   O39       1.0  0.37960  0.64590  0.11196  1.0000 -0.5771768767
O   O40       1.0  0.87960  0.85410  0.38804  1.0000 -0.5771768767
O   O41       1.0  0.92340  0.20480  0.17951  1.0000 -0.5690093267
O   O42       1.0  0.42340  0.29520  0.32049  1.0000 -0.5690093267
O   O43       1.0  0.57660  0.20480  0.82049  1.0000 -0.5690093267
O   O44       1.0  0.07660  0.29520  0.67951  1.0000 -0.5690093267
O   O45       1.0  0.07660  0.79520  0.82049  1.0000 -0.5690093267
O   O46       1.0  0.57660  0.70480  0.67951  1.0000 -0.5690093267
O   O47       1.0  0.42340  0.79520  0.17951  1.0000 -0.5690093267
O   O48       1.0  0.92340  0.70480  0.32049  1.0000 -0.5690093267
O   O49       1.0  0.50960  0.69270  0.15100  1.0000 -0.5690093267
O   O50       1.0  0.00960  0.80730  0.34900  1.0000 -0.5690093267
O   O51       1.0  0.99040  0.69270  0.84900  1.0000 -0.5690093267
O   O52       1.0  0.49040  0.80730  0.65100  1.0000 -0.5690093267
O   O53       1.0  0.49040  0.30730  0.84900  1.0000 -0.5690093267
O   O54       1.0  0.99040  0.19270  0.65100  1.0000 -0.5690093267
O   O55       1.0  0.00960  0.30730  0.15100  1.0000 -0.5690093267
O   O56       1.0  0.50960  0.19270  0.34900  1.0000 -0.5690093267
O   O57       1.0  0.30150  0.18870  0.33477  1.0000 -0.5877037722
O   O58       1.0  0.80150  0.31130  0.16523  1.0000 -0.5877037722
O   O59       1.0  0.19850  0.18870  0.66523  1.0000 -0.5877037722
O   O60       1.0  0.69850  0.31130  0.83477  1.0000 -0.5877037722
O   O61       1.0  0.69850  0.81130  0.66523  1.0000 -0.5877037722
O   O62       1.0  0.19850  0.68870  0.83477  1.0000 -0.5877037722
O   O63       1.0  0.80150  0.81130  0.33477  1.0000 -0.5877037722
O   O64       1.0  0.30150  0.68870  0.16523  1.0000 -0.5877037722
