# DDEC6 charges by PACMAN v1.1 (https://github.com/mtap-research/PACMAN-charge/)
data_2001[Co][dia]3[FSR]3
_chemical_formula_sum              "Co4 H36 C48 N8 O18"
_cell_length_a       10.6671
_cell_length_b       12.0063
_cell_length_c       14.0658
_cell_angle_alpha    106.718
_cell_angle_beta     102.279
_cell_angle_gamma    111.19

_symmetry_space_group_name_H-M    "P 1"
_symmetry_Int_Tables_number       1

loop_
  _symmetry_equiv_pos_as_xyz
  'x, y, z'

loop_
  _atom_site_type_symbol
  _atom_site_label
  _atom_site_symmetry_multiplicity
  _atom_site_fract_x
  _atom_site_fract_y
  _atom_site_fract_z
  _atom_site_occupancy
  _atom_site_charge
Co  Co1       1.0  0.19349  0.49579  0.21403  1.0000 0.8740979593
Co  Co2       1.0  0.80651  0.50421  0.78597  1.0000 0.8740979593
Co  Co3       1.0  0.45213  0.23171  0.69025  1.0000 0.8797727983
Co  Co4       1.0  0.54787  0.76829  0.30975  1.0000 0.8797727983
H   H1        1.0  0.47700  0.55400  0.31400  1.0000 0.3476199965
H   H2        1.0  0.52300  0.44600  0.68600  1.0000 0.3476199965
H   H3        1.0  0.42500  0.52400  0.20700  1.0000 0.3421104114
H   H4        1.0  0.57500  0.47600  0.79300  1.0000 0.3421104114
H   H5        1.0  0.02540  0.20070  0.14100  1.0000 0.1121239272
H   H6        1.0  0.97460  0.79930  0.85900  1.0000 0.1121239272
H   H7        1.0  0.12230  0.16680  0.61410  1.0000 0.1015365681
H   H8        1.0  0.87770  0.83320  0.38590  1.0000 0.1015365681
H   H9        1.0  0.94560  0.17760  0.67870  1.0000 0.1290955152
H   H10       1.0  0.05440  0.82240  0.32130  1.0000 0.1290955152
H   H11       1.0  0.99750  0.26340  0.86110  1.0000 0.1290955152
H   H12       1.0  0.00250  0.73660  0.13890  1.0000 0.1290955152
H   H13       1.0  0.40630  0.33960  0.90040  1.0000 0.1121239272
H   H14       1.0  0.59370  0.66040  0.09960  1.0000 0.1121239272
H   H15       1.0  0.27130  0.01120  0.75070  1.0000 0.1015365681
H   H16       1.0  0.72870  0.98880  0.24930  1.0000 0.1015365681
H   H17       1.0  0.15990  0.78810  0.69110  1.0000 0.1210218902
H   H18       1.0  0.84010  0.21190  0.30890  1.0000 0.1210218902
H   H19       1.0  0.16340  0.66180  0.53280  1.0000 0.1290955152
H   H20       1.0  0.83660  0.33820  0.46720  1.0000 0.1290955152
H   H21       1.0  0.38050  0.99000  0.50120  1.0000 0.1121239272
H   H22       1.0  0.61950  0.01000  0.49880  1.0000 0.1121239272
H   H23       1.0  0.30230  0.46210  0.41930  1.0000 0.1210218902
H   H24       1.0  0.69770  0.53790  0.58070  1.0000 0.1210218902
H   H25       1.0  0.99660  0.03620  0.19920  1.0000 0.1290955152
H   H26       1.0  0.00340  0.96380  0.80080  1.0000 0.1290955152
H   H27       1.0  0.12970  0.08640  0.37230  1.0000 0.1210218902
H   H28       1.0  0.87030  0.91360  0.62770  1.0000 0.1210218902
H   H29       1.0  0.93330  0.46670  0.29400  1.0000 0.1015365681
H   H30       1.0  0.06670  0.53330  0.70600  1.0000 0.1015365681
H   H31       1.0  0.69380  0.41350  0.22990  1.0000 0.1350111823
H   H32       1.0  0.30620  0.58650  0.77010  1.0000 0.1350111823
H   H33       1.0  0.57600  0.33770  0.04700  1.0000 0.1290955152
H   H34       1.0  0.42400  0.66230  0.95300  1.0000 0.1290955152
H   H35       1.0  0.95230  0.39510  0.01080  1.0000 0.1121239272
H   H36       1.0  0.04770  0.60490  0.98920  1.0000 0.1121239272
C   C1        1.0  0.07770  0.22160  0.21090  1.0000 0.0794952727
C   C2        1.0  0.92230  0.77840  0.78910  1.0000 0.0794952727
C   C3        1.0  0.14570  0.20430  0.68710  1.0000 0.0602919134
C   C4        1.0  0.85430  0.79570  0.31290  1.0000 0.0602919134
C   C5        1.0  0.03840  0.20930  0.72550  1.0000 -0.1565815349
C   C6        1.0  0.96160  0.79070  0.27450  1.0000 -0.1565815349
C   C7        1.0  0.06910  0.26130  0.83380  1.0000 -0.0606745406
C   C8        1.0  0.93090  0.73870  0.16620  1.0000 -0.0606745406
C   C9        1.0  0.20990  0.31040  0.90050  1.0000 -0.0712888317
C   C10       1.0  0.79010  0.68960  0.09950  1.0000 -0.0712888317
C   C11       1.0  0.31170  0.30450  0.85529  1.0000 0.0683167736
C   C12       1.0  0.68830  0.69550  0.14471  1.0000 0.0683167736
C   C13       1.0  0.25820  0.37220  0.02006  1.0000 0.563537256
C   C14       1.0  0.74180  0.62780  0.97994  1.0000 0.563537256
C   C15       1.0  0.27130  0.96140  0.68640  1.0000 0.0794952727
C   C16       1.0  0.72870  0.03860  0.31360  1.0000 0.0794952727
C   C17       1.0  0.20540  0.82730  0.65160  1.0000 -0.1525001441
C   C18       1.0  0.79460  0.17270  0.34840  1.0000 -0.1525001441
C   C19       1.0  0.20790  0.75230  0.55770  1.0000 -0.0606745406
C   C20       1.0  0.79210  0.24770  0.44230  1.0000 -0.0606745406
C   C21       1.0  0.27760  0.81360  0.50112  1.0000 -0.0712888317
C   C22       1.0  0.72240  0.18640  0.49888  1.0000 -0.0712888317
C   C23       1.0  0.33690  0.94850  0.54031  1.0000 0.0683167736
C   C24       1.0  0.66310  0.05150  0.45969  1.0000 0.0683167736
C   C25       1.0  0.30020  0.73870  0.40570  1.0000 0.5862915526
C   C26       1.0  0.69980  0.26130  0.59430  1.0000 0.5862915526
C   C27       1.0  0.24160  0.37520  0.37441  1.0000 0.0683167736
C   C28       1.0  0.75840  0.62480  0.62559  1.0000 0.0683167736
C   C29       1.0  0.06040  0.12210  0.24490  1.0000 -0.1565815349
C   C30       1.0  0.93960  0.87790  0.75510  1.0000 -0.1565815349
C   C31       1.0  0.13930  0.15210  0.34770  1.0000 -0.0606745406
C   C32       1.0  0.86070  0.84790  0.65230  1.0000 -0.0606745406
C   C33       1.0  0.23260  0.28040  0.41420  1.0000 -0.0606745406
C   C34       1.0  0.76740  0.71960  0.58580  1.0000 -0.0606745406
C   C35       1.0  0.33080  0.31800  0.52440  1.0000 0.5653033714
C   C36       1.0  0.66920  0.68200  0.47560  1.0000 0.5653033714
C   C37       1.0  0.88800  0.43980  0.22150  1.0000 0.0602919134
C   C38       1.0  0.11200  0.56020  0.77850  1.0000 0.0602919134
C   C39       1.0  0.74390  0.40680  0.18350  1.0000 -0.1428289627
C   C40       1.0  0.25610  0.59320  0.81650  1.0000 -0.1428289627
C   C41       1.0  0.67390  0.36300  0.07470  1.0000 -0.0445942272
C   C42       1.0  0.32610  0.63700  0.92530  1.0000 -0.0445942272
C   C43       1.0  0.75310  0.35780  0.00881  1.0000 -0.0712888317
C   C44       1.0  0.24690  0.64220  0.99119  1.0000 -0.0712888317
C   C45       1.0  0.89840  0.39630  0.05472  1.0000 0.0683167736
C   C46       1.0  0.10160  0.60370  0.94528  1.0000 0.0683167736
C   C47       1.0  0.69300  0.32140  0.89086  1.0000 0.5862915526
C   C48       1.0  0.30700  0.67860  0.10914  1.0000 0.5862915526
N   N1        1.0  0.28250  0.25140  0.75056  1.0000 -0.2595798363
N   N2        1.0  0.71750  0.74860  0.24944  1.0000 -0.2595798363
N   N3        1.0  0.33510  0.02280  0.63134  1.0000 -0.2322848876
N   N4        1.0  0.66490  0.97720  0.36866  1.0000 -0.2322848876
N   N5        1.0  0.16610  0.34670  0.27369  1.0000 -0.2475206954
N   N6        1.0  0.83390  0.65330  0.72631  1.0000 -0.2475206954
N   N7        1.0  0.96580  0.43490  0.15862  1.0000 -0.2475206954
N   N8        1.0  0.03420  0.56510  0.84138  1.0000 -0.2475206954
O   O1        1.0  0.16333  0.36934  0.06080  1.0000 -0.579186364
O   O2        1.0  0.83667  0.63066  0.93920  1.0000 -0.579186364
O   O3        1.0  0.39056  0.42460  0.06981  1.0000 -0.5276504447
O   O4        1.0  0.60944  0.57540  0.93019  1.0000 -0.5276504447
O   O5        1.0  0.21659  0.61851  0.35963  1.0000 -0.5590657929
O   O6        1.0  0.78341  0.38149  0.64037  1.0000 -0.5590657929
O   O7        1.0  0.40297  0.80232  0.38268  1.0000 -0.547690018
O   O8        1.0  0.59703  0.19768  0.61732  1.0000 -0.547690018
O   O9        1.0  0.33460  0.22509  0.54799  1.0000 -0.5723765333
O   O10       1.0  0.66540  0.77491  0.45201  1.0000 -0.5723765333
O   O11       1.0  0.40260  0.43640  0.58297  1.0000 -0.5276504447
O   O12       1.0  0.59740  0.56360  0.41703  1.0000 -0.5276504447
O   O13       1.0  0.78280  0.36210  0.84896  1.0000 -0.5590657929
O   O14       1.0  0.21720  0.63790  0.15104  1.0000 -0.5590657929
O   O15       1.0  0.55848  0.25347  0.84328  1.0000 -0.5590657929
O   O16       1.0  0.44152  0.74653  0.15672  1.0000 -0.5590657929
O   O17       1.0  0.42395  0.56144  0.25822  1.0000 -0.6662178476
O   O18       1.0  0.57605  0.43856  0.74178  1.0000 -0.6662178476
