# DDEC6 charges by PACMAN v1.1 (https://github.com/mtap-research/PACMAN-charge/)
data_2001[Zn][dia]3[FSR]2
_chemical_formula_sum              "Zn4 H48 C64 N8 O16"
_cell_length_a       12.005
_cell_length_b       12.471
_cell_length_c       13.804
_cell_angle_alpha    90
_cell_angle_beta     90
_cell_angle_gamma    90

_symmetry_space_group_name_H-M    "P 1"
_symmetry_Int_Tables_number       1

loop_
  _symmetry_equiv_pos_as_xyz
  'x, y, z'

loop_
  _atom_site_type_symbol
  _atom_site_label
  _atom_site_symmetry_multiplicity
  _atom_site_fract_x
  _atom_site_fract_y
  _atom_site_fract_z
  _atom_site_occupancy
  _atom_site_charge
Zn  Zn1       1.0  0.30346  0.75000  0.50000  1.0000 0.7201230048
Zn  Zn2       1.0  0.80346  0.25000  0.00000  1.0000 0.7201230048
Zn  Zn3       1.0  0.19654  0.75000  0.00000  1.0000 0.7201230048
Zn  Zn4       1.0  0.69654  0.25000  0.50000  1.0000 0.7201230048
H   H1        1.0  0.92900  0.11380  0.31850  1.0000 0.1483158084
H   H2        1.0  0.92900  0.38620  0.68150  1.0000 0.1483158084
H   H3        1.0  0.42900  0.61380  0.18150  1.0000 0.1483158084
H   H4        1.0  0.42900  0.88620  0.81850  1.0000 0.1483158084
H   H5        1.0  0.83230  0.21590  0.21080  1.0000 0.111612864
H   H6        1.0  0.83230  0.28410  0.78920  1.0000 0.111612864
H   H7        1.0  0.33230  0.71590  0.28920  1.0000 0.111612864
H   H8        1.0  0.33230  0.78410  0.71080  1.0000 0.111612864
H   H9        1.0  0.02160  0.12300  0.99930  1.0000 0.0994010276
H   H10       1.0  0.02160  0.37700  0.00070  1.0000 0.0994010276
H   H11       1.0  0.52160  0.62300  0.50070  1.0000 0.0994010276
H   H12       1.0  0.52160  0.87700  0.49930  1.0000 0.0994010276
H   H13       1.0  0.12540  0.01990  0.10240  1.0000 0.1360032974
H   H14       1.0  0.12540  0.48010  0.89760  1.0000 0.1360032974
H   H15       1.0  0.62540  0.51990  0.39760  1.0000 0.1360032974
H   H16       1.0  0.62540  0.98010  0.60240  1.0000 0.1360032974
H   H17       1.0  0.15300  0.93370  0.25780  1.0000 0.111612864
H   H18       1.0  0.15300  0.56630  0.74220  1.0000 0.111612864
H   H19       1.0  0.65300  0.43370  0.24220  1.0000 0.111612864
H   H20       1.0  0.65300  0.06630  0.75780  1.0000 0.111612864
H   H21       1.0  0.04410  0.01940  0.41370  1.0000 0.1360032974
H   H22       1.0  0.04410  0.48060  0.58630  1.0000 0.1360032974
H   H23       1.0  0.54410  0.51940  0.08630  1.0000 0.1360032974
H   H24       1.0  0.54410  0.98060  0.91370  1.0000 0.1360032974
H   H25       1.0  0.57100  0.38620  0.81850  1.0000 0.1483158084
H   H26       1.0  0.57100  0.11380  0.18150  1.0000 0.1483158084
H   H27       1.0  0.07100  0.88620  0.68150  1.0000 0.1483158084
H   H28       1.0  0.07100  0.61380  0.31850  1.0000 0.1483158084
H   H29       1.0  0.66770  0.28410  0.71080  1.0000 0.111612864
H   H30       1.0  0.66770  0.21590  0.28920  1.0000 0.111612864
H   H31       1.0  0.16770  0.78410  0.78920  1.0000 0.111612864
H   H32       1.0  0.16770  0.71590  0.21080  1.0000 0.111612864
H   H33       1.0  0.47840  0.37700  0.49930  1.0000 0.0994010276
H   H34       1.0  0.47840  0.12300  0.50070  1.0000 0.0994010276
H   H35       1.0  0.97840  0.87700  0.00070  1.0000 0.0994010276
H   H36       1.0  0.97840  0.62300  0.99930  1.0000 0.0994010276
H   H37       1.0  0.37460  0.48010  0.60240  1.0000 0.1360032974
H   H38       1.0  0.37460  0.01990  0.39760  1.0000 0.1360032974
H   H39       1.0  0.87460  0.98010  0.89760  1.0000 0.1360032974
H   H40       1.0  0.87460  0.51990  0.10240  1.0000 0.1360032974
H   H41       1.0  0.34700  0.56630  0.75780  1.0000 0.111612864
H   H42       1.0  0.34700  0.93370  0.24220  1.0000 0.111612864
H   H43       1.0  0.84700  0.06630  0.74220  1.0000 0.111612864
H   H44       1.0  0.84700  0.43370  0.25780  1.0000 0.111612864
H   H45       1.0  0.45590  0.48060  0.91370  1.0000 0.1360032974
H   H46       1.0  0.45590  0.01940  0.08630  1.0000 0.1360032974
H   H47       1.0  0.95590  0.98060  0.58630  1.0000 0.1360032974
H   H48       1.0  0.95590  0.51940  0.41370  1.0000 0.1360032974
C   C1        1.0  0.94890  0.11290  0.25340  1.0000 -0.170222956
C   C2        1.0  0.94890  0.38710  0.74660  1.0000 -0.170222956
C   C3        1.0  0.44890  0.61290  0.24660  1.0000 -0.170222956
C   C4        1.0  0.44890  0.88710  0.75340  1.0000 -0.170222956
C   C5        1.0  0.89050  0.17360  0.18810  1.0000 0.0835552557
C   C6        1.0  0.89050  0.32640  0.81190  1.0000 0.0835552557
C   C7        1.0  0.39050  0.67360  0.31190  1.0000 0.0835552557
C   C8        1.0  0.39050  0.82640  0.68810  1.0000 0.0835552557
C   C9        1.0  0.00120  0.11970  0.06420  1.0000 0.065994892
C   C10       1.0  0.00120  0.38030  0.93580  1.0000 0.065994892
C   C11       1.0  0.50120  0.61970  0.43580  1.0000 0.065994892
C   C12       1.0  0.50120  0.88030  0.56420  1.0000 0.065994892
C   C13       1.0  0.06430  0.05740  0.12620  1.0000 -0.2020295777
C   C14       1.0  0.06430  0.44260  0.87380  1.0000 -0.2020295777
C   C15       1.0  0.56430  0.55740  0.37380  1.0000 -0.2020295777
C   C16       1.0  0.56430  0.94260  0.62620  1.0000 -0.2020295777
C   C17       1.0  0.03710  0.05060  0.22300  1.0000 0.1613654817
C   C18       1.0  0.03710  0.44940  0.77700  1.0000 0.1613654817
C   C19       1.0  0.53710  0.55060  0.27700  1.0000 0.1613654817
C   C20       1.0  0.53710  0.94940  0.72300  1.0000 0.1613654817
C   C21       1.0  0.10210  0.97940  0.28730  1.0000 -0.1075663374
C   C22       1.0  0.10210  0.52060  0.71270  1.0000 -0.1075663374
C   C23       1.0  0.60210  0.47940  0.21270  1.0000 -0.1075663374
C   C24       1.0  0.60210  0.02060  0.78730  1.0000 -0.1075663374
C   C25       1.0  0.09460  0.97450  0.38250  1.0000 -0.2063899183
C   C26       1.0  0.09460  0.52550  0.61750  1.0000 -0.2063899183
C   C27       1.0  0.59460  0.47450  0.11750  1.0000 -0.2063899183
C   C28       1.0  0.59460  0.02550  0.88250  1.0000 -0.2063899183
C   C29       1.0  0.16340  0.90020  0.44260  1.0000 0.5864015637
C   C30       1.0  0.16340  0.59980  0.55740  1.0000 0.5864015637
C   C31       1.0  0.66340  0.40020  0.05740  1.0000 0.5864015637
C   C32       1.0  0.66340  0.09980  0.94260  1.0000 0.5864015637
C   C33       1.0  0.55110  0.38710  0.75340  1.0000 -0.170222956
C   C34       1.0  0.55110  0.11290  0.24660  1.0000 -0.170222956
C   C35       1.0  0.05110  0.88710  0.74660  1.0000 -0.170222956
C   C36       1.0  0.05110  0.61290  0.25340  1.0000 -0.170222956
C   C37       1.0  0.60950  0.32640  0.68810  1.0000 0.0835552557
C   C38       1.0  0.60950  0.17360  0.31190  1.0000 0.0835552557
C   C39       1.0  0.10950  0.82640  0.81190  1.0000 0.0835552557
C   C40       1.0  0.10950  0.67360  0.18810  1.0000 0.0835552557
C   C41       1.0  0.49880  0.38030  0.56420  1.0000 0.065994892
C   C42       1.0  0.49880  0.11970  0.43580  1.0000 0.065994892
C   C43       1.0  0.99880  0.88030  0.93580  1.0000 0.065994892
C   C44       1.0  0.99880  0.61970  0.06420  1.0000 0.065994892
C   C45       1.0  0.43570  0.44260  0.62620  1.0000 -0.2020295777
C   C46       1.0  0.43570  0.05740  0.37380  1.0000 -0.2020295777
C   C47       1.0  0.93570  0.94260  0.87380  1.0000 -0.2020295777
C   C48       1.0  0.93570  0.55740  0.12620  1.0000 -0.2020295777
C   C49       1.0  0.46290  0.44940  0.72300  1.0000 0.1613654817
C   C50       1.0  0.46290  0.05060  0.27700  1.0000 0.1613654817
C   C51       1.0  0.96290  0.94940  0.77700  1.0000 0.1613654817
C   C52       1.0  0.96290  0.55060  0.22300  1.0000 0.1613654817
C   C53       1.0  0.39790  0.52060  0.78730  1.0000 -0.1075663374
C   C54       1.0  0.39790  0.97940  0.21270  1.0000 -0.1075663374
C   C55       1.0  0.89790  0.02060  0.71270  1.0000 -0.1075663374
C   C56       1.0  0.89790  0.47940  0.28730  1.0000 -0.1075663374
C   C57       1.0  0.40540  0.52550  0.88250  1.0000 -0.2063899183
C   C58       1.0  0.40540  0.97450  0.11750  1.0000 -0.2063899183
C   C59       1.0  0.90540  0.02550  0.61750  1.0000 -0.2063899183
C   C60       1.0  0.90540  0.47450  0.38250  1.0000 -0.2063899183
C   C61       1.0  0.33660  0.59980  0.94260  1.0000 0.5864015637
C   C62       1.0  0.33660  0.90020  0.05740  1.0000 0.5864015637
C   C63       1.0  0.83660  0.09980  0.55740  1.0000 0.5864015637
C   C64       1.0  0.83660  0.40020  0.44260  1.0000 0.5864015637
N   N1        1.0  0.91320  0.17490  0.09320  1.0000 -0.2289926292
N   N2        1.0  0.91320  0.32510  0.90680  1.0000 -0.2289926292
N   N3        1.0  0.41320  0.67490  0.40680  1.0000 -0.2289926292
N   N4        1.0  0.41320  0.82510  0.59320  1.0000 -0.2289926292
N   N5        1.0  0.58680  0.32510  0.59320  1.0000 -0.2289926292
N   N6        1.0  0.58680  0.17490  0.40680  1.0000 -0.2289926292
N   N7        1.0  0.08680  0.82510  0.90680  1.0000 -0.2289926292
N   N8        1.0  0.08680  0.67490  0.09320  1.0000 -0.2289926292
O   O1        1.0  0.15080  0.89850  0.53050  1.0000 -0.5393786015
O   O2        1.0  0.15080  0.60150  0.46950  1.0000 -0.5393786015
O   O3        1.0  0.65080  0.39850  0.96950  1.0000 -0.5393786015
O   O4        1.0  0.65080  0.10150  0.03050  1.0000 -0.5393786015
O   O5        1.0  0.23720  0.84430  0.40130  1.0000 -0.5457478346
O   O6        1.0  0.23720  0.65570  0.59870  1.0000 -0.5457478346
O   O7        1.0  0.73720  0.34430  0.09870  1.0000 -0.5457478346
O   O8        1.0  0.73720  0.15570  0.90130  1.0000 -0.5457478346
O   O9        1.0  0.34920  0.60150  0.03050  1.0000 -0.5393786015
O   O10       1.0  0.34920  0.89850  0.96950  1.0000 -0.5393786015
O   O11       1.0  0.84920  0.10150  0.46950  1.0000 -0.5393786015
O   O12       1.0  0.84920  0.39850  0.53050  1.0000 -0.5393786015
O   O13       1.0  0.26280  0.65570  0.90130  1.0000 -0.5457478346
O   O14       1.0  0.26280  0.84430  0.09870  1.0000 -0.5457478346
O   O15       1.0  0.76280  0.15570  0.59870  1.0000 -0.5457478346
O   O16       1.0  0.76280  0.34430  0.40130  1.0000 -0.5457478346
