# DDEC6 charges by PACMAN v1.1 (https://github.com/mtap-research/PACMAN-charge/)
data_2002[MoCu][nan]3[FSR]1
_chemical_formula_sum              "Cu4 Mo8 H24 C20 N8 O26"
_cell_length_a       9.7949
_cell_length_b       9.9224
_cell_length_c       12.8401
_cell_angle_alpha    74.84
_cell_angle_beta     74.238
_cell_angle_gamma    85.782

_symmetry_space_group_name_H-M    "P 1"
_symmetry_Int_Tables_number       1

loop_
  _symmetry_equiv_pos_as_xyz
  'x, y, z'

loop_
  _atom_site_type_symbol
  _atom_site_label
  _atom_site_symmetry_multiplicity
  _atom_site_fract_x
  _atom_site_fract_y
  _atom_site_fract_z
  _atom_site_occupancy
  _atom_site_charge
Cu  Cu1       1.0  0.12147  0.35068  0.27951  1.0000 0.5036191458
Cu  Cu2       1.0  0.87853  0.64932  0.72049  1.0000 0.5036191458
Cu  Cu3       1.0  0.76891  0.51904  0.27011  1.0000 0.4258314187
Cu  Cu4       1.0  0.23109  0.48096  0.72989  1.0000 0.4258314187
Mo  Mo1       1.0  0.84543  0.11162  0.30623  1.0000 2.0880820269
Mo  Mo2       1.0  0.15457  0.88838  0.69377  1.0000 2.0880820269
Mo  Mo3       1.0  0.56439  0.87929  0.41528  1.0000 2.1091553087
Mo  Mo4       1.0  0.43561  0.12071  0.58472  1.0000 2.1091553087
Mo  Mo5       1.0  0.52497  0.24161  0.31770  1.0000 2.0779496546
Mo  Mo6       1.0  0.47503  0.75839  0.68230  1.0000 2.0779496546
Mo  Mo7       1.0  0.74680  0.99411  0.57879  1.0000 2.0880820269
Mo  Mo8       1.0  0.25320  0.00589  0.42121  1.0000 2.0880820269
H   H1        1.0  0.15630  0.63200  0.90280  1.0000 0.1318093243
H   H2        1.0  0.84370  0.36800  0.09720  1.0000 0.1318093243
H   H3        1.0  0.23240  0.20340  0.10480  1.0000 0.1485041345
H   H4        1.0  0.76760  0.79660  0.89520  1.0000 0.1485041345
H   H5        1.0  0.12200  0.59230  0.08840  1.0000 0.1318093243
H   H6        1.0  0.87800  0.40770  0.91160  1.0000 0.1318093243
H   H7        1.0  0.29770  0.24180  0.81250  1.0000 0.1388068388
H   H8        1.0  0.70230  0.75820  0.18750  1.0000 0.1388068388
H   H9        1.0  0.21780  0.13070  0.91910  1.0000 0.1701757724
H   H10       1.0  0.78220  0.86930  0.08090  1.0000 0.1701757724
H   H11       1.0  0.37600  0.16790  0.90380  1.0000 0.1636764819
H   H12       1.0  0.62400  0.83210  0.09620  1.0000 0.1636764819
H   H13       1.0  0.32670  0.58390  0.49270  1.0000 0.1485041345
H   H14       1.0  0.67330  0.41610  0.50730  1.0000 0.1485041345
H   H15       1.0  0.26700  0.56660  0.23470  1.0000 0.1318093243
H   H16       1.0  0.73300  0.43340  0.76530  1.0000 0.1318093243
H   H17       1.0  0.40010  0.58350  0.27580  1.0000 0.1775836463
H   H18       1.0  0.59990  0.41650  0.72420  1.0000 0.1775836463
H   H19       1.0  0.27300  0.68880  0.28990  1.0000 0.1701757724
H   H20       1.0  0.72700  0.31120  0.71010  1.0000 0.1701757724
H   H21       1.0  0.04420  0.29750  0.67730  1.0000 0.1318093243
H   H22       1.0  0.95580  0.70250  0.32270  1.0000 0.1318093243
H   H23       1.0  0.00620  0.26240  0.51710  1.0000 0.1388068388
H   H24       1.0  0.99380  0.73760  0.48290  1.0000 0.1388068388
C   C1        1.0  0.23820  0.31660  0.95030  1.0000 0.2518828625
C   C2        1.0  0.76180  0.68340  0.04970  1.0000 0.2518828625
C   C3        1.0  0.17130  0.54230  0.94330  1.0000 0.0420308451
C   C4        1.0  0.82870  0.45770  0.05670  1.0000 0.0420308451
C   C5        1.0  0.21380  0.29190  0.06430  1.0000 -0.0094289674
C   C6        1.0  0.78620  0.70810  0.93570  1.0000 -0.0094289674
C   C7        1.0  0.14880  0.51840  0.05500  1.0000 -0.0521364843
C   C8        1.0  0.85120  0.48160  0.94500  1.0000 -0.0521364843
C   C9        1.0  0.28670  0.20430  0.89120  1.0000 -0.4751013999
C   C10       1.0  0.71330  0.79570  0.10880  1.0000 -0.4751013999
C   C11       1.0  0.23010  0.50050  0.40470  1.0000 0.2617478485
C   C12       1.0  0.76990  0.49950  0.59530  1.0000 0.2617478485
C   C13       1.0  0.25900  0.51860  0.49980  1.0000 0.0094978048
C   C14       1.0  0.74100  0.48140  0.50020  1.0000 0.0094978048
C   C15       1.0  0.29880  0.59330  0.29090  1.0000 -0.4997077619
C   C16       1.0  0.70120  0.40670  0.70910  1.0000 -0.4997077619
C   C17       1.0  0.09470  0.34950  0.60770  1.0000 -0.0094289674
C   C18       1.0  0.90530  0.65050  0.39230  1.0000 -0.0094289674
C   C19       1.0  0.07080  0.32990  0.51110  1.0000 0.0674698467
C   C20       1.0  0.92920  0.67010  0.48890  1.0000 0.0674698467
N   N1        1.0  0.16420  0.39030  0.11910  1.0000 -0.1690276971
N   N2        1.0  0.83580  0.60970  0.88090  1.0000 -0.1690276971
N   N3        1.0  0.19250  0.44510  0.60080  1.0000 -0.1690276971
N   N4        1.0  0.80750  0.55490  0.39920  1.0000 -0.1690276971
N   N5        1.0  0.13750  0.40500  0.41010  1.0000 -0.2392363807
N   N6        1.0  0.86250  0.59500  0.58990  1.0000 -0.2392363807
N   N7        1.0  0.21360  0.44480  0.88870  1.0000 -0.2392363807
N   N8        1.0  0.78640  0.55520  0.11130  1.0000 -0.2392363807
O   O1        1.0  0.88970  0.27110  0.31940  1.0000 -0.7422428017
O   O2        1.0  0.11030  0.72890  0.68060  1.0000 -0.7422428017
O   O3        1.0  0.51800  0.73000  0.39490  1.0000 -0.5739106422
O   O4        1.0  0.48200  0.27000  0.60510  1.0000 -0.5739106422
O   O5        1.0  0.69920  0.18380  0.23210  1.0000 -0.8335879033
O   O6        1.0  0.30080  0.81620  0.76790  1.0000 -0.8335879033
O   O7        1.0  0.58200  0.38730  0.34250  1.0000 -0.6786333208
O   O8        1.0  0.41800  0.61270  0.65750  1.0000 -0.6786333208
O   O9        1.0  0.45590  0.01650  0.33270  1.0000 -0.9068163519
O   O10       1.0  0.54410  0.98350  0.66730  1.0000 -0.9068163519
O   O11       1.0  0.78490  0.14770  0.59880  1.0000 -0.6036517506
O   O12       1.0  0.21510  0.85230  0.40120  1.0000 -0.6036517506
O   O13       1.0  0.43790  0.30480  0.21750  1.0000 -0.6120618468
O   O14       1.0  0.56210  0.69520  0.78250  1.0000 -0.6120618468
O   O15       1.0  0.97770  0.07600  0.20090  1.0000 -0.6120618468
O   O16       1.0  0.02230  0.92400  0.79910  1.0000 -0.6120618468
O   O17       1.0  0.63490  0.80890  0.54790  1.0000 -0.9181371217
O   O18       1.0  0.36510  0.19110  0.45210  1.0000 -0.9181371217
O   O19       1.0  0.61630  0.08850  0.45450  1.0000 -1.1576597576
O   O20       1.0  0.38370  0.91150  0.54550  1.0000 -1.1576597576
O   O21       1.0  0.73030  0.91930  0.31950  1.0000 -0.7214779144
O   O22       1.0  0.26970  0.08070  0.68050  1.0000 -0.7214779144
O   O23       1.0  0.87680  0.99250  0.43960  1.0000 -0.8076133912
O   O24       1.0  0.12320  0.00750  0.56040  1.0000 -0.8076133912
O   O25       1.0  0.81610  0.86650  0.66970  1.0000 -0.6786333208
O   O26       1.0  0.18390  0.13350  0.33030  1.0000 -0.6786333208
