# DDEC6 charges by PACMAN v1.1 (https://github.com/mtap-research/PACMAN-charge/)
data_2002[FeAs][nan]3[FSR]1
_chemical_formula_sum              "Fe8 As12 C8 O64"
_cell_length_a       11.1066
_cell_length_b       12.9842
_cell_length_c       13.4294
_cell_angle_alpha    117.345
_cell_angle_beta     93.688
_cell_angle_gamma    93.879

_symmetry_space_group_name_H-M    "P 1"
_symmetry_Int_Tables_number       1

loop_
  _symmetry_equiv_pos_as_xyz
  'x, y, z'

loop_
  _atom_site_type_symbol
  _atom_site_label
  _atom_site_symmetry_multiplicity
  _atom_site_fract_x
  _atom_site_fract_y
  _atom_site_fract_z
  _atom_site_occupancy
  _atom_site_charge
Fe  Fe1       1.0  0.94560  0.79800  0.82290  1.0000 1.3705389056
Fe  Fe2       1.0  0.05440  0.20200  0.17710  1.0000 1.3705389056
Fe  Fe3       1.0  0.49660  0.20580  0.65670  1.0000 1.3705389056
Fe  Fe4       1.0  0.50340  0.79420  0.34330  1.0000 1.3705389056
Fe  Fe5       1.0  0.97490  0.30820  0.83410  1.0000 1.3705389056
Fe  Fe6       1.0  0.02510  0.69180  0.16590  1.0000 1.3705389056
Fe  Fe7       1.0  0.47030  0.69990  0.64650  1.0000 1.3840947899
Fe  Fe8       1.0  0.52970  0.30010  0.35350  1.0000 1.3920251879
As  As1       1.0  0.99170  0.58690  0.88380  1.0000 1.7007790837
As  As2       1.0  0.00830  0.41310  0.11620  1.0000 1.7107584033
As  As3       1.0  0.22800  0.82440  0.76720  1.0000 1.6710657034
As  As4       1.0  0.77200  0.17560  0.23280  1.0000 1.6710657034
As  As5       1.0  0.06990  0.91950  0.10530  1.0000 1.7158456597
As  As6       1.0  0.93010  0.08050  0.89470  1.0000 1.7107584033
As  As7       1.0  0.24890  0.33350  0.75140  1.0000 1.6634083543
As  As8       1.0  0.75110  0.66650  0.24860  1.0000 1.6634083543
As  As9       1.0  0.55230  0.94300  0.62290  1.0000 1.7007790837
As  As10      1.0  0.44770  0.05700  0.37710  1.0000 1.7007790837
As  As11      1.0  0.57180  0.45100  0.63070  1.0000 1.7007790837
As  As12      1.0  0.42820  0.54900  0.36930  1.0000 1.7007790837
C   C1        1.0  0.71860  0.30130  0.80100  1.0000 0.5195315633
C   C2        1.0  0.28140  0.69870  0.19900  1.0000 0.5195315633
C   C3        1.0  0.75530  0.23290  0.68060  1.0000 0.5250015411
C   C4        1.0  0.24470  0.76710  0.31940  1.0000 0.5195315633
C   C5        1.0  0.69100  0.79750  0.78700  1.0000 0.5065596107
C   C6        1.0  0.30900  0.20250  0.21300  1.0000 0.5065596107
C   C7        1.0  0.72860  0.73290  0.66830  1.0000 0.5250015411
C   C8        1.0  0.27140  0.26710  0.33170  1.0000 0.5250015411
O   O1        1.0  0.98200  0.44220  0.80680  1.0000 -0.6486051377
O   O2        1.0  0.01800  0.55780  0.19320  1.0000 -0.6486051377
O   O3        1.0  0.94980  0.62740  0.01320  1.0000 -0.6780901876
O   O4        1.0  0.05020  0.37260  0.98680  1.0000 -0.6780901876
O   O5        1.0  0.90750  0.63490  0.80810  1.0000 -0.6591126426
O   O6        1.0  0.09250  0.36510  0.19190  1.0000 -0.6591126426
O   O7        1.0  0.14100  0.63340  0.88770  1.0000 -0.5509410497
O   O8        1.0  0.85900  0.36660  0.11230  1.0000 -0.5509410497
O   O9        1.0  0.26720  0.93320  0.89500  1.0000 -0.5509410497
O   O10       1.0  0.73280  0.06680  0.10500  1.0000 -0.5509410497
O   O11       1.0  0.08900  0.75170  0.74270  1.0000 -0.6780901876
O   O12       1.0  0.91100  0.24830  0.25730  1.0000 -0.6780901876
O   O13       1.0  0.32500  0.72150  0.72370  1.0000 -0.6279783991
O   O14       1.0  0.67500  0.27850  0.27630  1.0000 -0.6279783991
O   O15       1.0  0.22320  0.88070  0.67180  1.0000 -0.5299633887
O   O16       1.0  0.77680  0.11930  0.32820  1.0000 -0.5299633887
O   O17       1.0  0.99390  0.84720  0.97910  1.0000 -0.6683770607
O   O18       1.0  0.00610  0.15280  0.02090  1.0000 -0.6683770607
O   O19       1.0  0.03030  0.05250  0.18020  1.0000 -0.6683770607
O   O20       1.0  0.96970  0.94750  0.81980  1.0000 -0.6591126426
O   O21       1.0  0.05380  0.85300  0.18590  1.0000 -0.6683770607
O   O22       1.0  0.94620  0.14700  0.81410  1.0000 -0.6683770607
O   O23       1.0  0.22200  0.92420  0.08440  1.0000 -0.4977041629
O   O24       1.0  0.77800  0.07580  0.91560  1.0000 -0.4977041629
O   O25       1.0  0.28470  0.46600  0.85670  1.0000 -0.5299633887
O   O26       1.0  0.71530  0.53400  0.14330  1.0000 -0.5299633887
O   O27       1.0  0.11910  0.26210  0.75540  1.0000 -0.6486051377
O   O28       1.0  0.88090  0.73790  0.24460  1.0000 -0.6486051377
O   O29       1.0  0.35380  0.24060  0.73850  1.0000 -0.6279783991
O   O30       1.0  0.64620  0.75940  0.26150  1.0000 -0.6279783991
O   O31       1.0  0.22930  0.33870  0.62430  1.0000 -0.5374545302
O   O32       1.0  0.77070  0.66130  0.37570  1.0000 -0.5374545302
O   O33       1.0  0.58290  0.90290  0.49130  1.0000 -0.6683770607
O   O34       1.0  0.41710  0.09710  0.50870  1.0000 -0.6683770607
O   O35       1.0  0.50340  0.07320  0.69470  1.0000 -0.6591126426
O   O36       1.0  0.49660  0.92680  0.30530  1.0000 -0.6591126426
O   O37       1.0  0.45330  0.84370  0.62970  1.0000 -0.6780901876
O   O38       1.0  0.54670  0.15630  0.37030  1.0000 -0.6780901876
O   O39       1.0  0.69310  0.95220  0.69060  1.0000 -0.5774750557
O   O40       1.0  0.30690  0.04780  0.30940  1.0000 -0.5774750557
O   O41       1.0  0.48180  0.34810  0.63760  1.0000 -0.6780901876
O   O42       1.0  0.51820  0.65190  0.36240  1.0000 -0.6780901876
O   O43       1.0  0.51410  0.57780  0.69280  1.0000 -0.6780901876
O   O44       1.0  0.48590  0.42220  0.30720  1.0000 -0.6780901876
O   O45       1.0  0.60470  0.41450  0.50040  1.0000 -0.6591126426
O   O46       1.0  0.39530  0.58550  0.49960  1.0000 -0.6591126426
O   O47       1.0  0.70460  0.46450  0.71160  1.0000 -0.5897536722
O   O48       1.0  0.29540  0.53550  0.28840  1.0000 -0.5897536722
O   O49       1.0  0.77160  0.83440  0.86790  1.0000 -0.3220469203
O   O50       1.0  0.22840  0.16560  0.13210  1.0000 -0.3220469203
O   O51       1.0  0.84080  0.72590  0.66270  1.0000 -0.2998805415
O   O52       1.0  0.15920  0.27410  0.33730  1.0000 -0.2998805415
O   O53       1.0  0.60470  0.30810  0.80810  1.0000 -0.3509642776
O   O54       1.0  0.39530  0.69190  0.19190  1.0000 -0.3509642776
O   O55       1.0  0.66930  0.18590  0.60170  1.0000 -0.4104034749
O   O56       1.0  0.33070  0.81410  0.39830  1.0000 -0.4104034749
O   O57       1.0  0.80030  0.34230  0.88110  1.0000 -0.3391121846
O   O58       1.0  0.19970  0.65770  0.11890  1.0000 -0.3391121846
O   O59       1.0  0.86610  0.22780  0.67170  1.0000 -0.2998805415
O   O60       1.0  0.13390  0.77220  0.32830  1.0000 -0.2998805415
O   O61       1.0  0.57880  0.80840  0.79530  1.0000 -0.3391121846
O   O62       1.0  0.42120  0.19160  0.20470  1.0000 -0.3391121846
O   O63       1.0  0.64570  0.68910  0.58670  1.0000 -0.415017679
O   O64       1.0  0.35430  0.31090  0.41330  1.0000 -0.4104034749
