# DDEC6 charges by PACMAN v1.1 (https://github.com/mtap-research/PACMAN-charge/)
data_2002[Zn][pcu]3[FSR]3
_chemical_formula_sum              "Zn8 H48 C108 O26"
_cell_length_a       24.311
_cell_length_b       24.311
_cell_length_c       24.311
_cell_angle_alpha    60
_cell_angle_beta     60
_cell_angle_gamma    60

_symmetry_space_group_name_H-M    "P 1"
_symmetry_Int_Tables_number       1

loop_
  _symmetry_equiv_pos_as_xyz
  'x, y, z'

loop_
  _atom_site_type_symbol
  _atom_site_label
  _atom_site_symmetry_multiplicity
  _atom_site_fract_x
  _atom_site_fract_y
  _atom_site_fract_z
  _atom_site_occupancy
  _atom_site_charge
Zn  Zn1       1.0  0.21725  0.21725  0.34825  1.0000 0.9454964471
Zn  Zn2       1.0  0.34825  0.21725  0.21725  1.0000 0.9454964471
Zn  Zn3       1.0  0.21725  0.34825  0.21725  1.0000 0.9454964471
Zn  Zn4       1.0  0.78275  0.78275  0.78275  1.0000 0.9454964471
Zn  Zn5       1.0  0.65175  0.78275  0.78275  1.0000 0.9454964471
Zn  Zn6       1.0  0.78275  0.65175  0.78275  1.0000 0.9454964471
Zn  Zn7       1.0  0.78275  0.78275  0.65175  1.0000 0.9454964471
Zn  Zn8       1.0  0.21725  0.21725  0.21725  1.0000 0.9454964471
H   H1        1.0  0.09620  0.09620  0.32100  1.0000 0.1302189281
H   H2        1.0  0.32100  0.09620  0.09620  1.0000 0.1302189281
H   H3        1.0  0.09620  0.32100  0.09620  1.0000 0.1302189281
H   H4        1.0  0.90380  0.90380  0.51340  1.0000 0.1302189281
H   H5        1.0  0.67900  0.51340  0.90380  1.0000 0.1302189281
H   H6        1.0  0.51340  0.67900  0.90380  1.0000 0.1302189281
H   H7        1.0  0.67900  0.90380  0.51340  1.0000 0.1302189281
H   H8        1.0  0.51340  0.90380  0.67900  1.0000 0.1302189281
H   H9        1.0  0.90380  0.51340  0.90380  1.0000 0.1302189281
H   H10       1.0  0.90380  0.67900  0.51340  1.0000 0.1302189281
H   H11       1.0  0.90380  0.51340  0.67900  1.0000 0.1302189281
H   H12       1.0  0.51340  0.90380  0.90380  1.0000 0.1302189281
H   H13       1.0  0.90380  0.90380  0.67900  1.0000 0.1302189281
H   H14       1.0  0.67900  0.90380  0.90380  1.0000 0.1302189281
H   H15       1.0  0.90380  0.67900  0.90380  1.0000 0.1302189281
H   H16       1.0  0.09620  0.09620  0.48660  1.0000 0.1302189281
H   H17       1.0  0.32100  0.48660  0.09620  1.0000 0.1302189281
H   H18       1.0  0.48660  0.32100  0.09620  1.0000 0.1302189281
H   H19       1.0  0.32100  0.09620  0.48660  1.0000 0.1302189281
H   H20       1.0  0.48660  0.09620  0.32100  1.0000 0.1302189281
H   H21       1.0  0.09620  0.48660  0.09620  1.0000 0.1302189281
H   H22       1.0  0.09620  0.32100  0.48660  1.0000 0.1302189281
H   H23       1.0  0.09620  0.48660  0.32100  1.0000 0.1302189281
H   H24       1.0  0.48660  0.09620  0.09620  1.0000 0.1302189281
H   H25       1.0  0.03310  0.03310  0.33870  1.0000 0.1302189281
H   H26       1.0  0.33870  0.03310  0.03310  1.0000 0.1302189281
H   H27       1.0  0.03310  0.33870  0.03310  1.0000 0.1302189281
H   H28       1.0  0.96690  0.96690  0.40490  1.0000 0.1302189281
H   H29       1.0  0.66130  0.40490  0.96690  1.0000 0.1302189281
H   H30       1.0  0.40490  0.66130  0.96690  1.0000 0.1302189281
H   H31       1.0  0.66130  0.96690  0.40490  1.0000 0.1302189281
H   H32       1.0  0.40490  0.96690  0.66130  1.0000 0.1302189281
H   H33       1.0  0.96690  0.40490  0.96690  1.0000 0.1302189281
H   H34       1.0  0.96690  0.66130  0.40490  1.0000 0.1302189281
H   H35       1.0  0.96690  0.40490  0.66130  1.0000 0.1302189281
H   H36       1.0  0.40490  0.96690  0.96690  1.0000 0.1302189281
H   H37       1.0  0.96690  0.96690  0.66130  1.0000 0.1302189281
H   H38       1.0  0.66130  0.96690  0.96690  1.0000 0.1302189281
H   H39       1.0  0.96690  0.66130  0.96690  1.0000 0.1302189281
H   H40       1.0  0.03310  0.03310  0.59510  1.0000 0.1302189281
H   H41       1.0  0.33870  0.59510  0.03310  1.0000 0.1302189281
H   H42       1.0  0.59510  0.33870  0.03310  1.0000 0.1302189281
H   H43       1.0  0.33870  0.03310  0.59510  1.0000 0.1302189281
H   H44       1.0  0.59510  0.03310  0.33870  1.0000 0.1302189281
H   H45       1.0  0.03310  0.59510  0.03310  1.0000 0.1302189281
H   H46       1.0  0.03310  0.33870  0.59510  1.0000 0.1302189281
H   H47       1.0  0.03310  0.59510  0.33870  1.0000 0.1302189281
H   H48       1.0  0.59510  0.03310  0.03310  1.0000 0.1302189281
C   C1        1.0  0.10480  0.10480  0.39520  1.0000 -0.1179443792
C   C2        1.0  0.39520  0.10480  0.10480  1.0000 -0.1179443792
C   C3        1.0  0.10480  0.39520  0.10480  1.0000 -0.1179443792
C   C4        1.0  0.89520  0.89520  0.60480  1.0000 -0.1179443792
C   C5        1.0  0.60480  0.60480  0.89520  1.0000 -0.1179443792
C   C6        1.0  0.60480  0.89520  0.60480  1.0000 -0.1179443792
C   C7        1.0  0.89520  0.60480  0.89520  1.0000 -0.1179443792
C   C8        1.0  0.89520  0.60480  0.60480  1.0000 -0.1179443792
C   C9        1.0  0.60480  0.89520  0.89520  1.0000 -0.1179443792
C   C10       1.0  0.39520  0.39520  0.10480  1.0000 -0.1179443792
C   C11       1.0  0.39520  0.10480  0.39520  1.0000 -0.1179443792
C   C12       1.0  0.10480  0.39520  0.39520  1.0000 -0.1179443792
C   C13       1.0  0.14370  0.14370  0.35630  1.0000 0.533588198
C   C14       1.0  0.35630  0.14370  0.14370  1.0000 0.533588198
C   C15       1.0  0.14370  0.35630  0.14370  1.0000 0.533588198
C   C16       1.0  0.85630  0.85630  0.64370  1.0000 0.533588198
C   C17       1.0  0.64370  0.64370  0.85630  1.0000 0.533588198
C   C18       1.0  0.64370  0.85630  0.64370  1.0000 0.533588198
C   C19       1.0  0.85630  0.64370  0.85630  1.0000 0.533588198
C   C20       1.0  0.85630  0.64370  0.64370  1.0000 0.533588198
C   C21       1.0  0.64370  0.85630  0.85630  1.0000 0.533588198
C   C22       1.0  0.35630  0.35630  0.14370  1.0000 0.533588198
C   C23       1.0  0.35630  0.14370  0.35630  1.0000 0.533588198
C   C24       1.0  0.14370  0.35630  0.35630  1.0000 0.533588198
C   C25       1.0  0.08350  0.08350  0.36750  1.0000 -0.1179443792
C   C26       1.0  0.36750  0.08350  0.08350  1.0000 -0.1179443792
C   C27       1.0  0.08350  0.36750  0.08350  1.0000 -0.1179443792
C   C28       1.0  0.91650  0.91650  0.53450  1.0000 -0.114640585
C   C29       1.0  0.63250  0.53450  0.91650  1.0000 -0.114640585
C   C30       1.0  0.53450  0.63250  0.91650  1.0000 -0.114640585
C   C31       1.0  0.63250  0.91650  0.53450  1.0000 -0.114640585
C   C32       1.0  0.53450  0.91650  0.63250  1.0000 -0.114640585
C   C33       1.0  0.91650  0.53450  0.91650  1.0000 -0.114640585
C   C34       1.0  0.91650  0.63250  0.53450  1.0000 -0.114640585
C   C35       1.0  0.91650  0.53450  0.63250  1.0000 -0.114640585
C   C36       1.0  0.53450  0.91650  0.91650  1.0000 -0.1179443792
C   C37       1.0  0.91650  0.91650  0.63250  1.0000 -0.114640585
C   C38       1.0  0.63250  0.91650  0.91650  1.0000 -0.114640585
C   C39       1.0  0.91650  0.63250  0.91650  1.0000 -0.114640585
C   C40       1.0  0.08350  0.08350  0.46550  1.0000 -0.1179443792
C   C41       1.0  0.36750  0.46550  0.08350  1.0000 -0.1179443792
C   C42       1.0  0.46550  0.36750  0.08350  1.0000 -0.1179443792
C   C43       1.0  0.36750  0.08350  0.46550  1.0000 -0.1179443792
C   C44       1.0  0.46550  0.08350  0.36750  1.0000 -0.1179443792
C   C45       1.0  0.08350  0.46550  0.08350  1.0000 -0.1179443792
C   C46       1.0  0.08350  0.36750  0.46550  1.0000 -0.1179443792
C   C47       1.0  0.08350  0.46550  0.36750  1.0000 -0.1179443792
C   C48       1.0  0.46550  0.08350  0.08350  1.0000 -0.1179443792
C   C49       1.0  0.04280  0.04280  0.41060  1.0000 0.0719110714
C   C50       1.0  0.41060  0.04280  0.04280  1.0000 0.0719110714
C   C51       1.0  0.04280  0.41060  0.04280  1.0000 0.0719110714
C   C52       1.0  0.95720  0.95720  0.49620  1.0000 0.0719110714
C   C53       1.0  0.58940  0.49620  0.95720  1.0000 0.0719110714
C   C54       1.0  0.49620  0.58940  0.95720  1.0000 0.0719110714
C   C55       1.0  0.58940  0.95720  0.49620  1.0000 0.0719110714
C   C56       1.0  0.49620  0.95720  0.58940  1.0000 0.0719110714
C   C57       1.0  0.95720  0.49620  0.95720  1.0000 0.0719110714
C   C58       1.0  0.95720  0.58940  0.49620  1.0000 0.0719110714
C   C59       1.0  0.95720  0.49620  0.58940  1.0000 0.0719110714
C   C60       1.0  0.49620  0.95720  0.95720  1.0000 0.0719110714
C   C61       1.0  0.95720  0.95720  0.58940  1.0000 0.0719110714
C   C62       1.0  0.58940  0.95720  0.95720  1.0000 0.0719110714
C   C63       1.0  0.95720  0.58940  0.95720  1.0000 0.0719110714
C   C64       1.0  0.04280  0.04280  0.50380  1.0000 0.0719110714
C   C65       1.0  0.41060  0.50380  0.04280  1.0000 0.0719110714
C   C66       1.0  0.50380  0.41060  0.04280  1.0000 0.0719110714
C   C67       1.0  0.41060  0.04280  0.50380  1.0000 0.0719110714
C   C68       1.0  0.50380  0.04280  0.41060  1.0000 0.0719110714
C   C69       1.0  0.04280  0.50380  0.04280  1.0000 0.0719110714
C   C70       1.0  0.04280  0.41060  0.50380  1.0000 0.0719110714
C   C71       1.0  0.04280  0.50380  0.41060  1.0000 0.0719110714
C   C72       1.0  0.50380  0.04280  0.04280  1.0000 0.0719110714
C   C73       1.0  0.01920  0.01920  0.48080  1.0000 -0.0074550135
C   C74       1.0  0.48080  0.01920  0.01920  1.0000 -0.0074550135
C   C75       1.0  0.01920  0.48080  0.01920  1.0000 -0.0074550135
C   C76       1.0  0.98080  0.98080  0.51920  1.0000 -0.0043758672
C   C77       1.0  0.51920  0.51920  0.98080  1.0000 -0.0043758672
C   C78       1.0  0.51920  0.98080  0.51920  1.0000 -0.0043758672
C   C79       1.0  0.98080  0.51920  0.98080  1.0000 -0.0043758672
C   C80       1.0  0.98080  0.51920  0.51920  1.0000 -0.0043758672
C   C81       1.0  0.51920  0.98080  0.98080  1.0000 -0.0043758672
C   C82       1.0  0.48080  0.48080  0.01920  1.0000 -0.0074550135
C   C83       1.0  0.48080  0.01920  0.48080  1.0000 -0.0074550135
C   C84       1.0  0.01920  0.48080  0.48080  1.0000 -0.0074550135
C   C85       1.0  0.02030  0.02030  0.38530  1.0000 -0.1521707286
C   C86       1.0  0.38530  0.02030  0.02030  1.0000 -0.1521707286
C   C87       1.0  0.02030  0.38530  0.02030  1.0000 -0.1521707286
C   C88       1.0  0.97970  0.97970  0.42590  1.0000 -0.1521707286
C   C89       1.0  0.61470  0.42590  0.97970  1.0000 -0.1521707286
C   C90       1.0  0.42590  0.61470  0.97970  1.0000 -0.1521707286
C   C91       1.0  0.61470  0.97970  0.42590  1.0000 -0.1521707286
C   C92       1.0  0.42590  0.97970  0.61470  1.0000 -0.1521707286
C   C93       1.0  0.97970  0.42590  0.97970  1.0000 -0.1521707286
C   C94       1.0  0.97970  0.61470  0.42590  1.0000 -0.1521707286
C   C95       1.0  0.97970  0.42590  0.61470  1.0000 -0.1521707286
C   C96       1.0  0.42590  0.97970  0.97970  1.0000 -0.1521707286
C   C97       1.0  0.97970  0.97970  0.61470  1.0000 -0.1521707286
C   C98       1.0  0.61470  0.97970  0.97970  1.0000 -0.1521707286
C   C99       1.0  0.97970  0.61470  0.97970  1.0000 -0.1521707286
C   C100      1.0  0.02030  0.02030  0.57410  1.0000 -0.1521707286
C   C101      1.0  0.38530  0.57410  0.02030  1.0000 -0.1521707286
C   C102      1.0  0.57410  0.38530  0.02030  1.0000 -0.1521707286
C   C103      1.0  0.38530  0.02030  0.57410  1.0000 -0.1521707286
C   C104      1.0  0.57410  0.02030  0.38530  1.0000 -0.1521707286
C   C105      1.0  0.02030  0.57410  0.02030  1.0000 -0.1521707286
C   C106      1.0  0.02030  0.38530  0.57410  1.0000 -0.1521707286
C   C107      1.0  0.02030  0.57410  0.38530  1.0000 -0.1521707286
C   C108      1.0  0.57410  0.02030  0.02030  1.0000 -0.1521707286
O   O1        1.0  0.25000  0.25000  0.25000  1.0000 -0.999524467
O   O2        1.0  0.75000  0.75000  0.75000  1.0000 -0.999524467
O   O3        1.0  0.16130  0.16130  0.38370  1.0000 -0.5004840248
O   O4        1.0  0.38370  0.16130  0.16130  1.0000 -0.5004840248
O   O5        1.0  0.16130  0.38370  0.16130  1.0000 -0.5004840248
O   O6        1.0  0.83870  0.83870  0.70630  1.0000 -0.5004840248
O   O7        1.0  0.61630  0.70630  0.83870  1.0000 -0.5004840248
O   O8        1.0  0.70630  0.61630  0.83870  1.0000 -0.5004840248
O   O9        1.0  0.61630  0.83870  0.70630  1.0000 -0.5004840248
O   O10       1.0  0.70630  0.83870  0.61630  1.0000 -0.5004840248
O   O11       1.0  0.83870  0.70630  0.83870  1.0000 -0.5004840248
O   O12       1.0  0.83870  0.61630  0.70630  1.0000 -0.5004840248
O   O13       1.0  0.83870  0.70630  0.61630  1.0000 -0.5004840248
O   O14       1.0  0.70630  0.83870  0.83870  1.0000 -0.5004840248
O   O15       1.0  0.83870  0.83870  0.61630  1.0000 -0.5004840248
O   O16       1.0  0.61630  0.83870  0.83870  1.0000 -0.5004840248
O   O17       1.0  0.83870  0.61630  0.83870  1.0000 -0.5004840248
O   O18       1.0  0.16130  0.16130  0.29370  1.0000 -0.5004840248
O   O19       1.0  0.38370  0.29370  0.16130  1.0000 -0.5004840248
O   O20       1.0  0.29370  0.38370  0.16130  1.0000 -0.5004840248
O   O21       1.0  0.38370  0.16130  0.29370  1.0000 -0.5004840248
O   O22       1.0  0.29370  0.16130  0.38370  1.0000 -0.5004840248
O   O23       1.0  0.16130  0.29370  0.16130  1.0000 -0.5004840248
O   O24       1.0  0.16130  0.38370  0.29370  1.0000 -0.5004840248
O   O25       1.0  0.16130  0.29370  0.38370  1.0000 -0.5004840248
O   O26       1.0  0.29370  0.16130  0.16130  1.0000 -0.5004840248
