# DDEC6 charges by PACMAN v1.1 (https://github.com/mtap-research/PACMAN-charge/)
data_2003[Pr][stp]3[FSR]1
_chemical_formula_sum              "Pr2 H12 C18 O24"
_cell_length_a       10.2182
_cell_length_b       10.2182
_cell_length_c       8.9084
_cell_angle_alpha    90
_cell_angle_beta     90
_cell_angle_gamma    120

_symmetry_space_group_name_H-M    "P 1"
_symmetry_Int_Tables_number       1

loop_
  _symmetry_equiv_pos_as_xyz
  'x, y, z'

loop_
  _atom_site_type_symbol
  _atom_site_label
  _atom_site_symmetry_multiplicity
  _atom_site_fract_x
  _atom_site_fract_y
  _atom_site_fract_z
  _atom_site_occupancy
  _atom_site_charge
Pr  Pr1       1.0  0.66667  0.33333  0.05196  1.0000 2.0586141239
Pr  Pr2       1.0  0.33333  0.66667  0.94804  1.0000 2.0586141239
H   H1        1.0  0.51790  0.88270  0.43700  1.0000 0.1390089706
H   H2        1.0  0.11730  0.63520  0.43700  1.0000 0.1390089706
H   H3        1.0  0.36480  0.48210  0.43700  1.0000 0.1390089706
H   H4        1.0  0.48210  0.11730  0.56300  1.0000 0.1390089706
H   H5        1.0  0.88270  0.36480  0.56300  1.0000 0.1390089706
H   H6        1.0  0.63520  0.51790  0.56300  1.0000 0.1390089706
H   H7        1.0  0.36820  0.94090  0.27800  1.0000 0.1667208265
H   H8        1.0  0.05910  0.42730  0.27800  1.0000 0.1667208265
H   H9        1.0  0.57270  0.63180  0.27800  1.0000 0.1667208265
H   H10       1.0  0.63180  0.05910  0.72200  1.0000 0.1667208265
H   H11       1.0  0.94090  0.57270  0.72200  1.0000 0.1667208265
H   H12       1.0  0.42730  0.36820  0.72200  1.0000 0.1667208265
C   C1        1.0  0.53730  0.98670  0.43270  1.0000 0.1051575284
C   C2        1.0  0.01330  0.55060  0.43270  1.0000 0.1042651351
C   C3        1.0  0.44940  0.46270  0.43270  1.0000 0.1042651351
C   C4        1.0  0.46270  0.01330  0.56730  1.0000 0.1042651351
C   C5        1.0  0.98670  0.44940  0.56730  1.0000 0.1051575284
C   C6        1.0  0.55060  0.53730  0.56730  1.0000 0.1051575284
C   C7        1.0  0.55420  0.97500  0.15510  1.0000 0.6454405676
C   C8        1.0  0.02500  0.57920  0.15510  1.0000 0.6454405676
C   C9        1.0  0.42080  0.44580  0.15510  1.0000 0.6454405676
C   C10       1.0  0.44580  0.02500  0.84490  1.0000 0.6454405676
C   C11       1.0  0.97500  0.42080  0.84490  1.0000 0.6454405676
C   C12       1.0  0.57920  0.55420  0.84490  1.0000 0.6454405676
C   C13       1.0  0.47770  0.00900  0.28340  1.0000 0.0188744165
C   C14       1.0  0.99100  0.46870  0.28340  1.0000 0.0188744165
C   C15       1.0  0.53130  0.52230  0.28340  1.0000 0.0188744165
C   C16       1.0  0.52230  0.99100  0.71660  1.0000 0.0188744165
C   C17       1.0  0.00900  0.53130  0.71660  1.0000 0.0188744165
C   C18       1.0  0.46870  0.47770  0.71660  1.0000 0.0188744165
O   O1        1.0  0.69760  0.08750  0.43950  1.0000 -0.2645561654
O   O2        1.0  0.91250  0.61010  0.43950  1.0000 -0.2668632228
O   O3        1.0  0.38990  0.30240  0.43950  1.0000 -0.2668632228
O   O4        1.0  0.30240  0.91250  0.56050  1.0000 -0.2668632228
O   O5        1.0  0.08750  0.38990  0.56050  1.0000 -0.2668632228
O   O6        1.0  0.61010  0.69760  0.56050  1.0000 -0.2645561654
O   O7        1.0  0.65010  0.08420  0.07740  1.0000 -0.5464028228
O   O8        1.0  0.91580  0.56590  0.07740  1.0000 -0.5464028228
O   O9        1.0  0.43410  0.34990  0.07740  1.0000 -0.5464028228
O   O10       1.0  0.34990  0.91580  0.92260  1.0000 -0.5464028228
O   O11       1.0  0.08420  0.43410  0.92260  1.0000 -0.5464028228
O   O12       1.0  0.56590  0.65010  0.92260  1.0000 -0.5464028228
O   O13       1.0  0.51780  0.84030  0.13290  1.0000 -0.6083402444
O   O14       1.0  0.15970  0.67750  0.13290  1.0000 -0.6083402444
O   O15       1.0  0.32250  0.48220  0.13290  1.0000 -0.6083402444
O   O16       1.0  0.48220  0.15970  0.86710  1.0000 -0.6083402444
O   O17       1.0  0.84030  0.32250  0.86710  1.0000 -0.6083402444
O   O18       1.0  0.67750  0.51780  0.86710  1.0000 -0.6083402444
O   O19       1.0  0.51170  0.16250  0.26470  1.0000 -0.34012355
O   O20       1.0  0.83750  0.34920  0.26470  1.0000 -0.34012355
O   O21       1.0  0.65080  0.48830  0.26470  1.0000 -0.34012355
O   O22       1.0  0.48830  0.83750  0.73530  1.0000 -0.34012355
O   O23       1.0  0.16250  0.65080  0.73530  1.0000 -0.34012355
O   O24       1.0  0.34920  0.51170  0.73530  1.0000 -0.34012355
