# DDEC6 charges by PACMAN v1.1 (https://github.com/mtap-research/PACMAN-charge/)
data_2003[Cu][rob]3[FSR]5
_chemical_formula_sum              "Cu4 H48 C44 N4 O16"
_cell_length_a       13.3473
_cell_length_b       13.3473
_cell_length_c       9.2063
_cell_angle_alpha    89.6865
_cell_angle_beta     90.3135
_cell_angle_gamma    127.204

_symmetry_space_group_name_H-M    "P 1"
_symmetry_Int_Tables_number       1

loop_
  _symmetry_equiv_pos_as_xyz
  'x, y, z'

loop_
  _atom_site_type_symbol
  _atom_site_label
  _atom_site_symmetry_multiplicity
  _atom_site_fract_x
  _atom_site_fract_y
  _atom_site_fract_z
  _atom_site_occupancy
  _atom_site_charge
Cu  Cu1       1.0  0.56732  0.97730  0.57854  1.0000 0.7556424252
Cu  Cu2       1.0  0.97730  0.56732  0.92146  1.0000 0.7556424252
Cu  Cu3       1.0  0.43268  0.02270  0.42146  1.0000 0.7556424252
Cu  Cu4       1.0  0.02270  0.43268  0.07854  1.0000 0.7556424252
H   H1        1.0  0.81920  0.39780  0.57620  1.0000 0.1398315429
H   H2        1.0  0.39780  0.81920  0.92380  1.0000 0.1398315429
H   H3        1.0  0.18080  0.60220  0.42380  1.0000 0.1398315429
H   H4        1.0  0.60220  0.18080  0.07620  1.0000 0.1398315429
H   H5        1.0  0.85810  0.37510  0.42330  1.0000 0.1398315429
H   H6        1.0  0.37510  0.85810  0.07670  1.0000 0.1398315429
H   H7        1.0  0.14190  0.62490  0.57670  1.0000 0.1398315429
H   H8        1.0  0.62490  0.14190  0.92330  1.0000 0.1398315429
H   H9        1.0  0.71880  0.42060  0.31550  1.0000 0.1022323332
H   H10       1.0  0.42060  0.71880  0.18450  1.0000 0.1022323332
H   H11       1.0  0.28120  0.57940  0.68450  1.0000 0.1022323332
H   H12       1.0  0.57940  0.28120  0.81550  1.0000 0.1022323332
H   H13       1.0  0.72600  0.47720  0.47120  1.0000 0.0904596485
H   H14       1.0  0.47720  0.72600  0.02880  1.0000 0.0904596485
H   H15       1.0  0.27400  0.52280  0.52880  1.0000 0.0904596485
H   H16       1.0  0.52280  0.27400  0.97120  1.0000 0.0904596485
H   H17       1.0  0.95890  0.61570  0.44100  1.0000 0.1398315429
H   H18       1.0  0.61570  0.95890  0.05900  1.0000 0.1398315429
H   H19       1.0  0.04110  0.38430  0.55900  1.0000 0.1398315429
H   H20       1.0  0.38430  0.04110  0.94100  1.0000 0.1398315429
H   H21       1.0  0.88430  0.65070  0.34290  1.0000 0.1196650899
H   H22       1.0  0.65070  0.88430  0.15710  1.0000 0.1196650899
H   H23       1.0  0.11570  0.34930  0.65710  1.0000 0.1196650899
H   H24       1.0  0.34930  0.11570  0.84290  1.0000 0.1196650899
H   H25       1.0  0.80910  0.15690  0.75210  1.0000 0.1117609404
H   H26       1.0  0.15690  0.80910  0.74790  1.0000 0.1117609404
H   H27       1.0  0.19090  0.84310  0.24790  1.0000 0.1117609404
H   H28       1.0  0.84310  0.19090  0.25210  1.0000 0.1117609404
H   H29       1.0  0.93780  0.16160  0.92450  1.0000 0.1398315429
H   H30       1.0  0.16160  0.93780  0.57550  1.0000 0.1398315429
H   H31       1.0  0.06220  0.83840  0.07550  1.0000 0.1398315429
H   H32       1.0  0.83840  0.06220  0.42450  1.0000 0.1398315429
H   H33       1.0  0.73040  0.78380  0.89460  1.0000 0.1287815235
H   H34       1.0  0.78380  0.73040  0.60540  1.0000 0.1287815235
H   H35       1.0  0.26960  0.21620  0.10540  1.0000 0.1287815235
H   H36       1.0  0.21620  0.26960  0.39460  1.0000 0.1287815235
H   H37       1.0  0.60460  0.78880  0.72610  1.0000 0.1117609404
H   H38       1.0  0.78880  0.60460  0.77390  1.0000 0.1117609404
H   H39       1.0  0.39540  0.21120  0.27390  1.0000 0.1117609404
H   H40       1.0  0.21120  0.39540  0.22610  1.0000 0.1117609404
H   H41       1.0  0.95100  0.02820  0.11870  1.0000 0.1196650899
H   H42       1.0  0.02820  0.95100  0.38130  1.0000 0.1196650899
H   H43       1.0  0.04900  0.97180  0.88130  1.0000 0.1196650899
H   H44       1.0  0.97180  0.04900  0.61870  1.0000 0.1196650899
H   H45       1.0  0.89670  0.88830  0.07190  1.0000 0.1196650899
H   H46       1.0  0.88830  0.89670  0.42810  1.0000 0.1196650899
H   H47       1.0  0.10330  0.11170  0.92810  1.0000 0.1196650899
H   H48       1.0  0.11170  0.10330  0.57190  1.0000 0.1196650899
C   C1        1.0  0.67636  0.23384  0.47940  1.0000 0.6242763362
C   C2        1.0  0.23384  0.67636  0.02060  1.0000 0.625559803
C   C3        1.0  0.32364  0.76616  0.52060  1.0000 0.625559803
C   C4        1.0  0.76616  0.32364  0.97940  1.0000 0.6242763362
C   C5        1.0  0.79010  0.36950  0.47530  1.0000 -0.346672658
C   C6        1.0  0.36950  0.79010  0.02470  1.0000 -0.346672658
C   C7        1.0  0.20990  0.63050  0.52470  1.0000 -0.346672658
C   C8        1.0  0.63050  0.20990  0.97530  1.0000 -0.346672658
C   C9        1.0  0.77147  0.46033  0.40350  1.0000 -0.0876623654
C   C10       1.0  0.46033  0.77147  0.09650  1.0000 -0.0876623654
C   C11       1.0  0.22853  0.53967  0.59650  1.0000 -0.0876623654
C   C12       1.0  0.53967  0.22853  0.90350  1.0000 -0.0876623654
C   C13       1.0  0.89742  0.58618  0.36070  1.0000 -0.3292983883
C   C14       1.0  0.58618  0.89742  0.13930  1.0000 -0.3292983883
C   C15       1.0  0.10258  0.41382  0.63930  1.0000 -0.3292983883
C   C16       1.0  0.41382  0.10258  0.86070  1.0000 -0.3292983883
C   C17       1.0  0.94749  0.56791  0.22600  1.0000 0.6242763362
C   C18       1.0  0.56791  0.94749  0.27400  1.0000 0.6242763362
C   C19       1.0  0.05251  0.43209  0.77400  1.0000 0.6242763362
C   C20       1.0  0.43209  0.05251  0.72600  1.0000 0.6242763362
C   C21       1.0  0.79197  0.07983  0.78240  1.0000 0.0904596485
C   C22       1.0  0.07983  0.79197  0.71760  1.0000 0.0904596485
C   C23       1.0  0.20803  0.92017  0.21760  1.0000 0.0904596485
C   C24       1.0  0.92017  0.20803  0.28240  1.0000 0.0904596485
C   C25       1.0  0.87007  0.08353  0.88430  1.0000 -0.2113065795
C   C26       1.0  0.08353  0.87007  0.61570  1.0000 -0.2113065795
C   C27       1.0  0.12993  0.91647  0.11570  1.0000 -0.2113065795
C   C28       1.0  0.91647  0.12993  0.38430  1.0000 -0.2113065795
C   C29       1.0  0.84931  0.97229  0.92820  1.0000 0.1658930592
C   C30       1.0  0.97229  0.84931  0.57180  1.0000 0.1658930592
C   C31       1.0  0.15069  0.02771  0.07180  1.0000 0.1658930592
C   C32       1.0  0.02771  0.15069  0.42820  1.0000 0.1658930592
C   C33       1.0  0.74840  0.86200  0.86760  1.0000 -0.2162897178
C   C34       1.0  0.86200  0.74840  0.63240  1.0000 -0.2162897178
C   C35       1.0  0.25160  0.13800  0.13240  1.0000 -0.2162897178
C   C36       1.0  0.13800  0.25160  0.36760  1.0000 -0.2162897178
C   C37       1.0  0.67355  0.86585  0.76700  1.0000 0.0758347827
C   C38       1.0  0.86585  0.67355  0.73300  1.0000 0.0758347827
C   C39       1.0  0.32645  0.13415  0.23300  1.0000 0.0758347827
C   C40       1.0  0.13415  0.32645  0.26700  1.0000 0.0758347827
C   C41       1.0  0.93659  0.97461  0.03510  1.0000 -0.2415823192
C   C42       1.0  0.97461  0.93659  0.46490  1.0000 -0.2415823192
C   C43       1.0  0.06341  0.02539  0.96490  1.0000 -0.2415823192
C   C44       1.0  0.02539  0.06341  0.53510  1.0000 -0.2415823192
N   N1        1.0  0.69329  0.97291  0.72410  1.0000 -0.2536946648
N   N2        1.0  0.97291  0.69329  0.77590  1.0000 -0.2536946648
N   N3        1.0  0.30671  0.02709  0.27590  1.0000 -0.2536946648
N   N4        1.0  0.02709  0.30671  0.22410  1.0000 -0.2536946648
O   O1        1.0  0.68992  0.15968  0.54570  1.0000 -0.5498341956
O   O2        1.0  0.15968  0.68992  0.95430  1.0000 -0.5498341956
O   O3        1.0  0.31008  0.84032  0.45430  1.0000 -0.5498341956
O   O4        1.0  0.84032  0.31008  0.04570  1.0000 -0.5498341956
O   O5        1.0  0.57751  0.20149  0.41530  1.0000 -0.505913023
O   O6        1.0  0.20149  0.57751  0.08470  1.0000 -0.505913023
O   O7        1.0  0.42249  0.79851  0.58470  1.0000 -0.505913023
O   O8        1.0  0.79851  0.42249  0.91530  1.0000 -0.505913023
O   O9        1.0  0.93804  0.60976  0.10760  1.0000 -0.5346613564
O   O10       1.0  0.60976  0.93804  0.39240  1.0000 -0.5346613564
O   O11       1.0  0.06196  0.39024  0.89240  1.0000 -0.5346613564
O   O12       1.0  0.39024  0.06196  0.60760  1.0000 -0.5346613564
O   O13       1.0  0.99139  0.50761  0.23870  1.0000 -0.5234258809
O   O14       1.0  0.50761  0.99139  0.26130  1.0000 -0.5234258809
O   O15       1.0  0.00861  0.49239  0.76130  1.0000 -0.5234258809
O   O16       1.0  0.49239  0.00861  0.73870  1.0000 -0.5234258809
