# DDEC6 charges by PACMAN v1.1 (https://github.com/mtap-research/PACMAN-charge/)
data_2003[Al][nan]3[FSR]1
_chemical_formula_sum              "Al4 P6 H4 C2 O28"
_cell_length_a       8.611
_cell_length_b       9.096
_cell_length_c       11.371
_cell_angle_alpha    104.811
_cell_angle_beta     111.368
_cell_angle_gamma    94.248

_symmetry_space_group_name_H-M    "P 1"
_symmetry_Int_Tables_number       1

loop_
  _symmetry_equiv_pos_as_xyz
  'x, y, z'

loop_
  _atom_site_type_symbol
  _atom_site_label
  _atom_site_symmetry_multiplicity
  _atom_site_fract_x
  _atom_site_fract_y
  _atom_site_fract_z
  _atom_site_occupancy
  _atom_site_charge
Al  Al1       1.0  0.04841  0.32627  0.35600  1.0000 1.736361952
Al  Al2       1.0  0.95159  0.67373  0.64400  1.0000 1.736361952
Al  Al3       1.0  0.17332  0.36380  0.89655  1.0000 1.6895387484
Al  Al4       1.0  0.82668  0.63620  0.10345  1.0000 1.6895387484
P   P1        1.0  0.17090  0.48318  0.18037  1.0000 1.5736092045
P   P2        1.0  0.82910  0.51682  0.81963  1.0000 1.5736092045
P   P3        1.0  0.22918  0.46388  0.66575  1.0000 1.4966081692
P   P4        1.0  0.77082  0.53612  0.33425  1.0000 1.4966081692
P   P5        1.0  0.85930  0.99224  0.20976  1.0000 1.4385688021
P   P6        1.0  0.14070  0.00776  0.79024  1.0000 1.4385688021
H   H1        1.0  0.40300  0.58100  0.26500  1.0000 0.3823792501
H   H2        1.0  0.59700  0.41900  0.73500  1.0000 0.3823792501
H   H3        1.0  0.82300  0.03800  0.37100  1.0000 0.4048399045
H   H4        1.0  0.17700  0.96200  0.62900  1.0000 0.4057639851
C   C1        1.0  0.52630  0.42190  0.99080  1.0000 0.52083102
C   C2        1.0  0.47370  0.57810  0.00920  1.0000 0.52083102
O   O1        1.0  0.19040  0.36840  0.06570  1.0000 -0.7413160936
O   O2        1.0  0.80960  0.63160  0.93430  1.0000 -0.7413160936
O   O3        1.0  0.02610  0.56670  0.13780  1.0000 -0.7413160936
O   O4        1.0  0.97390  0.43330  0.86220  1.0000 -0.7413160936
O   O5        1.0  0.33250  0.61200  0.25760  1.0000 -0.4837821112
O   O6        1.0  0.66750  0.38800  0.74240  1.0000 -0.4837821112
O   O7        1.0  0.15530  0.39560  0.27420  1.0000 -0.7719348059
O   O8        1.0  0.84470  0.60440  0.72580  1.0000 -0.7719348059
O   O9        1.0  0.41800  0.52250  0.73380  1.0000 -0.627494304
O   O10       1.0  0.58200  0.47750  0.26620  1.0000 -0.627494304
O   O11       1.0  0.17950  0.36930  0.52060  1.0000 -0.8117590235
O   O12       1.0  0.82050  0.63070  0.47940  1.0000 -0.8117590235
O   O13       1.0  0.16790  0.35720  0.73020  1.0000 -0.797387688
O   O14       1.0  0.83210  0.64280  0.26980  1.0000 -0.797387688
O   O15       1.0  0.13950  0.60440  0.66880  1.0000 -0.8555661128
O   O16       1.0  0.86050  0.39560  0.33120  1.0000 -0.8542566584
O   O17       1.0  0.92340  0.84600  0.16560  1.0000 -0.6878001676
O   O18       1.0  0.07660  0.15400  0.83440  1.0000 -0.6878001676
O   O19       1.0  0.01290  0.12440  0.29210  1.0000 -0.7902246402
O   O20       1.0  0.98710  0.87560  0.70790  1.0000 -0.7902246402
O   O21       1.0  0.77500  0.96650  0.30610  1.0000 -0.5122804628
O   O22       1.0  0.22500  0.03350  0.69390  1.0000 -0.5122804628
O   O23       1.0  0.73280  0.03310  0.09900  1.0000 -0.5304345773
O   O24       1.0  0.26720  0.96690  0.90100  1.0000 -0.5304345773
O   O25       1.0  0.40880  0.30680  0.94270  1.0000 -0.4368051873
O   O26       1.0  0.59120  0.69320  0.05730  1.0000 -0.4368051873
O   O27       1.0  0.68380  0.42410  0.02600  1.0000 -0.4557525502
O   O28       1.0  0.31620  0.57590  0.97400  1.0000 -0.4557525502
