# DDEC6 charges by PACMAN v1.1 (https://github.com/mtap-research/PACMAN-charge/)
data_2003[Ce][nia]3[FSR]1
_chemical_formula_sum              "Ce4 H24 C24 O36"
_cell_length_a       9.4193
_cell_length_b       9.4193
_cell_length_c       17.4757
_cell_angle_alpha    90
_cell_angle_beta     90
_cell_angle_gamma    120

_symmetry_space_group_name_H-M    "P 1"
_symmetry_Int_Tables_number       1

loop_
  _symmetry_equiv_pos_as_xyz
  'x, y, z'

loop_
  _atom_site_type_symbol
  _atom_site_label
  _atom_site_symmetry_multiplicity
  _atom_site_fract_x
  _atom_site_fract_y
  _atom_site_fract_z
  _atom_site_occupancy
  _atom_site_charge
Ce  Ce1       1.0  0.66667  0.33333  0.25000  1.0000 2.0506333399
Ce  Ce2       1.0  0.33333  0.66667  0.75000  1.0000 2.0506333399
Ce  Ce3       1.0  0.00000  0.00000  0.00000  1.0000 1.9487058211
Ce  Ce4       1.0  0.00000  0.00000  0.50000  1.0000 1.9487058211
H   H1        1.0  0.43123  0.02615  0.07867  1.0000 0.1484878796
H   H2        1.0  0.43123  0.02615  0.42133  1.0000 0.1484878796
H   H3        1.0  0.02615  0.43123  0.57867  1.0000 0.1484878796
H   H4        1.0  0.02615  0.43123  0.92133  1.0000 0.1484878796
H   H5        1.0  0.40508  0.97385  0.92133  1.0000 0.1484878796
H   H6        1.0  0.40508  0.97385  0.57867  1.0000 0.1484878796
H   H7        1.0  0.56877  0.59492  0.57867  1.0000 0.1484878796
H   H8        1.0  0.56877  0.59492  0.92133  1.0000 0.1484878796
H   H9        1.0  0.97385  0.40508  0.07867  1.0000 0.1484878796
H   H10       1.0  0.97385  0.40508  0.42133  1.0000 0.1484878796
H   H11       1.0  0.59492  0.56877  0.42133  1.0000 0.1484878796
H   H12       1.0  0.59492  0.56877  0.07867  1.0000 0.1484878796
H   H13       1.0  0.49649  0.17275  0.02229  1.0000 0.1335984717
H   H14       1.0  0.49649  0.17275  0.47771  1.0000 0.1335984717
H   H15       1.0  0.17275  0.49649  0.52229  1.0000 0.1335984717
H   H16       1.0  0.17275  0.49649  0.97771  1.0000 0.1335984717
H   H17       1.0  0.32374  0.82725  0.97771  1.0000 0.1335984717
H   H18       1.0  0.32374  0.82725  0.52229  1.0000 0.1335984717
H   H19       1.0  0.50351  0.67626  0.52229  1.0000 0.1335984717
H   H20       1.0  0.50351  0.67626  0.97771  1.0000 0.1335984717
H   H21       1.0  0.82725  0.32374  0.02229  1.0000 0.1335984717
H   H22       1.0  0.82725  0.32374  0.47771  1.0000 0.1335984717
H   H23       1.0  0.67626  0.50351  0.47771  1.0000 0.1335984717
H   H24       1.0  0.67626  0.50351  0.02229  1.0000 0.1335984717
C   C1        1.0  0.35110  0.18490  0.10510  1.0000 0.645357995
C   C2        1.0  0.35110  0.18490  0.39490  1.0000 0.645357995
C   C3        1.0  0.18490  0.35110  0.60510  1.0000 0.645357995
C   C4        1.0  0.18490  0.35110  0.89490  1.0000 0.645357995
C   C5        1.0  0.16620  0.81510  0.89490  1.0000 0.645357995
C   C6        1.0  0.16620  0.81510  0.60510  1.0000 0.645357995
C   C7        1.0  0.64890  0.83380  0.60510  1.0000 0.645357995
C   C8        1.0  0.64890  0.83380  0.89490  1.0000 0.645357995
C   C9        1.0  0.81510  0.16620  0.10510  1.0000 0.645357995
C   C10       1.0  0.81510  0.16620  0.39490  1.0000 0.645357995
C   C11       1.0  0.83380  0.64890  0.39490  1.0000 0.645357995
C   C12       1.0  0.83380  0.64890  0.10510  1.0000 0.645357995
C   C13       1.0  0.40290  0.09470  0.05150  1.0000 -0.1839070034
C   C14       1.0  0.40290  0.09470  0.44850  1.0000 -0.1839070034
C   C15       1.0  0.09470  0.40290  0.55150  1.0000 -0.1839070034
C   C16       1.0  0.09470  0.40290  0.94850  1.0000 -0.1839070034
C   C17       1.0  0.30820  0.90530  0.94850  1.0000 -0.1839070034
C   C18       1.0  0.30820  0.90530  0.55150  1.0000 -0.1839070034
C   C19       1.0  0.59710  0.69180  0.55150  1.0000 -0.1839070034
C   C20       1.0  0.59710  0.69180  0.94850  1.0000 -0.1839070034
C   C21       1.0  0.90530  0.30820  0.05150  1.0000 -0.1839070034
C   C22       1.0  0.90530  0.30820  0.44850  1.0000 -0.1839070034
C   C23       1.0  0.69180  0.59710  0.44850  1.0000 -0.1839070034
C   C24       1.0  0.69180  0.59710  0.05150  1.0000 -0.1839070034
O   O1        1.0  0.45050  0.27170  0.15560  1.0000 -0.5900012167
O   O2        1.0  0.45050  0.27170  0.34440  1.0000 -0.5900012167
O   O3        1.0  0.27170  0.45050  0.65560  1.0000 -0.5900012167
O   O4        1.0  0.27170  0.45050  0.84440  1.0000 -0.5900012167
O   O5        1.0  0.17880  0.72830  0.84440  1.0000 -0.5900012167
O   O6        1.0  0.17880  0.72830  0.65560  1.0000 -0.5900012167
O   O7        1.0  0.54950  0.82120  0.65560  1.0000 -0.5900012167
O   O8        1.0  0.54950  0.82120  0.84440  1.0000 -0.5900012167
O   O9        1.0  0.72830  0.17880  0.15560  1.0000 -0.5900012167
O   O10       1.0  0.72830  0.17880  0.34440  1.0000 -0.5900012167
O   O11       1.0  0.82120  0.54950  0.34440  1.0000 -0.5900012167
O   O12       1.0  0.82120  0.54950  0.15560  1.0000 -0.5900012167
O   O13       1.0  0.27200  0.00000  0.00000  1.0000 -0.2186699869
O   O14       1.0  0.27200  0.00000  0.50000  1.0000 -0.2186699869
O   O15       1.0  0.00000  0.27200  0.50000  1.0000 -0.2186699869
O   O16       1.0  0.00000  0.27200  0.00000  1.0000 -0.2186699869
O   O17       1.0  0.72800  0.72800  0.50000  1.0000 -0.2186699869
O   O18       1.0  0.72800  0.72800  0.00000  1.0000 -0.2186699869
O   O19       1.0  0.21080  0.17030  0.09610  1.0000 -0.5900012167
O   O20       1.0  0.21080  0.17030  0.40390  1.0000 -0.5900012167
O   O21       1.0  0.17030  0.21080  0.59610  1.0000 -0.5900012167
O   O22       1.0  0.17030  0.21080  0.90390  1.0000 -0.5900012167
O   O23       1.0  0.04050  0.82970  0.90390  1.0000 -0.5900012167
O   O24       1.0  0.04050  0.82970  0.59610  1.0000 -0.5900012167
O   O25       1.0  0.78920  0.95950  0.59610  1.0000 -0.5900012167
O   O26       1.0  0.78920  0.95950  0.90390  1.0000 -0.5900012167
O   O27       1.0  0.82970  0.04050  0.09610  1.0000 -0.5900012167
O   O28       1.0  0.82970  0.04050  0.40390  1.0000 -0.5900012167
O   O29       1.0  0.95950  0.78920  0.40390  1.0000 -0.5900012167
O   O30       1.0  0.95950  0.78920  0.09610  1.0000 -0.5900012167
O   O31       1.0  0.98990  0.43710  0.25000  1.0000 -0.2415128858
O   O32       1.0  0.43710  0.98990  0.75000  1.0000 -0.2415128858
O   O33       1.0  0.55280  0.56290  0.75000  1.0000 -0.2415128858
O   O34       1.0  0.01010  0.44720  0.75000  1.0000 -0.2415128858
O   O35       1.0  0.56290  0.55280  0.25000  1.0000 -0.2415128858
O   O36       1.0  0.44720  0.01010  0.25000  1.0000 -0.2415128858
