# DDEC6 charges by PACMAN v1.1 (https://github.com/mtap-research/PACMAN-charge/)
data_2003[LaCu][stp]3[FSR]2
_chemical_formula_sum              "La4 Cu6 H60 C48 N12 O48"
_cell_length_a       13.559
_cell_length_b       13.559
_cell_length_c       14.999
_cell_angle_alpha    90
_cell_angle_beta     90
_cell_angle_gamma    120

_symmetry_space_group_name_H-M    "P 1"
_symmetry_Int_Tables_number       1

loop_
  _symmetry_equiv_pos_as_xyz
  'x, y, z'

loop_
  _atom_site_type_symbol
  _atom_site_label
  _atom_site_symmetry_multiplicity
  _atom_site_fract_x
  _atom_site_fract_y
  _atom_site_fract_z
  _atom_site_occupancy
  _atom_site_charge
La  La1       1.0  0.66667  0.33333  0.16952  1.0000 1.8692577676
La  La2       1.0  0.33333  0.66667  0.33048  1.0000 1.8692577676
La  La3       1.0  0.66667  0.33333  0.66952  1.0000 1.8692577676
La  La4       1.0  0.33333  0.66667  0.83048  1.0000 1.8692577676
Cu  Cu1       1.0  0.50000  0.00000  0.00000  1.0000 0.7430592374
Cu  Cu2       1.0  0.00000  0.50000  0.00000  1.0000 0.7430592374
Cu  Cu3       1.0  0.50000  0.50000  0.00000  1.0000 0.7430592374
Cu  Cu4       1.0  0.00000  0.50000  0.50000  1.0000 0.7430592374
Cu  Cu5       1.0  0.50000  0.00000  0.50000  1.0000 0.7430592374
Cu  Cu6       1.0  0.50000  0.50000  0.50000  1.0000 0.7430592374
H   H1        1.0  0.32680  0.97430  0.92360  1.0000 0.2543476269
H   H2        1.0  0.02570  0.35250  0.92360  1.0000 0.2543476269
H   H3        1.0  0.64750  0.67320  0.92360  1.0000 0.2543476269
H   H4        1.0  0.97430  0.32680  0.57640  1.0000 0.2543476269
H   H5        1.0  0.64750  0.97430  0.42360  1.0000 0.2543476269
H   H6        1.0  0.32680  0.35250  0.42360  1.0000 0.2543476269
H   H7        1.0  0.67320  0.02570  0.07640  1.0000 0.2543476269
H   H8        1.0  0.97430  0.64750  0.07640  1.0000 0.2543476269
H   H9        1.0  0.35250  0.32680  0.07640  1.0000 0.2543476269
H   H10       1.0  0.02570  0.67320  0.42360  1.0000 0.2543476269
H   H11       1.0  0.35250  0.02570  0.57640  1.0000 0.2543476269
H   H12       1.0  0.67320  0.64750  0.57640  1.0000 0.2543476269
H   H13       1.0  0.45750  0.18580  0.87210  1.0000 0.1560500905
H   H14       1.0  0.81420  0.27170  0.87210  1.0000 0.1560500905
H   H15       1.0  0.72830  0.54250  0.87210  1.0000 0.1560500905
H   H16       1.0  0.18580  0.45750  0.62790  1.0000 0.1560500905
H   H17       1.0  0.72830  0.18580  0.37210  1.0000 0.1560500905
H   H18       1.0  0.45750  0.27170  0.37210  1.0000 0.1560500905
H   H19       1.0  0.54250  0.81420  0.12790  1.0000 0.1560500905
H   H20       1.0  0.18580  0.72830  0.12790  1.0000 0.1560500905
H   H21       1.0  0.27170  0.45750  0.12790  1.0000 0.1560500905
H   H22       1.0  0.81420  0.54250  0.37210  1.0000 0.1560500905
H   H23       1.0  0.27170  0.81420  0.62790  1.0000 0.1560500905
H   H24       1.0  0.54250  0.72830  0.62790  1.0000 0.1560500905
H   H25       1.0  0.39810  0.07730  0.81150  1.0000 0.1489510134
H   H26       1.0  0.92270  0.32080  0.81150  1.0000 0.1489510134
H   H27       1.0  0.67920  0.60190  0.81150  1.0000 0.1489510134
H   H28       1.0  0.07730  0.39810  0.68850  1.0000 0.1489510134
H   H29       1.0  0.67920  0.07730  0.31150  1.0000 0.1489510134
H   H30       1.0  0.39810  0.32080  0.31150  1.0000 0.1489510134
H   H31       1.0  0.60190  0.92270  0.18850  1.0000 0.1489510134
H   H32       1.0  0.07730  0.67920  0.18850  1.0000 0.1489510134
H   H33       1.0  0.32080  0.39810  0.18850  1.0000 0.1489510134
H   H34       1.0  0.92270  0.60190  0.31150  1.0000 0.1489510134
H   H35       1.0  0.32080  0.92270  0.68850  1.0000 0.1489510134
H   H36       1.0  0.60190  0.67920  0.68850  1.0000 0.1489510134
H   H37       1.0  0.29270  0.03760  0.04700  1.0000 0.1416428283
H   H38       1.0  0.96240  0.25510  0.04700  1.0000 0.1416428283
H   H39       1.0  0.74490  0.70730  0.04700  1.0000 0.1416428283
H   H40       1.0  0.03760  0.29270  0.45300  1.0000 0.1416428283
H   H41       1.0  0.74490  0.03760  0.54700  1.0000 0.1416428283
H   H42       1.0  0.29270  0.25510  0.54700  1.0000 0.1416428283
H   H43       1.0  0.70730  0.96240  0.95300  1.0000 0.1416428283
H   H44       1.0  0.03760  0.74490  0.95300  1.0000 0.1416428283
H   H45       1.0  0.25510  0.29270  0.95300  1.0000 0.1416428283
H   H46       1.0  0.96240  0.70730  0.54700  1.0000 0.1416428283
H   H47       1.0  0.25510  0.96240  0.45300  1.0000 0.1416428283
H   H48       1.0  0.70730  0.74490  0.45300  1.0000 0.1416428283
H   H49       1.0  0.31900  0.13580  0.97920  1.0000 0.1304441326
H   H50       1.0  0.86420  0.18320  0.97920  1.0000 0.1304441326
H   H51       1.0  0.81680  0.68100  0.97920  1.0000 0.1304441326
H   H52       1.0  0.13580  0.31900  0.52080  1.0000 0.1304441326
H   H53       1.0  0.81680  0.13580  0.47920  1.0000 0.1304441326
H   H54       1.0  0.31900  0.18320  0.47920  1.0000 0.1304441326
H   H55       1.0  0.68100  0.86420  0.02080  1.0000 0.1304441326
H   H56       1.0  0.13580  0.81680  0.02080  1.0000 0.1304441326
H   H57       1.0  0.18320  0.31900  0.02080  1.0000 0.1304441326
H   H58       1.0  0.86420  0.68100  0.47920  1.0000 0.1304441326
H   H59       1.0  0.18320  0.86420  0.52080  1.0000 0.1304441326
H   H60       1.0  0.68100  0.81680  0.52080  1.0000 0.1304441326
C   C1        1.0  0.44690  0.11030  0.86310  1.0000 -0.2604005441
C   C2        1.0  0.88970  0.33660  0.86310  1.0000 -0.2604005441
C   C3        1.0  0.66340  0.55310  0.86310  1.0000 -0.2604005441
C   C4        1.0  0.11030  0.44690  0.63690  1.0000 -0.2604005441
C   C5        1.0  0.66340  0.11030  0.36310  1.0000 -0.2604005441
C   C6        1.0  0.44690  0.33660  0.36310  1.0000 -0.2604005441
C   C7        1.0  0.55310  0.88970  0.13690  1.0000 -0.2604005441
C   C8        1.0  0.11030  0.66340  0.13690  1.0000 -0.2604005441
C   C9        1.0  0.33660  0.44690  0.13690  1.0000 -0.2604005441
C   C10       1.0  0.88970  0.55310  0.36310  1.0000 -0.2604005441
C   C11       1.0  0.33660  0.88970  0.63690  1.0000 -0.2604005441
C   C12       1.0  0.55310  0.66340  0.63690  1.0000 -0.2604005441
C   C13       1.0  0.56140  0.12120  0.84360  1.0000 0.639327784
C   C14       1.0  0.87880  0.44020  0.84360  1.0000 0.639327784
C   C15       1.0  0.55980  0.43860  0.84360  1.0000 0.639327784
C   C16       1.0  0.12120  0.56140  0.65640  1.0000 0.639327784
C   C17       1.0  0.55980  0.12120  0.34360  1.0000 0.639327784
C   C18       1.0  0.56140  0.44020  0.34360  1.0000 0.639327784
C   C19       1.0  0.43860  0.87880  0.15640  1.0000 0.639327784
C   C20       1.0  0.12120  0.55980  0.15640  1.0000 0.639327784
C   C21       1.0  0.44020  0.56140  0.15640  1.0000 0.639327784
C   C22       1.0  0.87880  0.43860  0.34360  1.0000 0.639327784
C   C23       1.0  0.44020  0.87880  0.65640  1.0000 0.639327784
C   C24       1.0  0.43860  0.55980  0.65640  1.0000 0.639327784
C   C25       1.0  0.45100  0.17920  0.06800  1.0000 0.6081236795
C   C26       1.0  0.82080  0.27180  0.06800  1.0000 0.6081236795
C   C27       1.0  0.72820  0.54900  0.06800  1.0000 0.6081236795
C   C28       1.0  0.17920  0.45100  0.43200  1.0000 0.6081236795
C   C29       1.0  0.72820  0.17920  0.56800  1.0000 0.6081236795
C   C30       1.0  0.45100  0.27180  0.56800  1.0000 0.6081236795
C   C31       1.0  0.54900  0.82080  0.93200  1.0000 0.6081236795
C   C32       1.0  0.17920  0.72820  0.93200  1.0000 0.6081236795
C   C33       1.0  0.27180  0.45100  0.93200  1.0000 0.6081236795
C   C34       1.0  0.82080  0.54900  0.56800  1.0000 0.6081236795
C   C35       1.0  0.27180  0.82080  0.43200  1.0000 0.6081236795
C   C36       1.0  0.54900  0.72820  0.43200  1.0000 0.6081236795
C   C37       1.0  0.35150  0.09550  0.00960  1.0000 -0.241888906
C   C38       1.0  0.90450  0.25600  0.00960  1.0000 -0.241888906
C   C39       1.0  0.74400  0.64850  0.00960  1.0000 -0.241888906
C   C40       1.0  0.09550  0.35150  0.49040  1.0000 -0.241888906
C   C41       1.0  0.74400  0.09550  0.50960  1.0000 -0.241888906
C   C42       1.0  0.35150  0.25600  0.50960  1.0000 -0.241888906
C   C43       1.0  0.64850  0.90450  0.99040  1.0000 -0.241888906
C   C44       1.0  0.09550  0.74400  0.99040  1.0000 -0.241888906
C   C45       1.0  0.25600  0.35150  0.99040  1.0000 -0.241888906
C   C46       1.0  0.90450  0.64850  0.50960  1.0000 -0.241888906
C   C47       1.0  0.25600  0.90450  0.49040  1.0000 -0.241888906
C   C48       1.0  0.64850  0.74400  0.49040  1.0000 -0.241888906
N   N1        1.0  0.38890  0.03980  0.94220  1.0000 -0.2528876356
N   N2        1.0  0.96020  0.34910  0.94220  1.0000 -0.2528876356
N   N3        1.0  0.65090  0.61110  0.94220  1.0000 -0.2528876356
N   N4        1.0  0.03980  0.38890  0.55780  1.0000 -0.2528876356
N   N5        1.0  0.65090  0.03980  0.44220  1.0000 -0.2528876356
N   N6        1.0  0.38890  0.34910  0.44220  1.0000 -0.2528876356
N   N7        1.0  0.61110  0.96020  0.05780  1.0000 -0.2528876356
N   N8        1.0  0.03980  0.65090  0.05780  1.0000 -0.2528876356
N   N9        1.0  0.34910  0.38890  0.05780  1.0000 -0.2528876356
N   N10       1.0  0.96020  0.61110  0.44220  1.0000 -0.2528876356
N   N11       1.0  0.34910  0.96020  0.55780  1.0000 -0.2528876356
N   N12       1.0  0.61110  0.65090  0.55780  1.0000 -0.2528876356
O   O1        1.0  0.54660  0.18290  0.05680  1.0000 -0.6334927981
O   O2        1.0  0.81710  0.36370  0.05680  1.0000 -0.6334927981
O   O3        1.0  0.63630  0.45340  0.05680  1.0000 -0.6334927981
O   O4        1.0  0.18290  0.54660  0.44320  1.0000 -0.6334927981
O   O5        1.0  0.63630  0.18290  0.55680  1.0000 -0.6334927981
O   O6        1.0  0.54660  0.36370  0.55680  1.0000 -0.6334927981
O   O7        1.0  0.45340  0.81710  0.94320  1.0000 -0.6334927981
O   O8        1.0  0.18290  0.63630  0.94320  1.0000 -0.6334927981
O   O9        1.0  0.36370  0.54660  0.94320  1.0000 -0.6334927981
O   O10       1.0  0.81710  0.45340  0.55680  1.0000 -0.6334927981
O   O11       1.0  0.36370  0.81710  0.44320  1.0000 -0.6334927981
O   O12       1.0  0.45340  0.63630  0.44320  1.0000 -0.6334927981
O   O13       1.0  0.43780  0.23900  0.12320  1.0000 -0.5699901387
O   O14       1.0  0.76100  0.19880  0.12320  1.0000 -0.5699901387
O   O15       1.0  0.80120  0.56220  0.12320  1.0000 -0.5699901387
O   O16       1.0  0.23900  0.43780  0.37680  1.0000 -0.5699901387
O   O17       1.0  0.80120  0.23900  0.62320  1.0000 -0.5699901387
O   O18       1.0  0.43780  0.19880  0.62320  1.0000 -0.5699901387
O   O19       1.0  0.56220  0.76100  0.87680  1.0000 -0.5699901387
O   O20       1.0  0.23900  0.80120  0.87680  1.0000 -0.5699901387
O   O21       1.0  0.19880  0.43780  0.87680  1.0000 -0.5699901387
O   O22       1.0  0.76100  0.56220  0.62320  1.0000 -0.5699901387
O   O23       1.0  0.19880  0.76100  0.37680  1.0000 -0.5699901387
O   O24       1.0  0.56220  0.80120  0.37680  1.0000 -0.5699901387
O   O25       1.0  0.59800  0.07460  0.89550  1.0000 -0.5131218239
O   O26       1.0  0.92540  0.52340  0.89550  1.0000 -0.5131218239
O   O27       1.0  0.47660  0.40200  0.89550  1.0000 -0.5131218239
O   O28       1.0  0.07460  0.59800  0.60450  1.0000 -0.5131218239
O   O29       1.0  0.47660  0.07460  0.39550  1.0000 -0.5131218239
O   O30       1.0  0.59800  0.52340  0.39550  1.0000 -0.5131218239
O   O31       1.0  0.40200  0.92540  0.10450  1.0000 -0.5131218239
O   O32       1.0  0.07460  0.47660  0.10450  1.0000 -0.5131218239
O   O33       1.0  0.52340  0.59800  0.10450  1.0000 -0.5131218239
O   O34       1.0  0.92540  0.40200  0.39550  1.0000 -0.5131218239
O   O35       1.0  0.52340  0.92540  0.60450  1.0000 -0.5131218239
O   O36       1.0  0.40200  0.47660  0.60450  1.0000 -0.5131218239
O   O37       1.0  0.61170  0.17620  0.77590  1.0000 -0.6017208501
O   O38       1.0  0.82380  0.43550  0.77590  1.0000 -0.6017208501
O   O39       1.0  0.56450  0.38830  0.77590  1.0000 -0.6017208501
O   O40       1.0  0.17620  0.61170  0.72410  1.0000 -0.6017208501
O   O41       1.0  0.56450  0.17620  0.27590  1.0000 -0.6017208501
O   O42       1.0  0.61170  0.43550  0.27590  1.0000 -0.6017208501
O   O43       1.0  0.38830  0.82380  0.22410  1.0000 -0.6017208501
O   O44       1.0  0.17620  0.56450  0.22410  1.0000 -0.6017208501
O   O45       1.0  0.43550  0.61170  0.22410  1.0000 -0.6017208501
O   O46       1.0  0.82380  0.38830  0.27590  1.0000 -0.6017208501
O   O47       1.0  0.43550  0.82380  0.72410  1.0000 -0.6017208501
O   O48       1.0  0.38830  0.56450  0.72410  1.0000 -0.6017208501
