# DDEC6 charges by PACMAN v1.1 (https://github.com/mtap-research/PACMAN-charge/)
data_2003[ErCu][stp]3[FSR]1
_chemical_formula_sum              "Er4 Cu6 H60 C48 N12 O48"
_cell_length_a       13.3169
_cell_length_b       13.3169
_cell_length_c       14.297
_cell_angle_alpha    90
_cell_angle_beta     90
_cell_angle_gamma    120

_symmetry_space_group_name_H-M    "P 1"
_symmetry_Int_Tables_number       1

loop_
  _symmetry_equiv_pos_as_xyz
  'x, y, z'

loop_
  _atom_site_type_symbol
  _atom_site_label
  _atom_site_symmetry_multiplicity
  _atom_site_fract_x
  _atom_site_fract_y
  _atom_site_fract_z
  _atom_site_occupancy
  _atom_site_charge
Er  Er1       1.0  0.66667  0.33333  0.15432  1.0000 2.0099405089
Er  Er2       1.0  0.66667  0.33333  0.65432  1.0000 2.0099405089
Er  Er3       1.0  0.33333  0.66667  0.81946  1.0000 2.017945532
Er  Er4       1.0  0.33333  0.66667  0.31946  1.0000 2.017945532
Cu  Cu1       1.0  0.99950  0.49970  0.98670  1.0000 0.7519214192
Cu  Cu2       1.0  0.50030  0.49980  0.98670  1.0000 0.7519214192
Cu  Cu3       1.0  0.50020  0.00050  0.98670  1.0000 0.7519214192
Cu  Cu4       1.0  0.50030  0.00050  0.48670  1.0000 0.7519214192
Cu  Cu5       1.0  0.50020  0.49970  0.48670  1.0000 0.7519214192
Cu  Cu6       1.0  0.99950  0.49980  0.48670  1.0000 0.7519214192
H   H1        1.0  0.98120  0.65030  0.06430  1.0000 0.2548718492
H   H2        1.0  0.34970  0.33090  0.06430  1.0000 0.2548718492
H   H3        1.0  0.66910  0.01880  0.06430  1.0000 0.2548718492
H   H4        1.0  0.34970  0.01880  0.56430  1.0000 0.2548718492
H   H5        1.0  0.66910  0.65030  0.56430  1.0000 0.2548718492
H   H6        1.0  0.98120  0.33090  0.56430  1.0000 0.2548718492
H   H7        1.0  0.02640  0.35030  0.90660  1.0000 0.2548718492
H   H8        1.0  0.64970  0.67610  0.90660  1.0000 0.2548718492
H   H9        1.0  0.32390  0.97360  0.90660  1.0000 0.2548718492
H   H10       1.0  0.64970  0.97360  0.40660  1.0000 0.2548718492
H   H11       1.0  0.32390  0.35030  0.40660  1.0000 0.2548718492
H   H12       1.0  0.02640  0.67610  0.40660  1.0000 0.2548718492
H   H13       1.0  0.07800  0.68720  0.17710  1.0000 0.1481188873
H   H14       1.0  0.31280  0.39080  0.17710  1.0000 0.1481188873
H   H15       1.0  0.60920  0.92200  0.17710  1.0000 0.1481188873
H   H16       1.0  0.31280  0.92200  0.67710  1.0000 0.1481188873
H   H17       1.0  0.60920  0.68720  0.67710  1.0000 0.1481188873
H   H18       1.0  0.07800  0.39080  0.67710  1.0000 0.1481188873
H   H19       1.0  0.18990  0.73830  0.11460  1.0000 0.1568989983
H   H20       1.0  0.26170  0.45160  0.11460  1.0000 0.1568989983
H   H21       1.0  0.54840  0.81010  0.11460  1.0000 0.1568989983
H   H22       1.0  0.26170  0.81010  0.61460  1.0000 0.1568989983
H   H23       1.0  0.54840  0.73830  0.61460  1.0000 0.1568989983
H   H24       1.0  0.18990  0.45160  0.61460  1.0000 0.1568989983
H   H25       1.0  0.90250  0.30940  0.78850  1.0000 0.1568989983
H   H26       1.0  0.69060  0.59310  0.78850  1.0000 0.1568989983
H   H27       1.0  0.40690  0.09750  0.78850  1.0000 0.1568989983
H   H28       1.0  0.69060  0.09750  0.28850  1.0000 0.1568989983
H   H29       1.0  0.40690  0.30940  0.28850  1.0000 0.1568989983
H   H30       1.0  0.90250  0.59310  0.28850  1.0000 0.1568989983
H   H31       1.0  0.79910  0.27010  0.85840  1.0000 0.1568989983
H   H32       1.0  0.72990  0.52900  0.85840  1.0000 0.1568989983
H   H33       1.0  0.47100  0.20090  0.85840  1.0000 0.1568989983
H   H34       1.0  0.72990  0.20090  0.35840  1.0000 0.1568989983
H   H35       1.0  0.47100  0.27010  0.35840  1.0000 0.1568989983
H   H36       1.0  0.79910  0.52900  0.35840  1.0000 0.1568989983
H   H37       1.0  0.04190  0.74320  0.93810  1.0000 0.1417816383
H   H38       1.0  0.25680  0.29870  0.93810  1.0000 0.1417816383
H   H39       1.0  0.70130  0.95810  0.93810  1.0000 0.1417816383
H   H40       1.0  0.25680  0.95810  0.43810  1.0000 0.1417816383
H   H41       1.0  0.70130  0.74320  0.43810  1.0000 0.1417816383
H   H42       1.0  0.04190  0.29870  0.43810  1.0000 0.1417816383
H   H43       1.0  0.14170  0.81710  0.00850  1.0000 0.1304112414
H   H44       1.0  0.18290  0.32460  0.00850  1.0000 0.1304112414
H   H45       1.0  0.67540  0.85830  0.00850  1.0000 0.1304112414
H   H46       1.0  0.18290  0.85830  0.50850  1.0000 0.1304112414
H   H47       1.0  0.67540  0.81710  0.50850  1.0000 0.1304112414
H   H48       1.0  0.14170  0.32460  0.50850  1.0000 0.1304112414
H   H49       1.0  0.96180  0.25230  0.04090  1.0000 0.1417816383
H   H50       1.0  0.74770  0.70950  0.04090  1.0000 0.1417816383
H   H51       1.0  0.29050  0.03820  0.04090  1.0000 0.1417816383
H   H52       1.0  0.74770  0.03820  0.54090  1.0000 0.1417816383
H   H53       1.0  0.29050  0.25230  0.54090  1.0000 0.1417816383
H   H54       1.0  0.96180  0.70950  0.54090  1.0000 0.1417816383
H   H55       1.0  0.86470  0.17680  0.96760  1.0000 0.1304112414
H   H56       1.0  0.82320  0.68790  0.96760  1.0000 0.1304112414
H   H57       1.0  0.31210  0.13530  0.96760  1.0000 0.1304112414
H   H58       1.0  0.82320  0.13530  0.46760  1.0000 0.1304112414
H   H59       1.0  0.31210  0.17680  0.46760  1.0000 0.1304112414
H   H60       1.0  0.86470  0.68790  0.46760  1.0000 0.1304112414
C   C1        1.0  0.87030  0.43430  0.82150  1.0000 0.6458565036
C   C2        1.0  0.56570  0.43600  0.82150  1.0000 0.6458565036
C   C3        1.0  0.56400  0.12970  0.82150  1.0000 0.6458565036
C   C4        1.0  0.56570  0.12970  0.32150  1.0000 0.6458565036
C   C5        1.0  0.56400  0.43430  0.32150  1.0000 0.6458565036
C   C6        1.0  0.87030  0.43600  0.32150  1.0000 0.6458565036
C   C7        1.0  0.12570  0.56190  0.14610  1.0000 0.6551287214
C   C8        1.0  0.43810  0.56380  0.14610  1.0000 0.6551287214
C   C9        1.0  0.43620  0.87430  0.14610  1.0000 0.6551287214
C   C10       1.0  0.43810  0.87430  0.64610  1.0000 0.6551287214
C   C11       1.0  0.43620  0.56190  0.64610  1.0000 0.6551287214
C   C12       1.0  0.12570  0.56380  0.64610  1.0000 0.6551287214
C   C13       1.0  0.11370  0.67120  0.12430  1.0000 -0.2134277185
C   C14       1.0  0.32880  0.44250  0.12430  1.0000 -0.2134277185
C   C15       1.0  0.55750  0.88630  0.12430  1.0000 -0.2134277185
C   C16       1.0  0.32880  0.88630  0.62430  1.0000 -0.2134277185
C   C17       1.0  0.55750  0.67120  0.62430  1.0000 -0.2134277185
C   C18       1.0  0.11370  0.44250  0.62430  1.0000 -0.2134277185
C   C19       1.0  0.87650  0.33240  0.84360  1.0000 -0.3354542515
C   C20       1.0  0.66760  0.54410  0.84360  1.0000 -0.3354542515
C   C21       1.0  0.45590  0.12350  0.84360  1.0000 -0.3354542515
C   C22       1.0  0.66760  0.12350  0.34360  1.0000 -0.3354542515
C   C23       1.0  0.45590  0.33240  0.34360  1.0000 -0.3354542515
C   C24       1.0  0.87650  0.54410  0.34360  1.0000 -0.3354542515
C   C25       1.0  0.10230  0.74330  0.97600  1.0000 -0.2664967736
C   C26       1.0  0.25670  0.35900  0.97600  1.0000 -0.2664967736
C   C27       1.0  0.64100  0.89770  0.97600  1.0000 -0.2664967736
C   C28       1.0  0.25670  0.89770  0.47600  1.0000 -0.2664967736
C   C29       1.0  0.64100  0.74330  0.47600  1.0000 -0.2664967736
C   C30       1.0  0.10230  0.35900  0.47600  1.0000 -0.2664967736
C   C31       1.0  0.90440  0.25140  0.99870  1.0000 -0.2328934481
C   C32       1.0  0.74860  0.65300  0.99870  1.0000 -0.2328934481
C   C33       1.0  0.34700  0.09560  0.99870  1.0000 -0.2328934481
C   C34       1.0  0.74860  0.09560  0.49870  1.0000 -0.2328934481
C   C35       1.0  0.34700  0.25140  0.49870  1.0000 -0.2328934481
C   C36       1.0  0.90440  0.65300  0.49870  1.0000 -0.2328934481
C   C37       1.0  0.81280  0.27490  0.05550  1.0000 0.6111234466
C   C38       1.0  0.72510  0.53790  0.05550  1.0000 0.6111234466
C   C39       1.0  0.46210  0.18720  0.05550  1.0000 0.6111234466
C   C40       1.0  0.72510  0.18720  0.55550  1.0000 0.6111234466
C   C41       1.0  0.46210  0.27490  0.55550  1.0000 0.6111234466
C   C42       1.0  0.81280  0.53790  0.55550  1.0000 0.6111234466
C   C43       1.0  0.18520  0.73720  0.91370  1.0000 0.5930820743
C   C44       1.0  0.26280  0.44800  0.91370  1.0000 0.5930820743
C   C45       1.0  0.55200  0.81480  0.91370  1.0000 0.5930820743
C   C46       1.0  0.26280  0.81480  0.41370  1.0000 0.5930820743
C   C47       1.0  0.55200  0.73720  0.41370  1.0000 0.5930820743
C   C48       1.0  0.18520  0.44800  0.41370  1.0000 0.5930820743
N   N1        1.0  0.04720  0.65160  0.04580  1.0000 -0.2353532027
N   N2        1.0  0.34840  0.39560  0.04580  1.0000 -0.2353532027
N   N3        1.0  0.60440  0.95280  0.04580  1.0000 -0.2353532027
N   N4        1.0  0.34840  0.95280  0.54580  1.0000 -0.2353532027
N   N5        1.0  0.60440  0.65160  0.54580  1.0000 -0.2353532027
N   N6        1.0  0.04720  0.39560  0.54580  1.0000 -0.2353532027
N   N7        1.0  0.96070  0.34680  0.92880  1.0000 -0.2221249377
N   N8        1.0  0.65320  0.61390  0.92880  1.0000 -0.2221249377
N   N9        1.0  0.38610  0.03930  0.92880  1.0000 -0.2221249377
N   N10       1.0  0.65320  0.03930  0.42880  1.0000 -0.2221249377
N   N11       1.0  0.38610  0.34680  0.42880  1.0000 -0.2221249377
N   N12       1.0  0.96070  0.61390  0.42880  1.0000 -0.2221249377
O   O1        1.0  0.80940  0.36520  0.04500  1.0000 -0.6226282478
O   O2        1.0  0.63480  0.44420  0.04500  1.0000 -0.6226282478
O   O3        1.0  0.55580  0.19060  0.04500  1.0000 -0.6226282478
O   O4        1.0  0.63480  0.19060  0.54500  1.0000 -0.6226282478
O   O5        1.0  0.55580  0.36520  0.54500  1.0000 -0.6226282478
O   O6        1.0  0.80940  0.44420  0.54500  1.0000 -0.6226282478
O   O7        1.0  0.92390  0.52220  0.87640  1.0000 -0.518174704
O   O8        1.0  0.47780  0.40170  0.87640  1.0000 -0.518174704
O   O9        1.0  0.59830  0.07610  0.87640  1.0000 -0.518174704
O   O10       1.0  0.47780  0.07610  0.37640  1.0000 -0.518174704
O   O11       1.0  0.59830  0.52220  0.37640  1.0000 -0.518174704
O   O12       1.0  0.92390  0.40170  0.37640  1.0000 -0.518174704
O   O13       1.0  0.18870  0.64460  0.92540  1.0000 -0.6567255994
O   O14       1.0  0.35540  0.54410  0.92540  1.0000 -0.6567255994
O   O15       1.0  0.45590  0.81130  0.92540  1.0000 -0.6567255994
O   O16       1.0  0.35540  0.81130  0.42540  1.0000 -0.6567255994
O   O17       1.0  0.45590  0.64460  0.42540  1.0000 -0.6546590885
O   O18       1.0  0.18870  0.54410  0.42540  1.0000 -0.6546590885
O   O19       1.0  0.07180  0.47420  0.09390  1.0000 -0.5144903024
O   O20       1.0  0.52580  0.59760  0.09390  1.0000 -0.5144903024
O   O21       1.0  0.40240  0.92820  0.09390  1.0000 -0.5144903024
O   O22       1.0  0.52580  0.92820  0.59390  1.0000 -0.5144903024
O   O23       1.0  0.40240  0.47420  0.59390  1.0000 -0.5144903024
O   O24       1.0  0.07180  0.59760  0.59390  1.0000 -0.5144903024
O   O25       1.0  0.74760  0.19380  0.11570  1.0000 -0.6567255994
O   O26       1.0  0.80620  0.55380  0.11570  1.0000 -0.6567255994
O   O27       1.0  0.44620  0.25240  0.11570  1.0000 -0.6567255994
O   O28       1.0  0.80620  0.25240  0.61570  1.0000 -0.6567255994
O   O29       1.0  0.44620  0.19380  0.61570  1.0000 -0.6567255994
O   O30       1.0  0.74760  0.55380  0.61570  1.0000 -0.6567255994
O   O31       1.0  0.24110  0.80910  0.85890  1.0000 -0.518174704
O   O32       1.0  0.19090  0.43200  0.85890  1.0000 -0.518174704
O   O33       1.0  0.56800  0.75890  0.85890  1.0000 -0.518174704
O   O34       1.0  0.19090  0.75890  0.35890  1.0000 -0.518174704
O   O35       1.0  0.56800  0.80910  0.35890  1.0000 -0.518174704
O   O36       1.0  0.24110  0.43200  0.35890  1.0000 -0.518174704
O   O37       1.0  0.18520  0.56210  0.21560  1.0000 -0.6764988959
O   O38       1.0  0.43790  0.62310  0.21560  1.0000 -0.6764988959
O   O39       1.0  0.37690  0.81480  0.21560  1.0000 -0.6764988959
O   O40       1.0  0.43790  0.81480  0.71560  1.0000 -0.6764988959
O   O41       1.0  0.37690  0.56210  0.71560  1.0000 -0.6764988959
O   O42       1.0  0.18520  0.62310  0.71560  1.0000 -0.6764988959
O   O43       1.0  0.81470  0.43060  0.75460  1.0000 -0.6042066376
O   O44       1.0  0.56940  0.38410  0.75460  1.0000 -0.6042066376
O   O45       1.0  0.61590  0.18530  0.75460  1.0000 -0.6042066376
O   O46       1.0  0.56940  0.18530  0.25460  1.0000 -0.6042066376
O   O47       1.0  0.61590  0.43060  0.25460  1.0000 -0.6042066376
O   O48       1.0  0.81470  0.38410  0.25460  1.0000 -0.6042066376
