# DDEC6 charges by PACMAN v1.1 (https://github.com/mtap-research/PACMAN-charge/)
data_2003[V][fsc]3[FSR]1
_chemical_formula_sum              "V4 H4 C16 O20"
_cell_length_a       9.959
_cell_length_b       9.959
_cell_length_c       7.113
_cell_angle_alpha    90
_cell_angle_beta     90
_cell_angle_gamma    90

_symmetry_space_group_name_H-M    "P 1"
_symmetry_Int_Tables_number       1

loop_
  _symmetry_equiv_pos_as_xyz
  'x, y, z'

loop_
  _atom_site_type_symbol
  _atom_site_label
  _atom_site_symmetry_multiplicity
  _atom_site_fract_x
  _atom_site_fract_y
  _atom_site_fract_z
  _atom_site_occupancy
  _atom_site_charge
V   V1        1.0  0.10910  0.39090  0.50000  1.0000 1.5452723354
V   V2        1.0  0.39090  0.89090  0.50000  1.0000 1.5452723354
V   V3        1.0  0.89090  0.60910  0.50000  1.0000 1.544566974
V   V4        1.0  0.60910  0.10910  0.50000  1.0000 1.5452723354
H   H1        1.0  0.14370  0.64370  0.50000  1.0000 0.4394992441
H   H2        1.0  0.64370  0.85630  0.50000  1.0000 0.4394992441
H   H3        1.0  0.35630  0.14370  0.50000  1.0000 0.4394992441
H   H4        1.0  0.85630  0.35630  0.50000  1.0000 0.4394992441
C   C1        1.0  0.58560  0.55780  0.50000  1.0000 0.1915101111
C   C2        1.0  0.55780  0.41440  0.50000  1.0000 0.1915101111
C   C3        1.0  0.91440  0.05780  0.50000  1.0000 0.1915101111
C   C4        1.0  0.41440  0.44220  0.50000  1.0000 0.1915101111
C   C5        1.0  0.05780  0.08560  0.50000  1.0000 0.1915101111
C   C6        1.0  0.44220  0.58560  0.50000  1.0000 0.1915101111
C   C7        1.0  0.08560  0.94220  0.50000  1.0000 0.1915101111
C   C8        1.0  0.94220  0.91440  0.50000  1.0000 0.1915101111
C   C9        1.0  0.05160  0.44840  0.89900  1.0000 0.1915101111
C   C10       1.0  0.44840  0.94840  0.89900  1.0000 0.1915101111
C   C11       1.0  0.44840  0.94840  0.10100  1.0000 0.1915101111
C   C12       1.0  0.94840  0.55160  0.89900  1.0000 0.1915101111
C   C13       1.0  0.94840  0.55160  0.10100  1.0000 0.1915101111
C   C14       1.0  0.55160  0.05160  0.89900  1.0000 0.1915101111
C   C15       1.0  0.55160  0.05160  0.10100  1.0000 0.1915101111
C   C16       1.0  0.05160  0.44840  0.10100  1.0000 0.1915101111
O   O1        1.0  0.31210  0.37010  0.50000  1.0000 -0.4421231598
O   O2        1.0  0.37010  0.68790  0.50000  1.0000 -0.4421231598
O   O3        1.0  0.18790  0.87010  0.50000  1.0000 -0.4421231598
O   O4        1.0  0.68790  0.62990  0.50000  1.0000 -0.4421231598
O   O5        1.0  0.87010  0.81210  0.50000  1.0000 -0.4421231598
O   O6        1.0  0.62990  0.31210  0.50000  1.0000 -0.4421231598
O   O7        1.0  0.81210  0.12990  0.50000  1.0000 -0.4421231598
O   O8        1.0  0.12990  0.18790  0.50000  1.0000 -0.4421231598
O   O9        1.0  0.11750  0.38250  0.77970  1.0000 -0.4532333985
O   O10       1.0  0.38250  0.88250  0.77970  1.0000 -0.4532333985
O   O11       1.0  0.38250  0.88250  0.22030  1.0000 -0.4532333985
O   O12       1.0  0.88250  0.61750  0.77970  1.0000 -0.4532333985
O   O13       1.0  0.88250  0.61750  0.22030  1.0000 -0.4532333985
O   O14       1.0  0.61750  0.11750  0.77970  1.0000 -0.4532333985
O   O15       1.0  0.61750  0.11750  0.22030  1.0000 -0.4532333985
O   O16       1.0  0.11750  0.38250  0.22030  1.0000 -0.4532333985
O   O17       1.0  0.91380  0.41380  0.50000  1.0000 -0.959922567
O   O18       1.0  0.41380  0.08620  0.50000  1.0000 -0.959922567
O   O19       1.0  0.58620  0.91380  0.50000  1.0000 -0.959922567
O   O20       1.0  0.08620  0.58620  0.50000  1.0000 -0.959922567
