# DDEC6 charges by PACMAN v1.1 (https://github.com/mtap-research/PACMAN-charge/)
data_2003[Cu][pcu]3[FSR]1
_chemical_formula_sum              "Cu2 H48 C52 N14"
_cell_length_a       13.4125
_cell_length_b       13.4125
_cell_length_c       9.205
_cell_angle_alpha    81.611
_cell_angle_beta     98.389
_cell_angle_gamma    84.9267

_symmetry_space_group_name_H-M    "P 1"
_symmetry_Int_Tables_number       1

loop_
  _symmetry_equiv_pos_as_xyz
  'x, y, z'

loop_
  _atom_site_type_symbol
  _atom_site_label
  _atom_site_symmetry_multiplicity
  _atom_site_fract_x
  _atom_site_fract_y
  _atom_site_fract_z
  _atom_site_occupancy
  _atom_site_charge
Cu  Cu1       1.0  0.82394  0.82394  0.75000  1.0000 0.6432915895
Cu  Cu2       1.0  0.17606  0.17606  0.25000  1.0000 0.6432915895
H   H1        1.0  0.69830  0.00030  0.83080  1.0000 0.1007214306
H   H2        1.0  0.00030  0.69830  0.66920  1.0000 0.1007214306
H   H3        1.0  0.68150  0.17430  0.79260  1.0000 0.1281087628
H   H4        1.0  0.17430  0.68150  0.70740  1.0000 0.1281087628
H   H5        1.0  0.91770  0.16890  0.57580  1.0000 0.1281087628
H   H6        1.0  0.16890  0.91770  0.92420  1.0000 0.1281087628
H   H7        1.0  0.91900  0.99840  0.59760  1.0000 0.1007214306
H   H8        1.0  0.99840  0.91900  0.90240  1.0000 0.1007214306
H   H9        1.0  0.88610  0.63490  0.98150  1.0000 0.1106551491
H   H10       1.0  0.63490  0.88610  0.51850  1.0000 0.1106551491
H   H11       1.0  0.89210  0.46310  0.00280  1.0000 0.1281087628
H   H12       1.0  0.46310  0.89210  0.49720  1.0000 0.1281087628
H   H13       1.0  0.76120  0.50020  0.57540  1.0000 0.1281087628
H   H14       1.0  0.50020  0.76120  0.92460  1.0000 0.1281087628
H   H15       1.0  0.76300  0.67180  0.56640  1.0000 0.1007214306
H   H16       1.0  0.67180  0.76300  0.93360  1.0000 0.1007214306
H   H17       1.0  0.80110  0.31990  0.88360  1.0000 0.1106551491
H   H18       1.0  0.31990  0.80110  0.61640  1.0000 0.1106551491
H   H19       1.0  0.90750  0.31910  0.83270  1.0000 0.1231034814
H   H20       1.0  0.31910  0.90750  0.66730  1.0000 0.1231034814
H   H21       1.0  0.83150  0.33150  0.58480  1.0000 0.1106551491
H   H22       1.0  0.33150  0.83150  0.91520  1.0000 0.1106551491
H   H23       1.0  0.72380  0.33660  0.63250  1.0000 0.1106551491
H   H24       1.0  0.33660  0.72380  0.86750  1.0000 0.1106551491
H   H25       1.0  0.99970  0.30170  0.33080  1.0000 0.1007214306
H   H26       1.0  0.30170  0.99970  0.16920  1.0000 0.1007214306
H   H27       1.0  0.82570  0.31850  0.29260  1.0000 0.1281087628
H   H28       1.0  0.31850  0.82570  0.20740  1.0000 0.1281087628
H   H29       1.0  0.83110  0.08230  0.07580  1.0000 0.1281087628
H   H30       1.0  0.08230  0.83110  0.42420  1.0000 0.1281087628
H   H31       1.0  0.00160  0.08100  0.09760  1.0000 0.1007214306
H   H32       1.0  0.08100  0.00160  0.40240  1.0000 0.1007214306
H   H33       1.0  0.36510  0.11390  0.48150  1.0000 0.1106551491
H   H34       1.0  0.11390  0.36510  0.01850  1.0000 0.1106551491
H   H35       1.0  0.53690  0.10790  0.50280  1.0000 0.1281087628
H   H36       1.0  0.10790  0.53690  0.99720  1.0000 0.1281087628
H   H37       1.0  0.49980  0.23880  0.07540  1.0000 0.1281087628
H   H38       1.0  0.23880  0.49980  0.42460  1.0000 0.1281087628
H   H39       1.0  0.32820  0.23700  0.06640  1.0000 0.1007214306
H   H40       1.0  0.23700  0.32820  0.43360  1.0000 0.1007214306
H   H41       1.0  0.68010  0.19890  0.38360  1.0000 0.1106551491
H   H42       1.0  0.19890  0.68010  0.11640  1.0000 0.1106551491
H   H43       1.0  0.68090  0.09250  0.33270  1.0000 0.1231034814
H   H44       1.0  0.09250  0.68090  0.16730  1.0000 0.1231034814
H   H45       1.0  0.66850  0.16850  0.08480  1.0000 0.1106551491
H   H46       1.0  0.16850  0.66850  0.41520  1.0000 0.1106551491
H   H47       1.0  0.66340  0.27620  0.13250  1.0000 0.1106551491
H   H48       1.0  0.27620  0.66340  0.36750  1.0000 0.1106551491
C   C1        1.0  0.74170  0.03430  0.77630  1.0000 0.05148002
C   C2        1.0  0.03430  0.74170  0.72370  1.0000 0.05148002
C   C3        1.0  0.73330  0.13910  0.75690  1.0000 -0.2223552776
C   C4        1.0  0.13910  0.73330  0.74310  1.0000 -0.2223552776
C   C5        1.0  0.80020  0.19220  0.68550  1.0000 0.1516079349
C   C6        1.0  0.19220  0.80020  0.81450  1.0000 0.1516079349
C   C7        1.0  0.87120  0.13660  0.62620  1.0000 -0.2091137091
C   C8        1.0  0.13660  0.87120  0.87380  1.0000 -0.2091137091
C   C9        1.0  0.87240  0.03380  0.64240  1.0000 0.0607778764
C   C10       1.0  0.03380  0.87240  0.85760  1.0000 0.0607778764
C   C11       1.0  0.86230  0.60730  0.89780  1.0000 0.0651173411
C   C12       1.0  0.60730  0.86230  0.60220  1.0000 0.0607778764
C   C13       1.0  0.86550  0.50350  0.91210  1.0000 -0.2350865038
C   C14       1.0  0.50350  0.86550  0.58790  1.0000 -0.2350865038
C   C15       1.0  0.82850  0.45950  0.78980  1.0000 0.1582775979
C   C16       1.0  0.45950  0.82850  0.71020  1.0000 0.1582775979
C   C17       1.0  0.78870  0.52550  0.65950  1.0000 -0.2091137091
C   C18       1.0  0.52550  0.78870  0.84050  1.0000 -0.2091137091
C   C19       1.0  0.78970  0.62890  0.65500  1.0000 0.0607778764
C   C20       1.0  0.62890  0.78970  0.84500  1.0000 0.0607778764
C   C21       1.0  0.83670  0.34610  0.80430  1.0000 -0.2508409837
C   C22       1.0  0.34610  0.83670  0.69570  1.0000 -0.2508409837
C   C23       1.0  0.79400  0.30820  0.66340  1.0000 -0.2508409837
C   C24       1.0  0.30820  0.79400  0.83660  1.0000 -0.2508409837
C   C25       1.0  0.85190  0.84690  0.12600  1.0000 0.4252872535
C   C26       1.0  0.84690  0.85190  0.37400  1.0000 0.4252872535
C   C27       1.0  0.96570  0.25830  0.27630  1.0000 0.05148002
C   C28       1.0  0.25830  0.96570  0.22370  1.0000 0.05148002
C   C29       1.0  0.86090  0.26670  0.25690  1.0000 -0.2223552776
C   C30       1.0  0.26670  0.86090  0.24310  1.0000 -0.2223552776
C   C31       1.0  0.80780  0.19980  0.18550  1.0000 0.1516079349
C   C32       1.0  0.19980  0.80780  0.31450  1.0000 0.1516079349
C   C33       1.0  0.86340  0.12880  0.12620  1.0000 -0.2091137091
C   C34       1.0  0.12880  0.86340  0.37380  1.0000 -0.2091137091
C   C35       1.0  0.96620  0.12760  0.14240  1.0000 0.0607778764
C   C36       1.0  0.12760  0.96620  0.35760  1.0000 0.0607778764
C   C37       1.0  0.39270  0.13770  0.39780  1.0000 0.0607778764
C   C38       1.0  0.13770  0.39270  0.10220  1.0000 0.0607778764
C   C39       1.0  0.49650  0.13450  0.41210  1.0000 -0.2344431611
C   C40       1.0  0.13450  0.49650  0.08790  1.0000 -0.2350865038
C   C41       1.0  0.54050  0.17150  0.28980  1.0000 0.1582775979
C   C42       1.0  0.17150  0.54050  0.21020  1.0000 0.1582775979
C   C43       1.0  0.47450  0.21130  0.15950  1.0000 -0.2091137091
C   C44       1.0  0.21130  0.47450  0.34050  1.0000 -0.2091137091
C   C45       1.0  0.37110  0.21030  0.15500  1.0000 0.0607778764
C   C46       1.0  0.21030  0.37110  0.34500  1.0000 0.0607778764
C   C47       1.0  0.65390  0.16330  0.30430  1.0000 -0.2508409837
C   C48       1.0  0.16330  0.65390  0.19570  1.0000 -0.2508409837
C   C49       1.0  0.69180  0.20600  0.16340  1.0000 -0.2508409837
C   C50       1.0  0.20600  0.69180  0.33660  1.0000 -0.2508409837
C   C51       1.0  0.15310  0.14810  0.62600  1.0000 0.4252872535
C   C52       1.0  0.14810  0.15310  0.87400  1.0000 0.4243651299
N   N1        1.0  0.81130  0.97970  0.71840  1.0000 -0.2508409837
N   N2        1.0  0.97970  0.81130  0.78160  1.0000 -0.2508409837
N   N3        1.0  0.82760  0.67040  0.77270  1.0000 -0.2223552776
N   N4        1.0  0.67040  0.82760  0.72730  1.0000 -0.2223552776
N   N5        1.0  0.87950  0.87950  0.25000  1.0000 -0.4723371448
N   N6        1.0  0.84070  0.83010  0.01160  1.0000 -0.5843915077
N   N7        1.0  0.83010  0.84070  0.48840  1.0000 -0.5843915077
N   N8        1.0  0.02030  0.18870  0.21840  1.0000 -0.2508409837
N   N9        1.0  0.18870  0.02030  0.28160  1.0000 -0.2508409837
N   N10       1.0  0.32960  0.17240  0.27270  1.0000 -0.2223552776
N   N11       1.0  0.17240  0.32960  0.22730  1.0000 -0.2223552776
N   N12       1.0  0.12050  0.12050  0.75000  1.0000 -0.4723371448
N   N13       1.0  0.16990  0.15930  0.51160  1.0000 -0.5861181351
N   N14       1.0  0.15930  0.16990  0.98840  1.0000 -0.5861181351
