# DDEC6 charges by PACMAN v1.1 (https://github.com/mtap-research/PACMAN-charge/)
data_2003[Cu][kdd]3[FSR]2
_chemical_formula_sum              "Cu2 H16 C24 N4 O8"
_cell_length_a       12.8251
_cell_length_b       12.8251
_cell_length_c       11.052
_cell_angle_alpha    88.3161
_cell_angle_beta     91.6839
_cell_angle_gamma    22.5086

_symmetry_space_group_name_H-M    "P 1"
_symmetry_Int_Tables_number       1

loop_
  _symmetry_equiv_pos_as_xyz
  'x, y, z'

loop_
  _atom_site_type_symbol
  _atom_site_label
  _atom_site_symmetry_multiplicity
  _atom_site_fract_x
  _atom_site_fract_y
  _atom_site_fract_z
  _atom_site_occupancy
  _atom_site_charge
Cu  Cu1       1.0  0.59925  0.17400  0.69547  1.0000 0.7857225539
Cu  Cu2       1.0  0.82600  0.40075  0.19547  1.0000 0.7857225539
H   H1        1.0  0.72240  0.40541  0.48960  1.0000 0.1374466346
H   H2        1.0  0.59459  0.27760  0.98960  1.0000 0.1374466346
H   H3        1.0  0.82930  0.16951  0.62540  1.0000 0.1123023457
H   H4        1.0  0.83049  0.17070  0.12540  1.0000 0.1123023457
H   H5        1.0  0.14040  0.66601  0.50550  1.0000 0.1231773124
H   H6        1.0  0.33399  0.85960  0.00550  1.0000 0.1231773124
H   H7        1.0  0.00610  0.92591  0.37090  1.0000 0.1374466346
H   H8        1.0  0.07409  0.99390  0.87090  1.0000 0.1374466346
H   H9        1.0  0.52690  0.98571  0.03990  1.0000 0.1374466346
H   H10       1.0  0.01429  0.47310  0.53990  1.0000 0.1374466346
H   H11       1.0  0.45850  0.20351  0.93060  1.0000 0.1123023457
H   H12       1.0  0.79649  0.54150  0.43060  1.0000 0.1123023457
H   H13       1.0  0.93550  0.67471  0.69760  1.0000 0.1123023457
H   H14       1.0  0.32529  0.06450  0.19760  1.0000 0.1123023457
H   H15       1.0  0.01090  0.44531  0.79860  1.0000 0.1374466346
H   H16       1.0  0.55469  0.98910  0.29860  1.0000 0.1374466346
C   C1        1.0  0.26962  0.86183  0.32720  1.0000 0.5636886956
C   C2        1.0  0.13817  0.73038  0.82720  1.0000 0.5636886956
C   C3        1.0  0.34972  0.69593  0.41300  1.0000 0.027066134
C   C4        1.0  0.30407  0.65028  0.91300  1.0000 0.027066134
C   C5        1.0  0.59992  0.46353  0.49160  1.0000 -0.1547136864
C   C6        1.0  0.53647  0.40008  0.99160  1.0000 -0.1547136864
C   C7        1.0  0.66405  0.32086  0.57210  1.0000 0.0764970818
C   C8        1.0  0.67914  0.33595  0.07210  1.0000 0.0764970818
C   C9        1.0  0.25775  0.61416  0.50220  1.0000 0.0987730922
C   C10       1.0  0.38584  0.74225  0.00220  1.0000 0.0987730922
C   C11       1.0  0.17610  0.77091  0.42060  1.0000 -0.1596249862
C   C12       1.0  0.22909  0.82390  0.92060  1.0000 -0.1596249862
C   C13       1.0  0.82827  0.53748  0.00120  1.0000 0.535970986
C   C14       1.0  0.46252  0.17173  0.50120  1.0000 0.535970986
C   C15       1.0  0.77478  0.69099  0.93190  1.0000 0.0445968883
C   C16       1.0  0.30901  0.22522  0.43190  1.0000 0.0445968883
C   C17       1.0  0.61008  0.92009  0.97030  1.0000 -0.1547136864
C   C18       1.0  0.07991  0.38992  0.47030  1.0000 -0.1547136864
C   C19       1.0  0.57123  0.04904  0.90430  1.0000 0.0764970818
C   C20       1.0  0.95096  0.42877  0.40430  1.0000 0.0764970818
C   C21       1.0  0.85151  0.73812  0.76640  1.0000 0.0910357648
C   C22       1.0  0.26188  0.14849  0.26640  1.0000 0.0910357648
C   C23       1.0  0.89880  0.59821  0.82700  1.0000 -0.1596249862
C   C24       1.0  0.40179  0.10120  0.32700  1.0000 -0.1596249862
N   N1        1.0  0.49917  0.38998  0.57730  1.0000 -0.2271996437
N   N2        1.0  0.61002  0.50083  0.07730  1.0000 -0.2271996437
N   N3        1.0  0.68805  0.96306  0.80360  1.0000 -0.2193178086
N   N4        1.0  0.03694  0.31195  0.30360  1.0000 -0.2193178086
O   O1        1.0  0.01167  0.11028  0.29010  1.0000 -0.556065142
O   O2        1.0  0.88972  0.98833  0.79010  1.0000 -0.556065142
O   O3        1.0  0.45333  0.75174  0.29880  1.0000 -0.5806445478
O   O4        1.0  0.24826  0.54667  0.79880  1.0000 -0.5806445478
O   O5        1.0  0.69672  0.64493  0.09050  1.0000 -0.5313473342
O   O6        1.0  0.35507  0.30328  0.59050  1.0000 -0.5313473342
O   O7        1.0  0.00024  0.31745  0.96950  1.0000 -0.5664673446
O   O8        1.0  0.68255  0.99976  0.46950  1.0000 -0.5664673446
