# DDEC6 charges by PACMAN v1.1 (https://github.com/mtap-research/PACMAN-charge/)
data_2003[Er][nan]3[FSR]1
_chemical_formula_sum              "Er4 H6 C30 O36"
_cell_length_a       10.4005
_cell_length_b       10.6486
_cell_length_c       13.6321
_cell_angle_alpha    105.307
_cell_angle_beta     93.835
_cell_angle_gamma    108.935

_symmetry_space_group_name_H-M    "P 1"
_symmetry_Int_Tables_number       1

loop_
  _symmetry_equiv_pos_as_xyz
  'x, y, z'

loop_
  _atom_site_type_symbol
  _atom_site_label
  _atom_site_symmetry_multiplicity
  _atom_site_fract_x
  _atom_site_fract_y
  _atom_site_fract_z
  _atom_site_occupancy
  _atom_site_charge
Er  Er1       1.0  0.52361  0.58006  0.18808  1.0000 2.0973546661
Er  Er2       1.0  0.47639  0.41994  0.81192  1.0000 2.0973546661
Er  Er3       1.0  0.98137  0.94972  0.81342  1.0000 2.0272556699
Er  Er4       1.0  0.01863  0.05028  0.18658  1.0000 2.0272556699
H   H1        1.0  0.31290  0.82310  0.88970  1.0000 0.1495947397
H   H2        1.0  0.68710  0.17690  0.11030  1.0000 0.1495947397
H   H3        1.0  0.20190  0.68540  0.08160  1.0000 0.1495947397
H   H4        1.0  0.79810  0.31460  0.91840  1.0000 0.1495947397
H   H5        1.0  0.90040  0.76240  0.42880  1.0000 0.1400200135
H   H6        1.0  0.09960  0.23760  0.57120  1.0000 0.1400200135
C   C1        1.0  0.47980  0.10880  0.07270  1.0000 0.0010534308
C   C2        1.0  0.52020  0.89120  0.92730  1.0000 -8.82617e-05
C   C3        1.0  0.36680  0.00120  0.00560  1.0000 -0.0382548843
C   C4        1.0  0.63320  0.99880  0.99440  1.0000 -0.0382548843
C   C5        1.0  0.38810  0.89450  0.93420  1.0000 -0.0893780309
C   C6        1.0  0.61190  0.10550  0.06580  1.0000 -0.0893780309
C   C7        1.0  0.46940  0.23400  0.15080  1.0000 0.6127920307
C   C8        1.0  0.53060  0.76600  0.84920  1.0000 0.6127920307
C   C9        1.0  0.22310  0.99960  0.00960  1.0000 0.6643912948
C   C10       1.0  0.77690  0.00040  0.99040  1.0000 0.6643912948
C   C11       1.0  0.00570  0.37280  0.94180  1.0000 -0.0131535905
C   C12       1.0  0.99430  0.62720  0.05820  1.0000 -0.0131535905
C   C13       1.0  0.12780  0.48670  0.99110  1.0000 -0.0233399191
C   C14       1.0  0.87220  0.51330  0.00890  1.0000 -0.0233399191
C   C15       1.0  0.12090  0.61110  0.04870  1.0000 -0.1017023467
C   C16       1.0  0.87910  0.38890  0.95130  1.0000 -0.1017023467
C   C17       1.0  0.00970  0.23160  0.89040  1.0000 0.5684003687
C   C18       1.0  0.99030  0.76840  0.10960  1.0000 0.5684003687
C   C19       1.0  0.26710  0.47830  0.97380  1.0000 0.6682341255
C   C20       1.0  0.73290  0.52170  0.02620  1.0000 0.6682341255
C   C21       1.0  0.90620  0.94340  0.40750  1.0000 -0.0382548843
C   C22       1.0  0.09380  0.05660  0.59250  1.0000 -0.0382548843
C   C23       1.0  0.94100  0.85850  0.45760  1.0000 -0.0785660091
C   C24       1.0  0.05900  0.14150  0.54240  1.0000 -0.0785660091
C   C25       1.0  0.96550  0.08870  0.45040  1.0000 -0.0466516198
C   C26       1.0  0.03450  0.91130  0.54960  1.0000 -0.0466516198
C   C27       1.0  0.80220  0.87390  0.31040  1.0000 0.652944193
C   C28       1.0  0.19780  0.12610  0.68960  1.0000 0.652944193
C   C29       1.0  0.93380  0.19230  0.40520  1.0000 0.6171261824
C   C30       1.0  0.06620  0.80770  0.59480  1.0000 0.6171261824
O   O1        1.0  0.58680  0.74820  0.09930  1.0000 -0.0785660091
O   O2        1.0  0.41320  0.25180  0.90070  1.0000 -0.0893780309
O   O3        1.0  0.89470  0.72440  0.84160  1.0000 0.0331356663
O   O4        1.0  0.10530  0.27560  0.15840  1.0000 0.0385739214
O   O5        1.0  0.77820  0.85950  0.69220  1.0000 -0.375223025
O   O6        1.0  0.22180  0.14050  0.30780  1.0000 -0.3663309955
O   O7        1.0  0.61930  0.50770  0.31700  1.0000 -0.3289741122
O   O8        1.0  0.38070  0.49230  0.68300  1.0000 -0.3419355396
O   O9        1.0  0.34320  0.48400  0.27230  1.0000 -0.2715838396
O   O10       1.0  0.65680  0.51600  0.72770  1.0000 -0.2543966912
O   O11       1.0  0.42710  0.74810  0.26220  1.0000 -0.4114726775
O   O12       1.0  0.57290  0.25190  0.73780  1.0000 -0.4114726775
O   O13       1.0  0.13900  0.93840  0.92640  1.0000 -0.613734647
O   O14       1.0  0.86100  0.06160  0.07360  1.0000 -0.613734647
O   O15       1.0  0.19530  0.05550  0.09360  1.0000 -0.5591413024
O   O16       1.0  0.80470  0.94450  0.90640  1.0000 -0.5591413024
O   O17       1.0  0.46100  0.33090  0.11700  1.0000 -0.5790957057
O   O18       1.0  0.53900  0.66910  0.88300  1.0000 -0.5790957057
O   O19       1.0  0.48050  0.23670  0.24320  1.0000 -0.3419355396
O   O20       1.0  0.51950  0.76330  0.75680  1.0000 -0.3419355396
O   O21       1.0  0.35600  0.50990  0.05130  1.0000 -0.5894035541
O   O22       1.0  0.64400  0.49010  0.94870  1.0000 -0.5894035541
O   O23       1.0  0.28560  0.44550  0.88280  1.0000 -0.5894035541
O   O24       1.0  0.71440  0.55450  0.11720  1.0000 -0.5894035541
O   O25       1.0  0.07790  0.18320  0.94040  1.0000 -0.5265341841
O   O26       1.0  0.92210  0.81680  0.05960  1.0000 -0.5233748399
O   O27       1.0  0.93890  0.15910  0.80290  1.0000 -0.5531051599
O   O28       1.0  0.06110  0.84090  0.19710  1.0000 -0.5531051599
O   O29       1.0  0.82010  0.92370  0.23640  1.0000 -0.5730058991
O   O30       1.0  0.17990  0.07630  0.76360  1.0000 -0.5730058991
O   O31       1.0  0.70200  0.76740  0.30770  1.0000 -0.5591413024
O   O32       1.0  0.29800  0.23260  0.69230  1.0000 -0.5531051599
O   O33       1.0  0.96760  0.20110  0.32000  1.0000 -0.5894035541
O   O34       1.0  0.03240  0.79890  0.68000  1.0000 -0.5894035541
O   O35       1.0  0.88340  0.26990  0.46070  1.0000 -0.4207706594
O   O36       1.0  0.11660  0.73010  0.53930  1.0000 -0.4207706594
