# DDEC6 charges by PACMAN v1.1 (https://github.com/mtap-research/PACMAN-charge/)
data_2003[GdZn][stp]3[FSR]1
_chemical_formula_sum              "Gd4 Zn6 H72 C48 O72"
_cell_length_a       14.5104
_cell_length_b       14.5104
_cell_length_c       15.7725
_cell_angle_alpha    90
_cell_angle_beta     90
_cell_angle_gamma    120

_symmetry_space_group_name_H-M    "P 1"
_symmetry_Int_Tables_number       1

loop_
  _symmetry_equiv_pos_as_xyz
  'x, y, z'

loop_
  _atom_site_type_symbol
  _atom_site_label
  _atom_site_symmetry_multiplicity
  _atom_site_fract_x
  _atom_site_fract_y
  _atom_site_fract_z
  _atom_site_occupancy
  _atom_site_charge
Gd  Gd1       1.0  0.66667  0.33333  0.25000  1.0000 1.8647350448
Gd  Gd2       1.0  0.33333  0.66667  0.25000  1.0000 1.8647350448
Gd  Gd3       1.0  0.33333  0.66667  0.75000  1.0000 1.8647350448
Gd  Gd4       1.0  0.66667  0.33333  0.75000  1.0000 1.8647350448
Zn  Zn1       1.0  0.00000  0.50000  0.50000  1.0000 0.9528681415
Zn  Zn2       1.0  0.50000  0.50000  0.50000  1.0000 0.9528681415
Zn  Zn3       1.0  0.50000  0.00000  0.50000  1.0000 0.9528681415
Zn  Zn4       1.0  0.50000  0.00000  0.00000  1.0000 0.9528681415
Zn  Zn5       1.0  0.50000  0.50000  0.00000  1.0000 0.9528681415
Zn  Zn6       1.0  0.00000  0.50000  0.00000  1.0000 0.9528681415
H   H1        1.0  0.83240  0.63500  0.33980  1.0000 0.1446832198
H   H2        1.0  0.36500  0.19740  0.33980  1.0000 0.1446832198
H   H3        1.0  0.80260  0.16760  0.33980  1.0000 0.1446832198
H   H4        1.0  0.63500  0.80260  0.33980  1.0000 0.1446832198
H   H5        1.0  0.19740  0.83240  0.33980  1.0000 0.1446832198
H   H6        1.0  0.63500  0.83240  0.16020  1.0000 0.1446832198
H   H7        1.0  0.19740  0.36500  0.16020  1.0000 0.1446832198
H   H8        1.0  0.16760  0.80260  0.16020  1.0000 0.1446832198
H   H9        1.0  0.36500  0.16760  0.16020  1.0000 0.1446832198
H   H10       1.0  0.80260  0.63500  0.16020  1.0000 0.1446832198
H   H11       1.0  0.83240  0.19740  0.16020  1.0000 0.1446832198
H   H12       1.0  0.16760  0.36500  0.33980  1.0000 0.1446832198
H   H13       1.0  0.16760  0.36500  0.66020  1.0000 0.1446832198
H   H14       1.0  0.63500  0.80260  0.66020  1.0000 0.1446832198
H   H15       1.0  0.19740  0.83240  0.66020  1.0000 0.1446832198
H   H16       1.0  0.36500  0.19740  0.66020  1.0000 0.1446832198
H   H17       1.0  0.80260  0.16760  0.66020  1.0000 0.1446832198
H   H18       1.0  0.36500  0.16760  0.83980  1.0000 0.1446832198
H   H19       1.0  0.80260  0.63500  0.83980  1.0000 0.1446832198
H   H20       1.0  0.83240  0.19740  0.83980  1.0000 0.1446832198
H   H21       1.0  0.63500  0.83240  0.83980  1.0000 0.1446832198
H   H22       1.0  0.19740  0.36500  0.83980  1.0000 0.1446832198
H   H23       1.0  0.16760  0.80260  0.83980  1.0000 0.1446832198
H   H24       1.0  0.83240  0.63500  0.66020  1.0000 0.1446832198
H   H25       1.0  0.91280  0.63580  0.27260  1.0000 0.1268719481
H   H26       1.0  0.36420  0.27700  0.27260  1.0000 0.1268719481
H   H27       1.0  0.72300  0.08720  0.27260  1.0000 0.1268719481
H   H28       1.0  0.63580  0.72300  0.27260  1.0000 0.1268719481
H   H29       1.0  0.27700  0.91280  0.27260  1.0000 0.1268719481
H   H30       1.0  0.63580  0.91280  0.22740  1.0000 0.1268719481
H   H31       1.0  0.27700  0.36420  0.22740  1.0000 0.1268719481
H   H32       1.0  0.08720  0.72300  0.22740  1.0000 0.1268719481
H   H33       1.0  0.36420  0.08720  0.22740  1.0000 0.1268719481
H   H34       1.0  0.72300  0.63580  0.22740  1.0000 0.1268719481
H   H35       1.0  0.91280  0.27700  0.22740  1.0000 0.1268719481
H   H36       1.0  0.08720  0.36420  0.27260  1.0000 0.1268719481
H   H37       1.0  0.08720  0.36420  0.72740  1.0000 0.1268719481
H   H38       1.0  0.63580  0.72300  0.72740  1.0000 0.1268719481
H   H39       1.0  0.27700  0.91280  0.72740  1.0000 0.1268719481
H   H40       1.0  0.36420  0.27700  0.72740  1.0000 0.1268719481
H   H41       1.0  0.72300  0.08720  0.72740  1.0000 0.1268719481
H   H42       1.0  0.36420  0.08720  0.77260  1.0000 0.1268719481
H   H43       1.0  0.72300  0.63580  0.77260  1.0000 0.1268719481
H   H44       1.0  0.91280  0.27700  0.77260  1.0000 0.1268719481
H   H45       1.0  0.63580  0.91280  0.77260  1.0000 0.1268719481
H   H46       1.0  0.27700  0.36420  0.77260  1.0000 0.1268719481
H   H47       1.0  0.08720  0.72300  0.77260  1.0000 0.1268719481
H   H48       1.0  0.91280  0.63580  0.72740  1.0000 0.1268719481
H   H49       1.0  0.82900  0.36700  0.54300  1.0000 0.3222951681
H   H50       1.0  0.63300  0.46200  0.54300  1.0000 0.3222951681
H   H51       1.0  0.53800  0.17100  0.54300  1.0000 0.3222951681
H   H52       1.0  0.36700  0.53800  0.54300  1.0000 0.3222951681
H   H53       1.0  0.46200  0.82900  0.54300  1.0000 0.3222951681
H   H54       1.0  0.36700  0.82900  0.95700  1.0000 0.3222951681
H   H55       1.0  0.46200  0.63300  0.95700  1.0000 0.3222951681
H   H56       1.0  0.17100  0.53800  0.95700  1.0000 0.3222951681
H   H57       1.0  0.63300  0.17100  0.95700  1.0000 0.3222951681
H   H58       1.0  0.53800  0.36700  0.95700  1.0000 0.3222951681
H   H59       1.0  0.82900  0.46200  0.95700  1.0000 0.3222951681
H   H60       1.0  0.17100  0.63300  0.54300  1.0000 0.3222951681
H   H61       1.0  0.17100  0.63300  0.45700  1.0000 0.3222951681
H   H62       1.0  0.36700  0.53800  0.45700  1.0000 0.3222951681
H   H63       1.0  0.46200  0.82900  0.45700  1.0000 0.3222951681
H   H64       1.0  0.63300  0.46200  0.45700  1.0000 0.3222951681
H   H65       1.0  0.53800  0.17100  0.45700  1.0000 0.3222951681
H   H66       1.0  0.63300  0.17100  0.04300  1.0000 0.3222951681
H   H67       1.0  0.53800  0.36700  0.04300  1.0000 0.3222951681
H   H68       1.0  0.82900  0.46200  0.04300  1.0000 0.3222951681
H   H69       1.0  0.36700  0.82900  0.04300  1.0000 0.3222951681
H   H70       1.0  0.46200  0.63300  0.04300  1.0000 0.3222951681
H   H71       1.0  0.17100  0.53800  0.04300  1.0000 0.3222951681
H   H72       1.0  0.82900  0.36700  0.45700  1.0000 0.3222951681
C   C1        1.0  0.86810  0.51810  0.36000  1.0000 0.6174618381
C   C2        1.0  0.48190  0.35000  0.36000  1.0000 0.6174618381
C   C3        1.0  0.65000  0.13190  0.36000  1.0000 0.6174618381
C   C4        1.0  0.51810  0.65000  0.36000  1.0000 0.6174618381
C   C5        1.0  0.35000  0.86810  0.36000  1.0000 0.6174618381
C   C6        1.0  0.51810  0.86810  0.14000  1.0000 0.6174618381
C   C7        1.0  0.35000  0.48190  0.14000  1.0000 0.6174618381
C   C8        1.0  0.13190  0.65000  0.14000  1.0000 0.6174618381
C   C9        1.0  0.48190  0.13190  0.14000  1.0000 0.6174618381
C   C10       1.0  0.65000  0.51810  0.14000  1.0000 0.6174618381
C   C11       1.0  0.86810  0.35000  0.14000  1.0000 0.6174618381
C   C12       1.0  0.13190  0.48190  0.36000  1.0000 0.6174618381
C   C13       1.0  0.13190  0.48190  0.64000  1.0000 0.6174618381
C   C14       1.0  0.51810  0.65000  0.64000  1.0000 0.6174618381
C   C15       1.0  0.35000  0.86810  0.64000  1.0000 0.6174618381
C   C16       1.0  0.48190  0.35000  0.64000  1.0000 0.6174618381
C   C17       1.0  0.65000  0.13190  0.64000  1.0000 0.6174618381
C   C18       1.0  0.48190  0.13190  0.86000  1.0000 0.6174618381
C   C19       1.0  0.65000  0.51810  0.86000  1.0000 0.6174618381
C   C20       1.0  0.86810  0.35000  0.86000  1.0000 0.6174618381
C   C21       1.0  0.51810  0.86810  0.86000  1.0000 0.6174618381
C   C22       1.0  0.35000  0.48190  0.86000  1.0000 0.6174618381
C   C23       1.0  0.13190  0.65000  0.86000  1.0000 0.6174618381
C   C24       1.0  0.86810  0.51810  0.64000  1.0000 0.6174618381
C   C25       1.0  0.84910  0.59020  0.30490  1.0000 -0.1870765224
C   C26       1.0  0.40980  0.25890  0.30490  1.0000 -0.1870765224
C   C27       1.0  0.74110  0.15090  0.30490  1.0000 -0.1870765224
C   C28       1.0  0.59020  0.74110  0.30490  1.0000 -0.1870765224
C   C29       1.0  0.25890  0.84910  0.30490  1.0000 -0.1870765224
C   C30       1.0  0.59020  0.84910  0.19510  1.0000 -0.1870765224
C   C31       1.0  0.25890  0.40980  0.19510  1.0000 -0.1870765224
C   C32       1.0  0.15090  0.74110  0.19510  1.0000 -0.1870765224
C   C33       1.0  0.40980  0.15090  0.19510  1.0000 -0.1870765224
C   C34       1.0  0.74110  0.59020  0.19510  1.0000 -0.1870765224
C   C35       1.0  0.84910  0.25890  0.19510  1.0000 -0.1870765224
C   C36       1.0  0.15090  0.40980  0.30490  1.0000 -0.1870765224
C   C37       1.0  0.15090  0.40980  0.69510  1.0000 -0.1870765224
C   C38       1.0  0.59020  0.74110  0.69510  1.0000 -0.1870765224
C   C39       1.0  0.25890  0.84910  0.69510  1.0000 -0.1870765224
C   C40       1.0  0.40980  0.25890  0.69510  1.0000 -0.1870765224
C   C41       1.0  0.74110  0.15090  0.69510  1.0000 -0.1870765224
C   C42       1.0  0.40980  0.15090  0.80490  1.0000 -0.1870765224
C   C43       1.0  0.74110  0.59020  0.80490  1.0000 -0.1870765224
C   C44       1.0  0.84910  0.25890  0.80490  1.0000 -0.1870765224
C   C45       1.0  0.59020  0.84910  0.80490  1.0000 -0.1870765224
C   C46       1.0  0.25890  0.40980  0.80490  1.0000 -0.1870765224
C   C47       1.0  0.15090  0.74110  0.80490  1.0000 -0.1870765224
C   C48       1.0  0.84910  0.59020  0.69510  1.0000 -0.1870765224
O   O1        1.0  0.80431  0.41954  0.35441  1.0000 -0.6157482686
O   O2        1.0  0.58046  0.38477  0.35441  1.0000 -0.6157482686
O   O3        1.0  0.61523  0.19569  0.35441  1.0000 -0.6157482686
O   O4        1.0  0.41954  0.61523  0.35441  1.0000 -0.6157482686
O   O5        1.0  0.38477  0.80431  0.35441  1.0000 -0.6157482686
O   O6        1.0  0.41954  0.80431  0.14559  1.0000 -0.6157482686
O   O7        1.0  0.38477  0.58046  0.14559  1.0000 -0.6157482686
O   O8        1.0  0.19569  0.61523  0.14559  1.0000 -0.6157482686
O   O9        1.0  0.58046  0.19569  0.14559  1.0000 -0.6157482686
O   O10       1.0  0.61523  0.41954  0.14559  1.0000 -0.6157482686
O   O11       1.0  0.80431  0.38477  0.14559  1.0000 -0.6157482686
O   O12       1.0  0.19569  0.58046  0.35441  1.0000 -0.6157482686
O   O13       1.0  0.19569  0.58046  0.64559  1.0000 -0.6157482686
O   O14       1.0  0.41954  0.61523  0.64559  1.0000 -0.6157482686
O   O15       1.0  0.38477  0.80431  0.64559  1.0000 -0.6157482686
O   O16       1.0  0.58046  0.38477  0.64559  1.0000 -0.6157482686
O   O17       1.0  0.61523  0.19569  0.64559  1.0000 -0.6157482686
O   O18       1.0  0.58046  0.19569  0.85441  1.0000 -0.6157482686
O   O19       1.0  0.61523  0.41954  0.85441  1.0000 -0.6157482686
O   O20       1.0  0.80431  0.38477  0.85441  1.0000 -0.6157482686
O   O21       1.0  0.41954  0.80431  0.85441  1.0000 -0.6157482686
O   O22       1.0  0.38477  0.58046  0.85441  1.0000 -0.6157482686
O   O23       1.0  0.19569  0.61523  0.85441  1.0000 -0.6157482686
O   O24       1.0  0.80431  0.41954  0.64559  1.0000 -0.6157482686
O   O25       1.0  0.94500  0.56231  0.40957  1.0000 -0.5273623935
O   O26       1.0  0.43769  0.38269  0.40957  1.0000 -0.5273623935
O   O27       1.0  0.61731  0.05500  0.40957  1.0000 -0.5273623935
O   O28       1.0  0.56231  0.61731  0.40957  1.0000 -0.5273623935
O   O29       1.0  0.38269  0.94500  0.40957  1.0000 -0.5273623935
O   O30       1.0  0.56231  0.94500  0.09043  1.0000 -0.5273623935
O   O31       1.0  0.38269  0.43769  0.09043  1.0000 -0.5273623935
O   O32       1.0  0.05500  0.61731  0.09043  1.0000 -0.5273623935
O   O33       1.0  0.43769  0.05500  0.09043  1.0000 -0.5273623935
O   O34       1.0  0.61731  0.56231  0.09043  1.0000 -0.5273623935
O   O35       1.0  0.94500  0.38269  0.09043  1.0000 -0.5273623935
O   O36       1.0  0.05500  0.43769  0.40957  1.0000 -0.5273623935
O   O37       1.0  0.05500  0.43769  0.59043  1.0000 -0.5273623935
O   O38       1.0  0.56231  0.61731  0.59043  1.0000 -0.5273623935
O   O39       1.0  0.38269  0.94500  0.59043  1.0000 -0.5273623935
O   O40       1.0  0.43769  0.38269  0.59043  1.0000 -0.5273623935
O   O41       1.0  0.61731  0.05500  0.59043  1.0000 -0.5273623935
O   O42       1.0  0.43769  0.05500  0.90957  1.0000 -0.5273623935
O   O43       1.0  0.61731  0.56231  0.90957  1.0000 -0.5273623935
O   O44       1.0  0.94500  0.38269  0.90957  1.0000 -0.5273623935
O   O45       1.0  0.56231  0.94500  0.90957  1.0000 -0.5273623935
O   O46       1.0  0.38269  0.43769  0.90957  1.0000 -0.5273623935
O   O47       1.0  0.05500  0.61731  0.90957  1.0000 -0.5273623935
O   O48       1.0  0.94500  0.56231  0.59043  1.0000 -0.5273623935
O   O49       1.0  0.76515  0.53030  0.25000  1.0000 -0.2168549818
O   O50       1.0  0.46970  0.23485  0.25000  1.0000 -0.2168549818
O   O51       1.0  0.76515  0.23485  0.25000  1.0000 -0.2168549818
O   O52       1.0  0.53030  0.76515  0.25000  1.0000 -0.2168549818
O   O53       1.0  0.23485  0.76515  0.25000  1.0000 -0.2168549818
O   O54       1.0  0.23485  0.46970  0.25000  1.0000 -0.2168549818
O   O55       1.0  0.23485  0.46970  0.75000  1.0000 -0.2168549818
O   O56       1.0  0.53030  0.76515  0.75000  1.0000 -0.2168549818
O   O57       1.0  0.23485  0.76515  0.75000  1.0000 -0.2168549818
O   O58       1.0  0.46970  0.23485  0.75000  1.0000 -0.2168549818
O   O59       1.0  0.76515  0.23485  0.75000  1.0000 -0.2168549818
O   O60       1.0  0.76515  0.53030  0.75000  1.0000 -0.2168549818
O   O61       1.0  0.85550  0.34830  0.50000  1.0000 -0.6434074166
O   O62       1.0  0.65170  0.50720  0.50000  1.0000 -0.6434074166
O   O63       1.0  0.49280  0.14450  0.50000  1.0000 -0.6434074166
O   O64       1.0  0.34830  0.49280  0.50000  1.0000 -0.6434074166
O   O65       1.0  0.50720  0.85550  0.50000  1.0000 -0.6434074166
O   O66       1.0  0.34830  0.85550  0.00000  1.0000 -0.6434074166
O   O67       1.0  0.50720  0.65170  0.00000  1.0000 -0.6434074166
O   O68       1.0  0.14450  0.49280  0.00000  1.0000 -0.6434074166
O   O69       1.0  0.65170  0.14450  0.00000  1.0000 -0.6434074166
O   O70       1.0  0.49280  0.34830  0.00000  1.0000 -0.6434074166
O   O71       1.0  0.85550  0.50720  0.00000  1.0000 -0.6434074166
O   O72       1.0  0.14450  0.65170  0.50000  1.0000 -0.6434074166
