# DDEC6 charges by PACMAN v1.1 (https://github.com/mtap-research/PACMAN-charge/)
data_2003[Er][pcu]3[FSR]1
_chemical_formula_sum              "Er6 C18 O54"
_cell_length_a       17.9845
_cell_length_b       17.9845
_cell_length_c       17.9845
_cell_angle_alpha    118.233
_cell_angle_beta     118.233
_cell_angle_gamma    118.233

_symmetry_space_group_name_H-M    "P 1"
_symmetry_Int_Tables_number       1

loop_
  _symmetry_equiv_pos_as_xyz
  'x, y, z'

loop_
  _atom_site_type_symbol
  _atom_site_label
  _atom_site_symmetry_multiplicity
  _atom_site_fract_x
  _atom_site_fract_y
  _atom_site_fract_z
  _atom_site_occupancy
  _atom_site_charge
Er  Er1       1.0  0.21677  0.54826  0.21729  1.0000 1.8173729615
Er  Er2       1.0  0.54826  0.21729  0.21677  1.0000 1.8173729615
Er  Er3       1.0  0.21729  0.21677  0.54826  1.0000 1.8173729615
Er  Er4       1.0  0.78323  0.45174  0.78271  1.0000 1.8173729615
Er  Er5       1.0  0.45174  0.78271  0.78323  1.0000 1.8139995294
Er  Er6       1.0  0.78271  0.78323  0.45174  1.0000 1.8173729615
C   C1        1.0  0.92390  0.43350  0.96360  1.0000 0.5577353494
C   C2        1.0  0.43350  0.96360  0.92390  1.0000 0.5577353494
C   C3        1.0  0.96360  0.92390  0.43350  1.0000 0.5577353494
C   C4        1.0  0.07610  0.56650  0.03640  1.0000 0.5577353494
C   C5        1.0  0.56650  0.03640  0.07610  1.0000 0.5577353494
C   C6        1.0  0.03640  0.07610  0.56650  1.0000 0.5577353494
C   C7        1.0  0.42680  0.71940  0.56020  1.0000 0.54559588
C   C8        1.0  0.71940  0.56020  0.42680  1.0000 0.54559588
C   C9        1.0  0.56020  0.42680  0.71940  1.0000 0.54559588
C   C10       1.0  0.57320  0.28060  0.43980  1.0000 0.54559588
C   C11       1.0  0.28060  0.43980  0.57320  1.0000 0.54559588
C   C12       1.0  0.43980  0.57320  0.28060  1.0000 0.54559588
C   C13       1.0  0.25700  0.62660  0.45230  1.0000 0.5577353494
C   C14       1.0  0.62660  0.45230  0.25700  1.0000 0.5577353494
C   C15       1.0  0.45230  0.25700  0.62660  1.0000 0.5577353494
C   C16       1.0  0.74300  0.37340  0.54770  1.0000 0.5577353494
C   C17       1.0  0.37340  0.54770  0.74300  1.0000 0.5577353494
C   C18       1.0  0.54770  0.74300  0.37340  1.0000 0.5577353494
O   O1        1.0  0.44423  0.71180  0.49907  1.0000 -0.5403475059
O   O2        1.0  0.71180  0.49907  0.44423  1.0000 -0.5403475059
O   O3        1.0  0.49907  0.44423  0.71180  1.0000 -0.5403475059
O   O4        1.0  0.55577  0.28820  0.50093  1.0000 -0.5403475059
O   O5        1.0  0.28820  0.50093  0.55577  1.0000 -0.5403475059
O   O6        1.0  0.50093  0.55577  0.28820  1.0000 -0.5403475059
O   O7        1.0  0.15430  0.55366  0.31564  1.0000 -0.5221355004
O   O8        1.0  0.55366  0.31564  0.15430  1.0000 -0.5221355004
O   O9        1.0  0.31564  0.15430  0.55366  1.0000 -0.5221355004
O   O10       1.0  0.84570  0.44634  0.68436  1.0000 -0.5221355004
O   O11       1.0  0.44634  0.68436  0.84570  1.0000 -0.5221355004
O   O12       1.0  0.68436  0.84570  0.44634  1.0000 -0.5221355004
O   O13       1.0  0.94990  0.40841  0.01849  1.0000 -0.5403475059
O   O14       1.0  0.40841  0.01849  0.94990  1.0000 -0.5403475059
O   O15       1.0  0.01849  0.94990  0.40841  1.0000 -0.5403475059
O   O16       1.0  0.05010  0.59159  0.98151  1.0000 -0.5403475059
O   O17       1.0  0.59159  0.98151  0.05010  1.0000 -0.5403475059
O   O18       1.0  0.98151  0.05010  0.59159  1.0000 -0.5403475059
O   O19       1.0  0.79057  0.36546  0.85927  1.0000 -0.5327812874
O   O20       1.0  0.36546  0.85927  0.79057  1.0000 -0.5327812874
O   O21       1.0  0.85927  0.79057  0.36546  1.0000 -0.5327812874
O   O22       1.0  0.20943  0.63454  0.14073  1.0000 -0.5327812874
O   O23       1.0  0.63454  0.14073  0.20943  1.0000 -0.5327812874
O   O24       1.0  0.14073  0.20943  0.63454  1.0000 -0.5327812874
O   O25       1.0  0.53124  0.79462  0.69914  1.0000 -0.5111296816
O   O26       1.0  0.79462  0.69914  0.53124  1.0000 -0.5111296816
O   O27       1.0  0.69914  0.53124  0.79462  1.0000 -0.5111296816
O   O28       1.0  0.46876  0.20538  0.30086  1.0000 -0.5111296816
O   O29       1.0  0.20538  0.30086  0.46876  1.0000 -0.5111296816
O   O30       1.0  0.30086  0.46876  0.20538  1.0000 -0.5111296816
O   O31       1.0  0.23940  0.63434  0.51376  1.0000 -0.5462768816
O   O32       1.0  0.63434  0.51376  0.23940  1.0000 -0.5462768816
O   O33       1.0  0.51376  0.23940  0.63434  1.0000 -0.5462768816
O   O34       1.0  0.76060  0.36566  0.48624  1.0000 -0.5462768816
O   O35       1.0  0.36566  0.48624  0.76060  1.0000 -0.5462768816
O   O36       1.0  0.48624  0.76060  0.36566  1.0000 -0.5462768816
O   O37       1.0  0.42783  0.85871  0.47656  1.0000 -0.0628811114
O   O38       1.0  0.85871  0.47656  0.42783  1.0000 -0.0628811114
O   O39       1.0  0.47656  0.42783  0.85871  1.0000 -0.0658813783
O   O40       1.0  0.57217  0.14129  0.52344  1.0000 -0.0658813783
O   O41       1.0  0.14129  0.52344  0.57217  1.0000 -0.0658813783
O   O42       1.0  0.52344  0.57217  0.14129  1.0000 -0.0628811114
O   O43       1.0  0.97760  0.25500  0.03200  1.0000 -0.1090689643
O   O44       1.0  0.25500  0.03200  0.97760  1.0000 -0.1160882605
O   O45       1.0  0.03200  0.97760  0.25500  1.0000 -0.1090689643
O   O46       1.0  0.02240  0.74500  0.96800  1.0000 -0.1160882605
O   O47       1.0  0.74500  0.96800  0.02240  1.0000 -0.1090689643
O   O48       1.0  0.96800  0.02240  0.74500  1.0000 -0.1090689643
O   O49       1.0  0.01257  0.29720  0.91043  1.0000 -0.1090689643
O   O50       1.0  0.29720  0.91043  0.01257  1.0000 -0.1090689643
O   O51       1.0  0.91043  0.01257  0.29720  1.0000 -0.1090689643
O   O52       1.0  0.98743  0.70280  0.08957  1.0000 -0.1090689643
O   O53       1.0  0.70280  0.08957  0.98743  1.0000 -0.1090689643
O   O54       1.0  0.08957  0.98743  0.70280  1.0000 -0.1090689643
