# DDEC6 charges by PACMAN v1.1 (https://github.com/mtap-research/PACMAN-charge/)
data_2003[Cu][gra]3[FSR]1
_chemical_formula_sum              "Cu4 H40 C48 S4 N16 O24"
_cell_length_a       5.5067
_cell_length_b       10.5119
_cell_length_c       28.1794
_cell_angle_alpha    90
_cell_angle_beta     90
_cell_angle_gamma    90

_symmetry_space_group_name_H-M    "P 1"
_symmetry_Int_Tables_number       1

loop_
  _symmetry_equiv_pos_as_xyz
  'x, y, z'

loop_
  _atom_site_type_symbol
  _atom_site_label
  _atom_site_symmetry_multiplicity
  _atom_site_fract_x
  _atom_site_fract_y
  _atom_site_fract_z
  _atom_site_occupancy
  _atom_site_charge
Cu  Cu1       1.0  0.76643  0.51906  0.24051  1.0000 0.8505809954
Cu  Cu2       1.0  0.73357  0.48094  0.74051  1.0000 0.8505809954
Cu  Cu3       1.0  0.23357  0.01906  0.25949  1.0000 0.8505809954
Cu  Cu4       1.0  0.26643  0.98094  0.75949  1.0000 0.8505809954
H   H1        1.0  0.42180  0.37480  0.18520  1.0000 0.1217434
H   H2        1.0  0.07820  0.62520  0.68520  1.0000 0.1217434
H   H3        1.0  0.57820  0.87480  0.31480  1.0000 0.1217434
H   H4        1.0  0.92180  0.12520  0.81480  1.0000 0.1217434
H   H5        1.0  0.30540  0.34020  0.10830  1.0000 0.1266076616
H   H6        1.0  0.19460  0.65980  0.60830  1.0000 0.1266076616
H   H7        1.0  0.69460  0.84020  0.39170  1.0000 0.1266076616
H   H8        1.0  0.80540  0.15980  0.89170  1.0000 0.1266076616
H   H9        1.0  0.91200  0.51640  0.06550  1.0000 0.1429064027
H   H10       1.0  0.58800  0.48360  0.56550  1.0000 0.1429064027
H   H11       1.0  0.08800  0.01640  0.43450  1.0000 0.1429064027
H   H12       1.0  0.41200  0.98360  0.93450  1.0000 0.1429064027
H   H13       1.0  0.00790  0.55180  0.14360  1.0000 0.1217434
H   H14       1.0  0.49210  0.44820  0.64360  1.0000 0.1217434
H   H15       1.0  0.99210  0.05180  0.35640  1.0000 0.1217434
H   H16       1.0  0.50790  0.94820  0.85640  1.0000 0.1217434
H   H17       1.0  0.38550  0.33900  0.80160  1.0000 0.1217434
H   H18       1.0  0.11450  0.66100  0.30160  1.0000 0.1217434
H   H19       1.0  0.61450  0.83900  0.69840  1.0000 0.1217434
H   H20       1.0  0.88550  0.16100  0.19840  1.0000 0.1217434
H   H21       1.0  0.29140  0.31380  0.87990  1.0000 0.1266076616
H   H22       1.0  0.20860  0.68620  0.37990  1.0000 0.1266076616
H   H23       1.0  0.70860  0.81380  0.62010  1.0000 0.1266076616
H   H24       1.0  0.79140  0.18620  0.12010  1.0000 0.1266076616
H   H25       1.0  0.90950  0.49340  0.91370  1.0000 0.1429064027
H   H26       1.0  0.59050  0.50660  0.41370  1.0000 0.1453519216
H   H27       1.0  0.09050  0.99340  0.58630  1.0000 0.1453519216
H   H28       1.0  0.40950  0.00660  0.08630  1.0000 0.1429064027
H   H29       1.0  0.98990  0.51300  0.83380  1.0000 0.1217434
H   H30       1.0  0.51010  0.48700  0.33380  1.0000 0.1217434
H   H31       1.0  0.01010  0.01300  0.66620  1.0000 0.1266076616
H   H32       1.0  0.48990  0.98700  0.16620  1.0000 0.1217434
H   H33       1.0  0.21000  0.45100  0.24670  1.0000 0.3511582664
H   H34       1.0  0.29000  0.54900  0.74670  1.0000 0.3511582664
H   H35       1.0  0.79000  0.95100  0.25330  1.0000 0.3511582664
H   H36       1.0  0.71000  0.04900  0.75330  1.0000 0.3511582664
H   H37       1.0  0.06100  0.35700  0.25960  1.0000 0.3511582664
H   H38       1.0  0.43900  0.64300  0.75960  1.0000 0.3511582664
H   H39       1.0  0.93900  0.85700  0.24040  1.0000 0.3511582664
H   H40       1.0  0.56100  0.14300  0.74040  1.0000 0.3511582664
C   C1        1.0  0.51910  0.40560  0.16075  1.0000 0.0917085562
C   C2        1.0  0.98090  0.59440  0.66075  1.0000 0.0917085562
C   C3        1.0  0.48090  0.90560  0.33925  1.0000 0.0917085562
C   C4        1.0  0.01910  0.09440  0.83925  1.0000 0.0917085562
C   C5        1.0  0.44850  0.38390  0.11476  1.0000 -0.1727559143
C   C6        1.0  0.05150  0.61610  0.61476  1.0000 -0.1727559143
C   C7        1.0  0.55150  0.88390  0.38524  1.0000 -0.1727559143
C   C8        1.0  0.94850  0.11610  0.88524  1.0000 -0.1727559143
C   C9        1.0  0.59340  0.42780  0.07792  1.0000 0.0510058007
C   C10       1.0  0.90660  0.57220  0.57792  1.0000 0.0510058007
C   C11       1.0  0.40660  0.92780  0.42208  1.0000 0.0510058007
C   C12       1.0  0.09340  0.07220  0.92208  1.0000 0.0510058007
C   C13       1.0  0.80750  0.48900  0.08931  1.0000 -0.1480671017
C   C14       1.0  0.69250  0.51100  0.58931  1.0000 -0.1480671017
C   C15       1.0  0.19250  0.98900  0.41069  1.0000 -0.1480671017
C   C16       1.0  0.30750  0.01100  0.91069  1.0000 -0.1480671017
C   C17       1.0  0.86480  0.50910  0.13628  1.0000 0.0992317903
C   C18       1.0  0.63520  0.49090  0.63628  1.0000 0.0992317903
C   C19       1.0  0.13520  0.00910  0.36372  1.0000 0.0992317903
C   C20       1.0  0.36480  0.99090  0.86372  1.0000 0.0992317903
C   C21       1.0  0.50810  0.40400  0.02965  1.0000 0.3022246858
C   C22       1.0  0.99190  0.59600  0.52965  1.0000 0.3022246858
C   C23       1.0  0.49190  0.90400  0.47035  1.0000 0.3022246858
C   C24       1.0  0.00810  0.09600  0.97035  1.0000 0.3022246858
C   C25       1.0  0.50660  0.39420  0.95518  1.0000 0.3071056059
C   C26       1.0  0.99340  0.60580  0.45518  1.0000 0.3071056059
C   C27       1.0  0.49340  0.89420  0.54482  1.0000 0.3071056059
C   C28       1.0  0.00660  0.10580  0.04482  1.0000 0.3071056059
C   C29       1.0  0.49030  0.37190  0.82444  1.0000 0.0835713292
C   C30       1.0  0.00970  0.62810  0.32444  1.0000 0.0835713292
C   C31       1.0  0.50970  0.87190  0.67556  1.0000 0.0835713292
C   C32       1.0  0.99030  0.12810  0.17556  1.0000 0.0835713292
C   C33       1.0  0.43230  0.35670  0.87122  1.0000 -0.1727559143
C   C34       1.0  0.06770  0.64330  0.37122  1.0000 -0.1727559143
C   C35       1.0  0.56770  0.85670  0.62878  1.0000 -0.1727559143
C   C36       1.0  0.93230  0.14330  0.12878  1.0000 -0.1727559143
C   C37       1.0  0.58610  0.40590  0.90552  1.0000 0.0510058007
C   C38       1.0  0.91390  0.59410  0.40552  1.0000 0.0510058007
C   C39       1.0  0.41390  0.90590  0.59448  1.0000 0.0510058007
C   C40       1.0  0.08610  0.09410  0.09448  1.0000 0.0510058007
C   C41       1.0  0.79930  0.46310  0.89141  1.0000 -0.1480671017
C   C42       1.0  0.70070  0.53690  0.39141  1.0000 -0.1480671017
C   C43       1.0  0.20070  0.96310  0.60859  1.0000 -0.1480671017
C   C44       1.0  0.29930  0.03690  0.10859  1.0000 -0.1480671017
C   C45       1.0  0.84600  0.47450  0.84341  1.0000 0.0917085562
C   C46       1.0  0.65400  0.52550  0.34341  1.0000 0.0917085562
C   C47       1.0  0.15400  0.97450  0.65659  1.0000 0.0917085562
C   C48       1.0  0.34600  0.02550  0.15659  1.0000 0.0917085562
S   S1        1.0  0.33983  0.71037  0.21255  1.0000 1.4053780189
S   S2        1.0  0.16017  0.28963  0.71255  1.0000 1.4048344246
S   S3        1.0  0.66017  0.21037  0.28745  1.0000 1.4048344246
S   S4        1.0  0.83983  0.78963  0.78745  1.0000 1.4053780189
N   N1        1.0  0.72170  0.46930  0.17209  1.0000 -0.2130410546
N   N2        1.0  0.77830  0.53070  0.67209  1.0000 -0.2130410546
N   N3        1.0  0.27830  0.96930  0.32791  1.0000 -0.2130410546
N   N4        1.0  0.22170  0.03070  0.82791  1.0000 -0.2130410546
N   N5        1.0  0.30210  0.35690  0.01835  1.0000 -0.2402378866
N   N6        1.0  0.19790  0.64310  0.51835  1.0000 -0.2402378866
N   N7        1.0  0.69790  0.85690  0.48165  1.0000 -0.2402378866
N   N8        1.0  0.80210  0.14310  0.98165  1.0000 -0.2402378866
N   N9        1.0  0.30060  0.35000  0.96885  1.0000 -0.2459993014
N   N10       1.0  0.19940  0.65000  0.46885  1.0000 -0.2459993014
N   N11       1.0  0.69940  0.85000  0.53115  1.0000 -0.2459993014
N   N12       1.0  0.80060  0.15000  0.03115  1.0000 -0.2459993014
N   N13       1.0  0.69160  0.43210  0.80993  1.0000 -0.2237181315
N   N14       1.0  0.80840  0.56790  0.30993  1.0000 -0.2237181315
N   N15       1.0  0.30840  0.93210  0.69007  1.0000 -0.2237181315
N   N16       1.0  0.19160  0.06790  0.19007  1.0000 -0.2237181315
O   O1        1.0  0.65140  0.43170  0.99154  1.0000 -0.1480671017
O   O2        1.0  0.84860  0.56830  0.49154  1.0000 -0.1480671017
O   O3        1.0  0.34860  0.93170  0.50846  1.0000 -0.1480671017
O   O4        1.0  0.15140  0.06830  0.00846  1.0000 -0.1480671017
O   O5        1.0  0.07230  0.42030  0.24185  1.0000 -0.6542318114
O   O6        1.0  0.42770  0.57970  0.74185  1.0000 -0.6542318114
O   O7        1.0  0.92770  0.92030  0.25815  1.0000 -0.6551675448
O   O8        1.0  0.57230  0.07970  0.75815  1.0000 -0.6542318114
O   O9        1.0  0.44280  0.59870  0.23986  1.0000 -0.6762915054
O   O10       1.0  0.05720  0.40130  0.73986  1.0000 -0.6762915054
O   O11       1.0  0.55720  0.09870  0.26014  1.0000 -0.6762915054
O   O12       1.0  0.94280  0.90130  0.76014  1.0000 -0.6762915054
O   O13       1.0  0.42660  0.82700  0.23520  1.0000 -0.7015981325
O   O14       1.0  0.07340  0.17300  0.73520  1.0000 -0.7015981325
O   O15       1.0  0.57340  0.32700  0.26480  1.0000 -0.7015981325
O   O16       1.0  0.92660  0.67300  0.76480  1.0000 -0.7015981325
O   O17       1.0  0.07260  0.69960  0.21687  1.0000 -0.685725654
O   O18       1.0  0.42740  0.30040  0.71687  1.0000 -0.685725654
O   O19       1.0  0.92740  0.19960  0.28313  1.0000 -0.685725654
O   O20       1.0  0.57260  0.80040  0.78313  1.0000 -0.685725654
O   O21       1.0  0.41340  0.70270  0.16333  1.0000 -0.6332158843
O   O22       1.0  0.08660  0.29730  0.66333  1.0000 -0.6332158843
O   O23       1.0  0.58660  0.20270  0.33667  1.0000 -0.6332158843
O   O24       1.0  0.91340  0.79730  0.83667  1.0000 -0.6332158843
