# DDEC6 charges by PACMAN v1.1 (https://github.com/mtap-research/PACMAN-charge/)
data_2004[Cd][bnn]3[FSR]1
_chemical_formula_sum              "Cd16 H320 C464 N48 O64"
_cell_length_a       23.221
_cell_length_b       11.8103
_cell_length_c       45.467
_cell_angle_alpha    90
_cell_angle_beta     104.516
_cell_angle_gamma    90

_symmetry_space_group_name_H-M    "P 1"
_symmetry_Int_Tables_number       1

loop_
  _symmetry_equiv_pos_as_xyz
  'x, y, z'

loop_
  _atom_site_type_symbol
  _atom_site_label
  _atom_site_symmetry_multiplicity
  _atom_site_fract_x
  _atom_site_fract_y
  _atom_site_fract_z
  _atom_site_occupancy
  _atom_site_charge
Cd  Cd1       1.0  0.87222  0.36784  0.26379  1.0000 0.7688256197
Cd  Cd2       1.0  0.87222  0.13216  0.76379  1.0000 0.7688256197
Cd  Cd3       1.0  0.54816  0.08804  0.92651  1.0000 0.7688256197
Cd  Cd4       1.0  0.54816  0.41196  0.42651  1.0000 0.7688256197
Cd  Cd5       1.0  0.12778  0.63216  0.73621  1.0000 0.7688256197
Cd  Cd6       1.0  0.12778  0.86784  0.23621  1.0000 0.7688256197
Cd  Cd7       1.0  0.45184  0.91196  0.07349  1.0000 0.7688256197
Cd  Cd8       1.0  0.45184  0.58804  0.57349  1.0000 0.7688256197
Cd  Cd9       1.0  0.41715  0.12579  0.27668  1.0000 0.7688256197
Cd  Cd10      1.0  0.41715  0.37421  0.77668  1.0000 0.7688256197
Cd  Cd11      1.0  0.09575  0.42121  0.94034  1.0000 0.7688256197
Cd  Cd12      1.0  0.09575  0.07879  0.44034  1.0000 0.7688256197
Cd  Cd13      1.0  0.58285  0.87421  0.72332  1.0000 0.7688256197
Cd  Cd14      1.0  0.58285  0.62579  0.22332  1.0000 0.7688256197
Cd  Cd15      1.0  0.90425  0.57879  0.05966  1.0000 0.7688256197
Cd  Cd16      1.0  0.90425  0.92121  0.55966  1.0000 0.7688256197
H   H1        1.0  0.85140  0.24970  0.15960  1.0000 0.1178317027
H   H2        1.0  0.85140  0.25030  0.65960  1.0000 0.1178317027
H   H3        1.0  0.80460  0.20480  0.10970  1.0000 0.1089452624
H   H4        1.0  0.80460  0.29520  0.60970  1.0000 0.1089452624
H   H5        1.0  0.64870  0.29650  0.12350  1.0000 0.1089452624
H   H6        1.0  0.64870  0.20350  0.62350  1.0000 0.1089452624
H   H7        1.0  0.69450  0.34060  0.17300  1.0000 0.1089452624
H   H8        1.0  0.69450  0.15940  0.67300  1.0000 0.1089452624
H   H9        1.0  0.71580  0.19700  0.01180  1.0000 0.1089452624
H   H10       1.0  0.71580  0.30300  0.51180  1.0000 0.1089452624
H   H11       1.0  0.76060  0.24800  0.06140  1.0000 0.1089452624
H   H12       1.0  0.76060  0.25200  0.56140  1.0000 0.1089452624
H   H13       1.0  0.61310  0.16620  0.08600  1.0000 0.1089452624
H   H14       1.0  0.61310  0.33380  0.58600  1.0000 0.1089452624
H   H15       1.0  0.56850  0.10800  0.03700  1.0000 0.1313237446
H   H16       1.0  0.56850  0.39200  0.53700  1.0000 0.1313237446
H   H17       1.0  0.07260  0.50740  0.28230  1.0000 0.1089452624
H   H18       1.0  0.07260  0.99260  0.78230  1.0000 0.1089452624
H   H19       1.0  0.17280  0.53330  0.30700  1.0000 0.1089452624
H   H20       1.0  0.17280  0.96670  0.80700  1.0000 0.1089452624
H   H21       1.0  0.15590  0.31110  0.36990  1.0000 0.1013633904
H   H22       1.0  0.15590  0.18890  0.86990  1.0000 0.1013633904
H   H23       1.0  0.05540  0.30120  0.34860  1.0000 0.1178317027
H   H24       1.0  0.05540  0.19880  0.84860  1.0000 0.1178317027
H   H25       1.0  0.36820  0.44510  0.33690  1.0000 0.1089452624
H   H26       1.0  0.36820  0.05490  0.83690  1.0000 0.1089452624
H   H27       1.0  0.26500  0.45350  0.31610  1.0000 0.1089452624
H   H28       1.0  0.26500  0.04650  0.81610  1.0000 0.1089452624
H   H29       1.0  0.23930  0.40730  0.39840  1.0000 0.1089452624
H   H30       1.0  0.23930  0.09270  0.89840  1.0000 0.1089452624
H   H31       1.0  0.33950  0.40050  0.41890  1.0000 0.1178317027
H   H32       1.0  0.33950  0.09950  0.91890  1.0000 0.1178317027
H   H33       1.0  0.73310  0.38620  0.26450  1.0000 0.1013633904
H   H34       1.0  0.73310  0.11380  0.76450  1.0000 0.1013633904
H   H35       1.0  0.66920  0.39470  0.29470  1.0000 0.1313237446
H   H36       1.0  0.66920  0.10530  0.79470  1.0000 0.1313237446
H   H37       1.0  0.80690  0.37880  0.36700  1.0000 0.1313237446
H   H38       1.0  0.80690  0.12120  0.86700  1.0000 0.1313237446
H   H39       1.0  0.86760  0.35830  0.33470  1.0000 0.1178317027
H   H40       1.0  0.86760  0.14170  0.83470  1.0000 0.1178317027
H   H41       1.0  0.55250  0.38190  0.35700  1.0000 0.1089452624
H   H42       1.0  0.55250  0.11810  0.85700  1.0000 0.1089452624
H   H43       1.0  0.61200  0.37170  0.32460  1.0000 0.1313237446
H   H44       1.0  0.61200  0.12830  0.82460  1.0000 0.1313237446
H   H45       1.0  0.74930  0.44200  0.39340  1.0000 0.1313237446
H   H46       1.0  0.74930  0.05800  0.89340  1.0000 0.1313237446
H   H47       1.0  0.68490  0.45230  0.42430  1.0000 0.1089452624
H   H48       1.0  0.68490  0.04770  0.92430  1.0000 0.1089452624
H   H49       1.0  0.94500  0.59220  0.25100  1.0000 0.1089452624
H   H50       1.0  0.94500  0.90780  0.75100  1.0000 0.1089452624
H   H51       1.0  0.94940  0.78550  0.25530  1.0000 0.1411503149
H   H52       1.0  0.94940  0.71450  0.75530  1.0000 0.1411503149
H   H53       1.0  0.79360  0.77900  0.27670  1.0000 0.1411503149
H   H54       1.0  0.79360  0.72100  0.77670  1.0000 0.1411503149
H   H55       1.0  0.79370  0.58650  0.27290  1.0000 0.1013633904
H   H56       1.0  0.79370  0.91350  0.77290  1.0000 0.1013633904
H   H57       1.0  0.95720  0.14740  0.28630  1.0000 0.1089452624
H   H58       1.0  0.95720  0.35260  0.78630  1.0000 0.1089452624
H   H59       1.0  0.96030  0.95470  0.28580  1.0000 0.1495589793
H   H60       1.0  0.96030  0.54530  0.78580  1.0000 0.1495589793
H   H61       1.0  0.78400  0.95610  0.25340  1.0000 0.1313237446
H   H62       1.0  0.78400  0.54390  0.75340  1.0000 0.1313237446
H   H63       1.0  0.78690  0.14790  0.25470  1.0000 0.1013633904
H   H64       1.0  0.78690  0.35210  0.75470  1.0000 0.1013633904
H   H65       1.0  0.50350  0.87130  0.88340  1.0000 0.1089452624
H   H66       1.0  0.50350  0.62870  0.38340  1.0000 0.1089452624
H   H67       1.0  0.50810  0.67940  0.88070  1.0000 0.1411503149
H   H68       1.0  0.50810  0.82060  0.38070  1.0000 0.1411503149
H   H69       1.0  0.59610  0.67020  0.96720  1.0000 0.1411503149
H   H70       1.0  0.59610  0.82980  0.46720  1.0000 0.1411503149
H   H71       1.0  0.59260  0.86660  0.96790  1.0000 0.1178317027
H   H72       1.0  0.59260  0.63340  0.46790  1.0000 0.1178317027
H   H73       1.0  0.63140  0.30900  0.95040  1.0000 0.1089452624
H   H74       1.0  0.63140  0.19100  0.45040  1.0000 0.1089452624
H   H75       1.0  0.63130  0.50140  0.95230  1.0000 0.1411503149
H   H76       1.0  0.63130  0.99860  0.45230  1.0000 0.1411503149
H   H77       1.0  0.47430  0.50110  0.89230  1.0000 0.1411503149
H   H78       1.0  0.47430  0.99890  0.39230  1.0000 0.1411503149
H   H79       1.0  0.47660  0.30930  0.89320  1.0000 0.1089452624
H   H80       1.0  0.47660  0.19070  0.39320  1.0000 0.1089452624
H   H81       1.0  0.14860  0.75030  0.84040  1.0000 0.1178317027
H   H82       1.0  0.14860  0.74970  0.34040  1.0000 0.1178317027
H   H83       1.0  0.19540  0.79520  0.89030  1.0000 0.1089452624
H   H84       1.0  0.19540  0.70480  0.39030  1.0000 0.1089452624
H   H85       1.0  0.35130  0.70350  0.87650  1.0000 0.1089452624
H   H86       1.0  0.35130  0.79650  0.37650  1.0000 0.1089452624
H   H87       1.0  0.30550  0.65940  0.82700  1.0000 0.1089452624
H   H88       1.0  0.30550  0.84060  0.32700  1.0000 0.1089452624
H   H89       1.0  0.28420  0.80300  0.98820  1.0000 0.1089452624
H   H90       1.0  0.28420  0.69700  0.48820  1.0000 0.1089452624
H   H91       1.0  0.23940  0.75200  0.93860  1.0000 0.1089452624
H   H92       1.0  0.23940  0.74800  0.43860  1.0000 0.1089452624
H   H93       1.0  0.38690  0.83380  0.91400  1.0000 0.1089452624
H   H94       1.0  0.38690  0.66620  0.41400  1.0000 0.1089452624
H   H95       1.0  0.43150  0.89200  0.96300  1.0000 0.1313237446
H   H96       1.0  0.43150  0.60800  0.46300  1.0000 0.1313237446
H   H97       1.0  0.92740  0.49260  0.71770  1.0000 0.1089452624
H   H98       1.0  0.92740  0.00740  0.21770  1.0000 0.1089452624
H   H99       1.0  0.82720  0.46670  0.69300  1.0000 0.1089452624
H   H100      1.0  0.82720  0.03330  0.19300  1.0000 0.1089452624
H   H101      1.0  0.84410  0.68890  0.63010  1.0000 0.1013633904
H   H102      1.0  0.84410  0.81110  0.13010  1.0000 0.1013633904
H   H103      1.0  0.94460  0.69880  0.65140  1.0000 0.1178317027
H   H104      1.0  0.94460  0.80120  0.15140  1.0000 0.1178317027
H   H105      1.0  0.63180  0.55490  0.66310  1.0000 0.1089452624
H   H106      1.0  0.63180  0.94510  0.16310  1.0000 0.1089452624
H   H107      1.0  0.73500  0.54650  0.68390  1.0000 0.1089452624
H   H108      1.0  0.73500  0.95350  0.18390  1.0000 0.1089452624
H   H109      1.0  0.76070  0.59270  0.60160  1.0000 0.1089452624
H   H110      1.0  0.76070  0.90730  0.10160  1.0000 0.1089452624
H   H111      1.0  0.66050  0.59950  0.58110  1.0000 0.1178317027
H   H112      1.0  0.66050  0.90050  0.08110  1.0000 0.1178317027
H   H113      1.0  0.26690  0.61380  0.73550  1.0000 0.1013633904
H   H114      1.0  0.26690  0.88620  0.23550  1.0000 0.1013633904
H   H115      1.0  0.33080  0.60530  0.70530  1.0000 0.1313237446
H   H116      1.0  0.33080  0.89470  0.20530  1.0000 0.1313237446
H   H117      1.0  0.19310  0.62120  0.63300  1.0000 0.1313237446
H   H118      1.0  0.19310  0.87880  0.13300  1.0000 0.1313237446
H   H119      1.0  0.13240  0.64170  0.66530  1.0000 0.1178317027
H   H120      1.0  0.13240  0.85830  0.16530  1.0000 0.1178317027
H   H121      1.0  0.44750  0.61810  0.64300  1.0000 0.1089452624
H   H122      1.0  0.44750  0.88190  0.14300  1.0000 0.1089452624
H   H123      1.0  0.38800  0.62830  0.67540  1.0000 0.1313237446
H   H124      1.0  0.38800  0.87170  0.17540  1.0000 0.1313237446
H   H125      1.0  0.25070  0.55800  0.60660  1.0000 0.1313237446
H   H126      1.0  0.25070  0.94200  0.10660  1.0000 0.1313237446
H   H127      1.0  0.31510  0.54770  0.57570  1.0000 0.1089452624
H   H128      1.0  0.31510  0.95230  0.07570  1.0000 0.1089452624
H   H129      1.0  0.05500  0.40780  0.74900  1.0000 0.1089452624
H   H130      1.0  0.05500  0.09220  0.24900  1.0000 0.1089452624
H   H131      1.0  0.05060  0.21450  0.74470  1.0000 0.1411503149
H   H132      1.0  0.05060  0.28550  0.24470  1.0000 0.1411503149
H   H133      1.0  0.20640  0.22100  0.72330  1.0000 0.1411503149
H   H134      1.0  0.20640  0.27900  0.22330  1.0000 0.1411503149
H   H135      1.0  0.20630  0.41350  0.72710  1.0000 0.1013633904
H   H136      1.0  0.20630  0.08650  0.22710  1.0000 0.1013633904
H   H137      1.0  0.04280  0.85260  0.71370  1.0000 0.1089452624
H   H138      1.0  0.04280  0.64740  0.21370  1.0000 0.1089452624
H   H139      1.0  0.03970  0.04530  0.71420  1.0000 0.1495589793
H   H140      1.0  0.03970  0.45470  0.21420  1.0000 0.1495589793
H   H141      1.0  0.21600  0.04390  0.74660  1.0000 0.1313237446
H   H142      1.0  0.21600  0.45610  0.24660  1.0000 0.1313237446
H   H143      1.0  0.21310  0.85210  0.74530  1.0000 0.1013633904
H   H144      1.0  0.21310  0.64790  0.24530  1.0000 0.1013633904
H   H145      1.0  0.49650  0.12870  0.11660  1.0000 0.1089452624
H   H146      1.0  0.49650  0.37130  0.61660  1.0000 0.1089452624
H   H147      1.0  0.49190  0.32060  0.11930  1.0000 0.1411503149
H   H148      1.0  0.49190  0.17940  0.61930  1.0000 0.1411503149
H   H149      1.0  0.40390  0.32980  0.03280  1.0000 0.1411503149
H   H150      1.0  0.40390  0.17020  0.53280  1.0000 0.1411503149
H   H151      1.0  0.40740  0.13340  0.03210  1.0000 0.1178317027
H   H152      1.0  0.40740  0.36660  0.53210  1.0000 0.1178317027
H   H153      1.0  0.36860  0.69100  0.04960  1.0000 0.1089452624
H   H154      1.0  0.36860  0.80900  0.54960  1.0000 0.1089452624
H   H155      1.0  0.36870  0.49860  0.04770  1.0000 0.1411503149
H   H156      1.0  0.36870  0.00140  0.54770  1.0000 0.1411503149
H   H157      1.0  0.52570  0.49890  0.10770  1.0000 0.1411503149
H   H158      1.0  0.52570  0.00110  0.60770  1.0000 0.1411503149
H   H159      1.0  0.52340  0.69070  0.10680  1.0000 0.1089452624
H   H160      1.0  0.52340  0.80930  0.60680  1.0000 0.1089452624
H   H161      1.0  0.24100  0.16630  0.18420  1.0000 0.1089452624
H   H162      1.0  0.24100  0.33370  0.68420  1.0000 0.1089452624
H   H163      1.0  0.19930  0.21820  0.13530  1.0000 0.1178317027
H   H164      1.0  0.19930  0.28180  0.63530  1.0000 0.1178317027
H   H165      1.0  0.36150  0.27350  0.12310  1.0000 0.1089452624
H   H166      1.0  0.36150  0.22650  0.62310  1.0000 0.1089452624
H   H167      1.0  0.40270  0.21590  0.17150  1.0000 0.1178317027
H   H168      1.0  0.40270  0.28410  0.67150  1.0000 0.1178317027
H   H169      1.0  0.12580  0.39420  0.04980  1.0000 0.1313237446
H   H170      1.0  0.12580  0.10580  0.54980  1.0000 0.1313237446
H   H171      1.0  0.17290  0.35650  0.09930  1.0000 0.1089452624
H   H172      1.0  0.17290  0.14350  0.59930  1.0000 0.1089452624
H   H173      1.0  0.31580  0.26750  0.07480  1.0000 0.1089452624
H   H174      1.0  0.31580  0.23250  0.57480  1.0000 0.1089452624
H   H175      1.0  0.27280  0.32940  0.02740  1.0000 0.1178317027
H   H176      1.0  0.27280  0.17060  0.52740  1.0000 0.1178317027
H   H177      1.0  0.59560  0.08520  0.36980  1.0000 0.1089452624
H   H178      1.0  0.59560  0.41480  0.86980  1.0000 0.1089452624
H   H179      1.0  0.69620  0.07090  0.39030  1.0000 0.1089452624
H   H180      1.0  0.69620  0.42910  0.89030  1.0000 0.1089452624
H   H181      1.0  0.72650  0.09170  0.30900  1.0000 0.1089452624
H   H182      1.0  0.72650  0.40830  0.80900  1.0000 0.1089452624
H   H183      1.0  0.62620  0.10700  0.28710  1.0000 0.1089452624
H   H184      1.0  0.62620  0.39300  0.78710  1.0000 0.1089452624
H   H185      1.0  0.91440  0.03900  0.35100  1.0000 0.1178317027
H   H186      1.0  0.91440  0.46100  0.85100  1.0000 0.1178317027
H   H187      1.0  0.81530  0.03140  0.32990  1.0000 0.1089452624
H   H188      1.0  0.81530  0.46860  0.82990  1.0000 0.1089452624
H   H189      1.0  0.78500  0.13220  0.40720  1.0000 0.1178317027
H   H190      1.0  0.78500  0.36780  0.90720  1.0000 0.1178317027
H   H191      1.0  0.88450  0.14100  0.42790  1.0000 0.1313237446
H   H192      1.0  0.88450  0.35900  0.92790  1.0000 0.1313237446
H   H193      1.0  0.41150  0.11650  0.34680  1.0000 0.1089452624
H   H194      1.0  0.41150  0.38350  0.84680  1.0000 0.1089452624
H   H195      1.0  0.35040  0.10610  0.37860  1.0000 0.1313237446
H   H196      1.0  0.35040  0.39390  0.87860  1.0000 0.1313237446
H   H197      1.0  0.21060  0.12110  0.30600  1.0000 0.1313237446
H   H198      1.0  0.21060  0.37890  0.80600  1.0000 0.1313237446
H   H199      1.0  0.27570  0.13550  0.27640  1.0000 0.1013633904
H   H200      1.0  0.27570  0.36450  0.77640  1.0000 0.1013633904
H   H201      1.0  0.22700  0.12440  0.43650  1.0000 0.1089452624
H   H202      1.0  0.22700  0.37560  0.93650  1.0000 0.1089452624
H   H203      1.0  0.29050  0.14280  0.40580  1.0000 0.1313237446
H   H204      1.0  0.29050  0.35720  0.90580  1.0000 0.1313237446
H   H205      1.0  0.16030  0.04640  0.33620  1.0000 0.1411503149
H   H206      1.0  0.16030  0.45360  0.83620  1.0000 0.1411503149
H   H207      1.0  0.09940  0.03780  0.36870  1.0000 0.1089452624
H   H208      1.0  0.09940  0.46220  0.86870  1.0000 0.1089452624
H   H209      1.0  0.50200  0.34700  0.29640  1.0000 0.1013633904
H   H210      1.0  0.50200  0.15300  0.79640  1.0000 0.1013633904
H   H211      1.0  0.50630  0.54050  0.29590  1.0000 0.1411503149
H   H212      1.0  0.50630  0.95950  0.79590  1.0000 0.1411503149
H   H213      1.0  0.32850  0.53920  0.26300  1.0000 0.1313237446
H   H214      1.0  0.32850  0.96080  0.76300  1.0000 0.1313237446
H   H215      1.0  0.33060  0.34680  0.26390  1.0000 0.1013633904
H   H216      1.0  0.33060  0.15320  0.76390  1.0000 0.1013633904
H   H217      1.0  0.33450  0.90690  0.28290  1.0000 0.1013633904
H   H218      1.0  0.33450  0.59310  0.78290  1.0000 0.1013633904
H   H219      1.0  0.33300  0.71380  0.28460  1.0000 0.1313237446
H   H220      1.0  0.33300  0.78620  0.78460  1.0000 0.1313237446
H   H221      1.0  0.49980  0.71340  0.27360  1.0000 0.1495589793
H   H222      1.0  0.49980  0.78660  0.77360  1.0000 0.1495589793
H   H223      1.0  0.49600  0.90590  0.27220  1.0000 0.1089452624
H   H224      1.0  0.49600  0.59410  0.77220  1.0000 0.1089452624
H   H225      1.0  0.06520  0.63790  0.89790  1.0000 0.1089452624
H   H226      1.0  0.06520  0.86210  0.39790  1.0000 0.1089452624
H   H227      1.0  0.06750  0.83220  0.89530  1.0000 0.1411503149
H   H228      1.0  0.06750  0.66780  0.39530  1.0000 0.1411503149
H   H229      1.0  0.14740  0.83430  0.98260  1.0000 0.1411503149
H   H230      1.0  0.14740  0.66570  0.48260  1.0000 0.1411503149
H   H231      1.0  0.14280  0.64260  0.98300  1.0000 0.1178317027
H   H232      1.0  0.14280  0.85740  0.48300  1.0000 0.1178317027
H   H233      1.0  0.17100  0.19830  0.96990  1.0000 0.1089452624
H   H234      1.0  0.17100  0.30170  0.46990  1.0000 0.1089452624
H   H235      1.0  0.17730  0.00760  0.96890  1.0000 0.1411503149
H   H236      1.0  0.17730  0.49240  0.46890  1.0000 0.1411503149
H   H237      1.0  0.03950  0.00500  0.90370  1.0000 0.1411503149
H   H238      1.0  0.03950  0.49500  0.40370  1.0000 0.1411503149
H   H239      1.0  0.03740  0.19750  0.90510  1.0000 0.1089452624
H   H240      1.0  0.03740  0.30250  0.40510  1.0000 0.1089452624
H   H241      1.0  0.75900  0.83370  0.81580  1.0000 0.1089452624
H   H242      1.0  0.75900  0.66630  0.31580  1.0000 0.1089452624
H   H243      1.0  0.80070  0.78180  0.86470  1.0000 0.1178317027
H   H244      1.0  0.80070  0.71820  0.36470  1.0000 0.1178317027
H   H245      1.0  0.63850  0.72650  0.87690  1.0000 0.1089452624
H   H246      1.0  0.63850  0.77350  0.37690  1.0000 0.1089452624
H   H247      1.0  0.59730  0.78410  0.82850  1.0000 0.1178317027
H   H248      1.0  0.59730  0.71590  0.32850  1.0000 0.1178317027
H   H249      1.0  0.87420  0.60580  0.95020  1.0000 0.1313237446
H   H250      1.0  0.87420  0.89420  0.45020  1.0000 0.1313237446
H   H251      1.0  0.82710  0.64350  0.90070  1.0000 0.1089452624
H   H252      1.0  0.82710  0.85650  0.40070  1.0000 0.1089452624
H   H253      1.0  0.68420  0.73250  0.92520  1.0000 0.1089452624
H   H254      1.0  0.68420  0.76750  0.42520  1.0000 0.1089452624
H   H255      1.0  0.72720  0.67060  0.97260  1.0000 0.1178317027
H   H256      1.0  0.72720  0.82940  0.47260  1.0000 0.1178317027
H   H257      1.0  0.40440  0.91480  0.63020  1.0000 0.1089452624
H   H258      1.0  0.40440  0.58520  0.13020  1.0000 0.1089452624
H   H259      1.0  0.30380  0.92910  0.60970  1.0000 0.1089452624
H   H260      1.0  0.30380  0.57090  0.10970  1.0000 0.1089452624
H   H261      1.0  0.27350  0.90830  0.69100  1.0000 0.1089452624
H   H262      1.0  0.27350  0.59170  0.19100  1.0000 0.1089452624
H   H263      1.0  0.37380  0.89300  0.71290  1.0000 0.1089452624
H   H264      1.0  0.37380  0.60700  0.21290  1.0000 0.1089452624
H   H265      1.0  0.08560  0.96100  0.64900  1.0000 0.1178317027
H   H266      1.0  0.08560  0.53900  0.14900  1.0000 0.1178317027
H   H267      1.0  0.18470  0.96860  0.67010  1.0000 0.1089452624
H   H268      1.0  0.18470  0.53140  0.17010  1.0000 0.1089452624
H   H269      1.0  0.21500  0.86780  0.59280  1.0000 0.1178317027
H   H270      1.0  0.21500  0.63220  0.09280  1.0000 0.1178317027
H   H271      1.0  0.11550  0.85900  0.57210  1.0000 0.1313237446
H   H272      1.0  0.11550  0.64100  0.07210  1.0000 0.1313237446
H   H273      1.0  0.58850  0.88350  0.65320  1.0000 0.1089452624
H   H274      1.0  0.58850  0.61650  0.15320  1.0000 0.1089452624
H   H275      1.0  0.64960  0.89390  0.62140  1.0000 0.1313237446
H   H276      1.0  0.64960  0.60610  0.12140  1.0000 0.1313237446
H   H277      1.0  0.78940  0.87890  0.69400  1.0000 0.1313237446
H   H278      1.0  0.78940  0.62110  0.19400  1.0000 0.1313237446
H   H279      1.0  0.72430  0.86450  0.72360  1.0000 0.1013633904
H   H280      1.0  0.72430  0.63550  0.22360  1.0000 0.1013633904
H   H281      1.0  0.77300  0.87560  0.56350  1.0000 0.1089452624
H   H282      1.0  0.77300  0.62440  0.06350  1.0000 0.1089452624
H   H283      1.0  0.70950  0.85720  0.59420  1.0000 0.1313237446
H   H284      1.0  0.70950  0.64280  0.09420  1.0000 0.1313237446
H   H285      1.0  0.83970  0.95360  0.66380  1.0000 0.1411503149
H   H286      1.0  0.83970  0.54640  0.16380  1.0000 0.1411503149
H   H287      1.0  0.90060  0.96220  0.63130  1.0000 0.1089452624
H   H288      1.0  0.90060  0.53780  0.13130  1.0000 0.1089452624
H   H289      1.0  0.49800  0.65300  0.70360  1.0000 0.1013633904
H   H290      1.0  0.49800  0.84700  0.20360  1.0000 0.1013633904
H   H291      1.0  0.49370  0.45950  0.70410  1.0000 0.1411503149
H   H292      1.0  0.49370  0.04050  0.20410  1.0000 0.1411503149
H   H293      1.0  0.67150  0.46080  0.73700  1.0000 0.1313237446
H   H294      1.0  0.67150  0.03920  0.23700  1.0000 0.1313237446
H   H295      1.0  0.66940  0.65320  0.73610  1.0000 0.1013633904
H   H296      1.0  0.66940  0.84680  0.23610  1.0000 0.1013633904
H   H297      1.0  0.66550  0.09310  0.71710  1.0000 0.1013633904
H   H298      1.0  0.66550  0.40690  0.21710  1.0000 0.1013633904
H   H299      1.0  0.66700  0.28620  0.71540  1.0000 0.1313237446
H   H300      1.0  0.66700  0.21380  0.21540  1.0000 0.1313237446
H   H301      1.0  0.50020  0.28660  0.72640  1.0000 0.1495589793
H   H302      1.0  0.50020  0.21340  0.22640  1.0000 0.1495589793
H   H303      1.0  0.50400  0.09410  0.72780  1.0000 0.1089452624
H   H304      1.0  0.50400  0.40590  0.22780  1.0000 0.1089452624
H   H305      1.0  0.93480  0.36210  0.10210  1.0000 0.1089452624
H   H306      1.0  0.93480  0.13790  0.60210  1.0000 0.1089452624
H   H307      1.0  0.93250  0.16780  0.10470  1.0000 0.1411503149
H   H308      1.0  0.93250  0.33220  0.60470  1.0000 0.1411503149
H   H309      1.0  0.85260  0.16570  0.01740  1.0000 0.1411503149
H   H310      1.0  0.85260  0.33430  0.51740  1.0000 0.1411503149
H   H311      1.0  0.85720  0.35740  0.01700  1.0000 0.1178317027
H   H312      1.0  0.85720  0.14260  0.51700  1.0000 0.1178317027
H   H313      1.0  0.82900  0.80170  0.03010  1.0000 0.1089452624
H   H314      1.0  0.82900  0.69830  0.53010  1.0000 0.1089452624
H   H315      1.0  0.82270  0.99240  0.03110  1.0000 0.1411503149
H   H316      1.0  0.82270  0.50760  0.53110  1.0000 0.1411503149
H   H317      1.0  0.96050  0.99500  0.09630  1.0000 0.1411503149
H   H318      1.0  0.96050  0.50500  0.59630  1.0000 0.1411503149
H   H319      1.0  0.96260  0.80250  0.09490  1.0000 0.1089452624
H   H320      1.0  0.96260  0.69750  0.59490  1.0000 0.1089452624
C   C1        1.0  0.77779  0.30090  0.17185  1.0000 -0.0304001577
C   C2        1.0  0.77779  0.19910  0.67185  1.0000 -0.0304001577
C   C3        1.0  0.81053  0.25920  0.15255  1.0000 -0.1102777068
C   C4        1.0  0.81053  0.24080  0.65255  1.0000 -0.1102777068
C   C5        1.0  0.78220  0.23160  0.12253  1.0000 -0.159643051
C   C6        1.0  0.78220  0.26840  0.62253  1.0000 -0.159643051
C   C7        1.0  0.72139  0.24350  0.11173  1.0000 0.0800898496
C   C8        1.0  0.72139  0.25650  0.61173  1.0000 0.0800898496
C   C9        1.0  0.68948  0.28590  0.13063  1.0000 -0.151555755
C   C10       1.0  0.68948  0.21410  0.63063  1.0000 -0.151555755
C   C11       1.0  0.71729  0.31320  0.16038  1.0000 -0.1212867304
C   C12       1.0  0.71729  0.18680  0.66038  1.0000 -0.1212867304
C   C13       1.0  0.63700  0.14780  0.01923  1.0000 -0.0195960414
C   C14       1.0  0.63700  0.35220  0.51923  1.0000 -0.0195960414
C   C15       1.0  0.69500  0.18980  0.02674  1.0000 -0.1212867304
C   C16       1.0  0.69500  0.31020  0.52674  1.0000 -0.1212867304
C   C17       1.0  0.72180  0.22080  0.05665  1.0000 -0.159643051
C   C18       1.0  0.72180  0.27920  0.55665  1.0000 -0.159643051
C   C19       1.0  0.69220  0.21230  0.07932  1.0000 0.0704310743
C   C20       1.0  0.69220  0.28770  0.57932  1.0000 0.0704310743
C   C21       1.0  0.63436  0.17130  0.07116  1.0000 -0.1401577301
C   C22       1.0  0.63436  0.32870  0.57116  1.0000 -0.1401577301
C   C23       1.0  0.60690  0.13740  0.04158  1.0000 -0.0884974867
C   C24       1.0  0.60690  0.36260  0.54158  1.0000 -0.0884974867
C   C25       1.0  0.80710  0.33070  0.20409  1.0000 0.5290960327
C   C26       1.0  0.80710  0.16930  0.70409  1.0000 0.5290960327
C   C27       1.0  0.60930  0.11700  0.98670  1.0000 0.5290960327
C   C28       1.0  0.60930  0.38300  0.48670  1.0000 0.5290960327
C   C29       1.0  0.05322  0.40330  0.31352  1.0000 -0.0081736051
C   C30       1.0  0.05322  0.09670  0.81352  1.0000 -0.0081736051
C   C31       1.0  0.08870  0.47080  0.30063  1.0000 -0.1102777068
C   C32       1.0  0.08870  0.02920  0.80063  1.0000 -0.1102777068
C   C33       1.0  0.14960  0.48440  0.31516  1.0000 -0.151555755
C   C34       1.0  0.14960  0.01560  0.81516  1.0000 -0.151555755
C   C35       1.0  0.17490  0.42570  0.34138  1.0000 0.0704310743
C   C36       1.0  0.17490  0.07430  0.84138  1.0000 0.0704310743
C   C37       1.0  0.13920  0.35470  0.35282  1.0000 -0.151555755
C   C38       1.0  0.13920  0.14530  0.85282  1.0000 -0.151555755
C   C39       1.0  0.07890  0.34650  0.33955  1.0000 -0.1212867304
C   C40       1.0  0.07890  0.15350  0.83955  1.0000 -0.1212867304
C   C41       1.0  0.36359  0.42430  0.38012  1.0000 -0.0195960414
C   C42       1.0  0.36359  0.07570  0.88012  1.0000 -0.0195960414
C   C43       1.0  0.34221  0.43820  0.34936  1.0000 -0.1102777068
C   C44       1.0  0.34221  0.06180  0.84936  1.0000 -0.1102777068
C   C45       1.0  0.27974  0.44180  0.33685  1.0000 -0.159643051
C   C46       1.0  0.27974  0.05820  0.83685  1.0000 -0.159643051
C   C47       1.0  0.24126  0.42840  0.35454  1.0000 0.0704310743
C   C48       1.0  0.24126  0.07160  0.85454  1.0000 0.0704310743
C   C49       1.0  0.26499  0.41460  0.38576  1.0000 -0.151555755
C   C50       1.0  0.26499  0.08540  0.88576  1.0000 -0.151555755
C   C51       1.0  0.32491  0.41140  0.39812  1.0000 -0.1026020157
C   C52       1.0  0.32491  0.08860  0.89812  1.0000 -0.1026020157
C   C53       1.0  0.98737  0.38970  0.29851  1.0000 0.5128831819
C   C54       1.0  0.98737  0.11030  0.79851  1.0000 0.5128831819
C   C55       1.0  0.42978  0.41740  0.39335  1.0000 0.5290960327
C   C56       1.0  0.42978  0.08260  0.89335  1.0000 0.5290960327
C   C57       1.0  0.74826  0.38270  0.28545  1.0000 0.0614340265
C   C58       1.0  0.74826  0.11730  0.78545  1.0000 0.0614340265
C   C59       1.0  0.70989  0.39010  0.30354  1.0000 -0.188893427
C   C60       1.0  0.70989  0.10990  0.80354  1.0000 -0.188893427
C   C61       1.0  0.73052  0.39090  0.33516  1.0000 0.1089452624
C   C62       1.0  0.73052  0.10910  0.83516  1.0000 0.1089452624
C   C63       1.0  0.79043  0.37920  0.34608  1.0000 -0.188893427
C   C64       1.0  0.79043  0.12080  0.84608  1.0000 -0.188893427
C   C65       1.0  0.82702  0.36810  0.32652  1.0000 0.0800898496
C   C66       1.0  0.82702  0.13190  0.82652  1.0000 0.0800898496
C   C67       1.0  0.59306  0.39390  0.36474  1.0000 0.0800898496
C   C68       1.0  0.59306  0.10610  0.86474  1.0000 0.0800898496
C   C69       1.0  0.62878  0.38700  0.34504  1.0000 -0.200656685
C   C70       1.0  0.62878  0.11300  0.84504  1.0000 -0.200656685
C   C71       1.0  0.68887  0.40220  0.35510  1.0000 0.1089452624
C   C72       1.0  0.68887  0.09780  0.85510  1.0000 0.1089452624
C   C73       1.0  0.70897  0.42830  0.38530  1.0000 -0.200656685
C   C74       1.0  0.70897  0.07170  0.88530  1.0000 -0.200656685
C   C75       1.0  0.66997  0.43460  0.40387  1.0000 0.0704310743
C   C76       1.0  0.66997  0.06540  0.90387  1.0000 0.0704310743
C   C77       1.0  0.91440  0.63020  0.25671  1.0000 0.0800898496
C   C78       1.0  0.91440  0.86980  0.75671  1.0000 0.0800898496
C   C79       1.0  0.91700  0.74650  0.25879  1.0000 -0.1821582175
C   C80       1.0  0.91700  0.75350  0.75879  1.0000 -0.1821582175
C   C81       1.0  0.87083  0.80460  0.26621  1.0000 0.1013633904
C   C82       1.0  0.87083  0.69540  0.76621  1.0000 0.1013633904
C   C83       1.0  0.82525  0.74270  0.27156  1.0000 -0.188893427
C   C84       1.0  0.82525  0.75730  0.77156  1.0000 -0.188893427
C   C85       1.0  0.82572  0.62670  0.26938  1.0000 0.0704310743
C   C86       1.0  0.82572  0.87330  0.76938  1.0000 0.0704310743
C   C87       1.0  0.92180  0.10830  0.27901  1.0000 0.0884803406
C   C88       1.0  0.92180  0.39170  0.77901  1.0000 0.0884803406
C   C89       1.0  0.92420  0.99210  0.27886  1.0000 -0.200656685
C   C90       1.0  0.92420  0.50790  0.77886  1.0000 -0.200656685
C   C91       1.0  0.87187  0.93120  0.26809  1.0000 0.1089452624
C   C92       1.0  0.87187  0.56880  0.76809  1.0000 0.1089452624
C   C93       1.0  0.82043  0.99290  0.25970  1.0000 -0.2094719507
C   C94       1.0  0.82043  0.50710  0.75970  1.0000 -0.2094719507
C   C95       1.0  0.82250  0.10820  0.26062  1.0000 0.0416731529
C   C96       1.0  0.82250  0.39180  0.76062  1.0000 0.0416731529
C   C97       1.0  0.52310  0.83090  0.90057  1.0000 0.0614340265
C   C98       1.0  0.52310  0.66910  0.40057  1.0000 0.0614340265
C   C99       1.0  0.52470  0.71520  0.89912  1.0000 -0.200656685
C   C100      1.0  0.52470  0.78480  0.39912  1.0000 -0.200656685
C   C101      1.0  0.54967  0.65100  0.92384  1.0000 0.1013633904
C   C102      1.0  0.54967  0.84900  0.42384  1.0000 0.1013633904
C   C103      1.0  0.57670  0.70940  0.94983  1.0000 -0.200656685
C   C104      1.0  0.57670  0.79060  0.44983  1.0000 -0.200656685
C   C105      1.0  0.57490  0.82830  0.95003  1.0000 0.1013633904
C   C106      1.0  0.57490  0.67170  0.45003  1.0000 0.1013633904
C   C107      1.0  0.59830  0.34790  0.93922  1.0000 0.0800898496
C   C108      1.0  0.59830  0.15210  0.43922  1.0000 0.0800898496
C   C109      1.0  0.59870  0.46370  0.94017  1.0000 -0.200656685
C   C110      1.0  0.59870  0.03630  0.44017  1.0000 -0.200656685
C   C111      1.0  0.55103  0.52530  0.92327  1.0000 0.1089452624
C   C112      1.0  0.55103  0.97470  0.42327  1.0000 0.1089452624
C   C113      1.0  0.50630  0.46410  0.90512  1.0000 -0.188893427
C   C114      1.0  0.50630  0.03590  0.40512  1.0000 -0.188893427
C   C115      1.0  0.50820  0.34850  0.90566  1.0000 0.0800898496
C   C116      1.0  0.50820  0.15150  0.40566  1.0000 0.0800898496
C   C117      1.0  0.22221  0.69910  0.82815  1.0000 -0.0304001577
C   C118      1.0  0.22221  0.80090  0.32815  1.0000 -0.0304001577
C   C119      1.0  0.18947  0.74080  0.84745  1.0000 -0.1102777068
C   C120      1.0  0.18947  0.75920  0.34745  1.0000 -0.1102777068
C   C121      1.0  0.21780  0.76840  0.87747  1.0000 -0.159643051
C   C122      1.0  0.21780  0.73160  0.37747  1.0000 -0.159643051
C   C123      1.0  0.27861  0.75650  0.88827  1.0000 0.0800898496
C   C124      1.0  0.27861  0.74350  0.38827  1.0000 0.0800898496
C   C125      1.0  0.31052  0.71410  0.86937  1.0000 -0.151555755
C   C126      1.0  0.31052  0.78590  0.36937  1.0000 -0.151555755
C   C127      1.0  0.28271  0.68680  0.83962  1.0000 -0.1212867304
C   C128      1.0  0.28271  0.81320  0.33962  1.0000 -0.1212867304
C   C129      1.0  0.36300  0.85220  0.98077  1.0000 -0.0195960414
C   C130      1.0  0.36300  0.64780  0.48077  1.0000 -0.0195960414
C   C131      1.0  0.30500  0.81020  0.97326  1.0000 -0.1212867304
C   C132      1.0  0.30500  0.68980  0.47326  1.0000 -0.1212867304
C   C133      1.0  0.27820  0.77920  0.94335  1.0000 -0.159643051
C   C134      1.0  0.27820  0.72080  0.44335  1.0000 -0.159643051
C   C135      1.0  0.30780  0.78770  0.92068  1.0000 0.0704310743
C   C136      1.0  0.30780  0.71230  0.42068  1.0000 0.0704310743
C   C137      1.0  0.36564  0.82870  0.92884  1.0000 -0.1401577301
C   C138      1.0  0.36564  0.67130  0.42884  1.0000 -0.1401577301
C   C139      1.0  0.39310  0.86260  0.95842  1.0000 -0.0884974867
C   C140      1.0  0.39310  0.63740  0.45842  1.0000 -0.0884974867
C   C141      1.0  0.19290  0.66930  0.79591  1.0000 0.5290960327
C   C142      1.0  0.19290  0.83070  0.29591  1.0000 0.5290960327
C   C143      1.0  0.39070  0.88300  0.01330  1.0000 0.5290960327
C   C144      1.0  0.39070  0.61700  0.51330  1.0000 0.5290960327
C   C145      1.0  0.94678  0.59670  0.68648  1.0000 -0.0081736051
C   C146      1.0  0.94678  0.90330  0.18648  1.0000 -0.0081736051
C   C147      1.0  0.91130  0.52920  0.69937  1.0000 -0.1102777068
C   C148      1.0  0.91130  0.97080  0.19937  1.0000 -0.1102777068
C   C149      1.0  0.85040  0.51560  0.68484  1.0000 -0.151555755
C   C150      1.0  0.85040  0.98440  0.18484  1.0000 -0.151555755
C   C151      1.0  0.82510  0.57430  0.65862  1.0000 0.0704310743
C   C152      1.0  0.82510  0.92570  0.15862  1.0000 0.0704310743
C   C153      1.0  0.86080  0.64530  0.64718  1.0000 -0.151555755
C   C154      1.0  0.86080  0.85470  0.14718  1.0000 -0.151555755
C   C155      1.0  0.92110  0.65350  0.66045  1.0000 -0.1212867304
C   C156      1.0  0.92110  0.84650  0.16045  1.0000 -0.1212867304
C   C157      1.0  0.63641  0.57570  0.61988  1.0000 -0.0195960414
C   C158      1.0  0.63641  0.92430  0.11988  1.0000 -0.0195960414
C   C159      1.0  0.65779  0.56180  0.65064  1.0000 -0.1102777068
C   C160      1.0  0.65779  0.93820  0.15064  1.0000 -0.1102777068
C   C161      1.0  0.72026  0.55820  0.66315  1.0000 -0.159643051
C   C162      1.0  0.72026  0.94180  0.16315  1.0000 -0.159643051
C   C163      1.0  0.75874  0.57160  0.64546  1.0000 0.0704310743
C   C164      1.0  0.75874  0.92840  0.14546  1.0000 0.0704310743
C   C165      1.0  0.73501  0.58540  0.61424  1.0000 -0.151555755
C   C166      1.0  0.73501  0.91460  0.11424  1.0000 -0.151555755
C   C167      1.0  0.67509  0.58860  0.60188  1.0000 -0.1026020157
C   C168      1.0  0.67509  0.91140  0.10188  1.0000 -0.1026020157
C   C169      1.0  0.01263  0.61030  0.70149  1.0000 0.5128831819
C   C170      1.0  0.01263  0.88970  0.20149  1.0000 0.5128831819
C   C171      1.0  0.57022  0.58260  0.60665  1.0000 0.5290960327
C   C172      1.0  0.57022  0.91740  0.10665  1.0000 0.5290960327
C   C173      1.0  0.25174  0.61730  0.71455  1.0000 0.0614340265
C   C174      1.0  0.25174  0.88270  0.21455  1.0000 0.0614340265
C   C175      1.0  0.29011  0.60990  0.69646  1.0000 -0.188893427
C   C176      1.0  0.29011  0.89010  0.19646  1.0000 -0.188893427
C   C177      1.0  0.26948  0.60910  0.66484  1.0000 0.1089452624
C   C178      1.0  0.26948  0.89090  0.16484  1.0000 0.1089452624
C   C179      1.0  0.20957  0.62080  0.65392  1.0000 -0.188893427
C   C180      1.0  0.20957  0.87920  0.15392  1.0000 -0.188893427
C   C181      1.0  0.17298  0.63190  0.67348  1.0000 0.0800898496
C   C182      1.0  0.17298  0.86810  0.17348  1.0000 0.0800898496
C   C183      1.0  0.40694  0.60610  0.63526  1.0000 0.0800898496
C   C184      1.0  0.40694  0.89390  0.13526  1.0000 0.0800898496
C   C185      1.0  0.37122  0.61300  0.65496  1.0000 -0.200656685
C   C186      1.0  0.37122  0.88700  0.15496  1.0000 -0.200656685
C   C187      1.0  0.31113  0.59780  0.64490  1.0000 0.1089452624
C   C188      1.0  0.31113  0.90220  0.14490  1.0000 0.1089452624
C   C189      1.0  0.29103  0.57170  0.61470  1.0000 -0.200656685
C   C190      1.0  0.29103  0.92830  0.11470  1.0000 -0.200656685
C   C191      1.0  0.33003  0.56540  0.59613  1.0000 0.0704310743
C   C192      1.0  0.33003  0.93460  0.09613  1.0000 0.0704310743
C   C193      1.0  0.08560  0.36980  0.74329  1.0000 0.0800898496
C   C194      1.0  0.08560  0.13020  0.24329  1.0000 0.0800898496
C   C195      1.0  0.08300  0.25350  0.74121  1.0000 -0.1821582175
C   C196      1.0  0.08300  0.24650  0.24121  1.0000 -0.1821582175
C   C197      1.0  0.12917  0.19540  0.73379  1.0000 0.1013633904
C   C198      1.0  0.12917  0.30460  0.23379  1.0000 0.1013633904
C   C199      1.0  0.17475  0.25730  0.72844  1.0000 -0.188893427
C   C200      1.0  0.17475  0.24270  0.22844  1.0000 -0.188893427
C   C201      1.0  0.17428  0.37330  0.73062  1.0000 0.0704310743
C   C202      1.0  0.17428  0.12670  0.23062  1.0000 0.0704310743
C   C203      1.0  0.07820  0.89170  0.72099  1.0000 0.0884803406
C   C204      1.0  0.07820  0.60830  0.22099  1.0000 0.0884803406
C   C205      1.0  0.07580  0.00790  0.72114  1.0000 -0.200656685
C   C206      1.0  0.07580  0.49210  0.22114  1.0000 -0.200656685
C   C207      1.0  0.12813  0.06880  0.73191  1.0000 0.1089452624
C   C208      1.0  0.12813  0.43120  0.23191  1.0000 0.1089452624
C   C209      1.0  0.17957  0.00710  0.74030  1.0000 -0.2094719507
C   C210      1.0  0.17957  0.49290  0.24030  1.0000 -0.2094719507
C   C211      1.0  0.17750  0.89180  0.73938  1.0000 0.0416731529
C   C212      1.0  0.17750  0.60820  0.23938  1.0000 0.0416731529
C   C213      1.0  0.47690  0.16910  0.09943  1.0000 0.0614340265
C   C214      1.0  0.47690  0.33090  0.59943  1.0000 0.0614340265
C   C215      1.0  0.47530  0.28480  0.10088  1.0000 -0.200656685
C   C216      1.0  0.47530  0.21520  0.60088  1.0000 -0.200656685
C   C217      1.0  0.45033  0.34900  0.07616  1.0000 0.1013633904
C   C218      1.0  0.45033  0.15100  0.57616  1.0000 0.1013633904
C   C219      1.0  0.42330  0.29060  0.05017  1.0000 -0.200656685
C   C220      1.0  0.42330  0.20940  0.55017  1.0000 -0.200656685
C   C221      1.0  0.42510  0.17170  0.04997  1.0000 0.1013633904
C   C222      1.0  0.42510  0.32830  0.54997  1.0000 0.1013633904
C   C223      1.0  0.40170  0.65210  0.06078  1.0000 0.0800898496
C   C224      1.0  0.40170  0.84790  0.56078  1.0000 0.0800898496
C   C225      1.0  0.40130  0.53630  0.05983  1.0000 -0.200656685
C   C226      1.0  0.40130  0.96370  0.55983  1.0000 -0.200656685
C   C227      1.0  0.44897  0.47470  0.07673  1.0000 0.1089452624
C   C228      1.0  0.44897  0.02530  0.57673  1.0000 0.1089452624
C   C229      1.0  0.49370  0.53590  0.09488  1.0000 -0.188893427
C   C230      1.0  0.49370  0.96410  0.59488  1.0000 -0.188893427
C   C231      1.0  0.49180  0.65150  0.09434  1.0000 0.0800898496
C   C232      1.0  0.49180  0.84850  0.59434  1.0000 0.0800898496
C   C233      1.0  0.32673  0.18790  0.18379  1.0000 -0.0304001577
C   C234      1.0  0.32673  0.31210  0.68379  1.0000 -0.0304001577
C   C235      1.0  0.26551  0.18800  0.17190  1.0000 -0.1212867304
C   C236      1.0  0.26551  0.31200  0.67190  1.0000 -0.1212867304
C   C237      1.0  0.24043  0.21920  0.14251  1.0000 -0.151555755
C   C238      1.0  0.24043  0.28080  0.64251  1.0000 -0.151555755
C   C239      1.0  0.27505  0.25210  0.12335  1.0000 0.0800898496
C   C240      1.0  0.27505  0.24790  0.62335  1.0000 0.0800898496
C   C241      1.0  0.33682  0.25110  0.13533  1.0000 -0.151555755
C   C242      1.0  0.33682  0.24890  0.63533  1.0000 -0.151555755
C   C243      1.0  0.36149  0.21810  0.16445  1.0000 -0.1026020157
C   C244      1.0  0.36149  0.28190  0.66445  1.0000 -0.1026020157
C   C245      1.0  0.19373  0.36060  0.03224  1.0000 -0.0042569734
C   C246      1.0  0.19373  0.13940  0.53224  1.0000 -0.0042569734
C   C247      1.0  0.16500  0.36900  0.05457  1.0000 -0.1102777068
C   C248      1.0  0.16500  0.13100  0.55457  1.0000 -0.1102777068
C   C249      1.0  0.19230  0.34110  0.08419  1.0000 -0.159643051
C   C250      1.0  0.19230  0.15890  0.58419  1.0000 -0.159643051
C   C251      1.0  0.24794  0.29070  0.09201  1.0000 0.0704310743
C   C252      1.0  0.24794  0.20930  0.59201  1.0000 0.0704310743
C   C253      1.0  0.27640  0.29180  0.07038  1.0000 -0.159643051
C   C254      1.0  0.27640  0.20820  0.57038  1.0000 -0.159643051
C   C255      1.0  0.24980  0.32790  0.04146  1.0000 -0.1325343594
C   C256      1.0  0.24980  0.17210  0.54146  1.0000 -0.1325343594
C   C257      1.0  0.35361  0.15490  0.21625  1.0000 0.5290960327
C   C258      1.0  0.35361  0.34510  0.71625  1.0000 0.5290960327
C   C259      1.0  0.16340  0.39630  0.00021  1.0000 0.5290960327
C   C260      1.0  0.16340  0.10370  0.50021  1.0000 0.5290960327
C   C261      1.0  0.59966  0.09360  0.32589  1.0000 -0.0304001577
C   C262      1.0  0.59966  0.40640  0.82589  1.0000 -0.0304001577
C   C263      1.0  0.62158  0.08570  0.35718  1.0000 -0.1102777068
C   C264      1.0  0.62158  0.41430  0.85718  1.0000 -0.1102777068
C   C265      1.0  0.68224  0.07860  0.36938  1.0000 -0.159643051
C   C266      1.0  0.68224  0.42140  0.86938  1.0000 -0.159643051
C   C267      1.0  0.72320  0.08230  0.35193  1.0000 0.0704310743
C   C268      1.0  0.72320  0.41770  0.85193  1.0000 0.0704310743
C   C269      1.0  0.70032  0.09090  0.32145  1.0000 -0.159643051
C   C270      1.0  0.70032  0.40910  0.82145  1.0000 -0.159643051
C   C271      1.0  0.63972  0.09860  0.30799  1.0000 -0.1102777068
C   C272      1.0  0.63972  0.40140  0.80799  1.0000 -0.1102777068
C   C273      1.0  0.91083  0.07950  0.39289  1.0000 -0.0081736051
C   C274      1.0  0.91083  0.42050  0.89289  1.0000 -0.0081736051
C   C275      1.0  0.88831  0.05480  0.36301  1.0000 -0.1212867304
C   C276      1.0  0.88831  0.44520  0.86301  1.0000 -0.1212867304
C   C277      1.0  0.82870  0.05240  0.35018  1.0000 -0.159643051
C   C278      1.0  0.82870  0.44760  0.85018  1.0000 -0.159643051
C   C279      1.0  0.78842  0.07970  0.36593  1.0000 0.0704310743
C   C280      1.0  0.78842  0.42030  0.86593  1.0000 0.0704310743
C   C281      1.0  0.81100  0.11180  0.39550  1.0000 -0.159643051
C   C282      1.0  0.81100  0.38820  0.89550  1.0000 -0.159643051
C   C283      1.0  0.87070  0.11440  0.40817  1.0000 -0.1026020157
C   C284      1.0  0.87070  0.38560  0.90817  1.0000 -0.1026020157
C   C285      1.0  0.53454  0.10730  0.31148  1.0000 0.5290960327
C   C286      1.0  0.53454  0.39270  0.81148  1.0000 0.5290960327
C   C287      1.0  0.97770  0.07630  0.40715  1.0000 0.5208440975
C   C288      1.0  0.97770  0.42370  0.90715  1.0000 0.5208440975
C   C289      1.0  0.37054  0.11830  0.33856  1.0000 0.0704310743
C   C290      1.0  0.37054  0.38170  0.83856  1.0000 0.0704310743
C   C291      1.0  0.33404  0.11120  0.35776  1.0000 -0.188893427
C   C292      1.0  0.33404  0.38880  0.85776  1.0000 -0.188893427
C   C293      1.0  0.27280  0.11150  0.34656  1.0000 0.1178317027
C   C294      1.0  0.27280  0.38850  0.84656  1.0000 0.1178317027
C   C295      1.0  0.25133  0.12070  0.31485  1.0000 -0.1821582175
C   C296      1.0  0.25133  0.37930  0.81485  1.0000 -0.1821582175
C   C297      1.0  0.29077  0.12880  0.29731  1.0000 0.0704310743
C   C298      1.0  0.29077  0.37120  0.79731  1.0000 0.0704310743
C   C299      1.0  0.21264  0.10980  0.41586  1.0000 0.0800898496
C   C300      1.0  0.21264  0.39020  0.91586  1.0000 0.0800898496
C   C301      1.0  0.25140  0.12050  0.39742  1.0000 -0.200656685
C   C302      1.0  0.25140  0.37950  0.89742  1.0000 -0.200656685
C   C303      1.0  0.23307  0.09890  0.36724  1.0000 0.1013633904
C   C304      1.0  0.23307  0.40110  0.86724  1.0000 0.1013633904
C   C305      1.0  0.17509  0.06490  0.35655  1.0000 -0.188893427
C   C306      1.0  0.17509  0.43510  0.85655  1.0000 -0.188893427
C   C307      1.0  0.13891  0.05860  0.37645  1.0000 0.0614340265
C   C308      1.0  0.13891  0.44140  0.87645  1.0000 0.0614340265
C   C309      1.0  0.46681  0.38690  0.28911  1.0000 0.0800898496
C   C310      1.0  0.46681  0.11310  0.78911  1.0000 0.0800898496
C   C311      1.0  0.46997  0.50360  0.28946  1.0000 -0.1821582175
C   C312      1.0  0.46997  0.99640  0.78946  1.0000 -0.1821582175
C   C313      1.0  0.41715  0.56450  0.27985  1.0000 0.1178317027
C   C314      1.0  0.41715  0.93550  0.77985  1.0000 0.1178317027
C   C315      1.0  0.36462  0.50190  0.26984  1.0000 -0.200656685
C   C316      1.0  0.36462  0.99810  0.76984  1.0000 -0.200656685
C   C317      1.0  0.36624  0.38630  0.27016  1.0000 0.0704310743
C   C318      1.0  0.36624  0.11370  0.77016  1.0000 0.0704310743
C   C319      1.0  0.36802  0.86720  0.28101  1.0000 0.0614340265
C   C320      1.0  0.36802  0.63280  0.78101  1.0000 0.0614340265
C   C321      1.0  0.36674  0.75110  0.28210  1.0000 -0.200656685
C   C322      1.0  0.36674  0.74890  0.78210  1.0000 -0.200656685
C   C323      1.0  0.41682  0.68920  0.27939  1.0000 0.1089452624
C   C324      1.0  0.41682  0.81080  0.77939  1.0000 0.1089452624
C   C325      1.0  0.46570  0.75070  0.27555  1.0000 -0.1727078899
C   C326      1.0  0.46570  0.74930  0.77555  1.0000 -0.1727078899
C   C327      1.0  0.46289  0.86640  0.27472  1.0000 0.0800898496
C   C328      1.0  0.46289  0.63360  0.77472  1.0000 0.0800898496
C   C329      1.0  0.08140  0.67820  0.91563  1.0000 0.0800898496
C   C330      1.0  0.08140  0.82180  0.41563  1.0000 0.0800898496
C   C331      1.0  0.08190  0.79590  0.91382  1.0000 -0.2094719507
C   C332      1.0  0.08190  0.70410  0.41382  1.0000 -0.2094719507
C   C333      1.0  0.10370  0.85750  0.93972  1.0000 0.1089452624
C   C334      1.0  0.10370  0.64250  0.43972  1.0000 0.1089452624
C   C335      1.0  0.12850  0.79650  0.96484  1.0000 -0.200656685
C   C336      1.0  0.12850  0.70350  0.46484  1.0000 -0.200656685
C   C337      1.0  0.12640  0.68060  0.96495  1.0000 0.0800898496
C   C338      1.0  0.12640  0.81940  0.46495  1.0000 0.0800898496
C   C339      1.0  0.14070  0.15980  0.95630  1.0000 0.0884803406
C   C340      1.0  0.14070  0.34020  0.45630  1.0000 0.0884803406
C   C341      1.0  0.14440  0.04250  0.95630  1.0000 -0.200656685
C   C342      1.0  0.14440  0.45750  0.45630  1.0000 -0.200656685
C   C343      1.0  0.10500  0.98180  0.93975  1.0000 0.1013633904
C   C344      1.0  0.10500  0.51820  0.43975  1.0000 0.1013633904
C   C345      1.0  0.06660  0.04240  0.91920  1.0000 -0.2203956272
C   C346      1.0  0.06660  0.45760  0.41920  1.0000 -0.2203956272
C   C347      1.0  0.06560  0.16010  0.92006  1.0000 0.1013633904
C   C348      1.0  0.06560  0.33990  0.42006  1.0000 0.1013633904
C   C349      1.0  0.67327  0.81210  0.81621  1.0000 -0.0304001577
C   C350      1.0  0.67327  0.68790  0.31621  1.0000 -0.0304001577
C   C351      1.0  0.73449  0.81200  0.82810  1.0000 -0.1212867304
C   C352      1.0  0.73449  0.68800  0.32810  1.0000 -0.1212867304
C   C353      1.0  0.75957  0.78080  0.85749  1.0000 -0.151555755
C   C354      1.0  0.75957  0.71920  0.35749  1.0000 -0.151555755
C   C355      1.0  0.72495  0.74790  0.87665  1.0000 0.0800898496
C   C356      1.0  0.72495  0.75210  0.37665  1.0000 0.0800898496
C   C357      1.0  0.66318  0.74890  0.86467  1.0000 -0.151555755
C   C358      1.0  0.66318  0.75110  0.36467  1.0000 -0.151555755
C   C359      1.0  0.63851  0.78190  0.83555  1.0000 -0.1026020157
C   C360      1.0  0.63851  0.71810  0.33555  1.0000 -0.1026020157
C   C361      1.0  0.80627  0.63940  0.96776  1.0000 -0.0042569734
C   C362      1.0  0.80627  0.86060  0.46776  1.0000 -0.0042569734
C   C363      1.0  0.83500  0.63100  0.94543  1.0000 -0.1102777068
C   C364      1.0  0.83500  0.86900  0.44543  1.0000 -0.1102777068
C   C365      1.0  0.80770  0.65890  0.91581  1.0000 -0.159643051
C   C366      1.0  0.80770  0.84110  0.41581  1.0000 -0.159643051
C   C367      1.0  0.75206  0.70930  0.90799  1.0000 0.0704310743
C   C368      1.0  0.75206  0.79070  0.40799  1.0000 0.0704310743
C   C369      1.0  0.72360  0.70820  0.92962  1.0000 -0.159643051
C   C370      1.0  0.72360  0.79180  0.42962  1.0000 -0.159643051
C   C371      1.0  0.75020  0.67210  0.95854  1.0000 -0.1325343594
C   C372      1.0  0.75020  0.82790  0.45854  1.0000 -0.1325343594
C   C373      1.0  0.64639  0.84510  0.78375  1.0000 0.5290960327
C   C374      1.0  0.64639  0.65490  0.28375  1.0000 0.5290960327
C   C375      1.0  0.83660  0.60370  0.99979  1.0000 0.5290960327
C   C376      1.0  0.83660  0.89630  0.49979  1.0000 0.5290960327
C   C377      1.0  0.40034  0.90640  0.67411  1.0000 -0.0304001577
C   C378      1.0  0.40034  0.59360  0.17411  1.0000 -0.0304001577
C   C379      1.0  0.37842  0.91430  0.64282  1.0000 -0.1102777068
C   C380      1.0  0.37842  0.58570  0.14282  1.0000 -0.1102777068
C   C381      1.0  0.31776  0.92140  0.63062  1.0000 -0.159643051
C   C382      1.0  0.31776  0.57860  0.13062  1.0000 -0.159643051
C   C383      1.0  0.27680  0.91770  0.64807  1.0000 0.0704310743
C   C384      1.0  0.27680  0.58230  0.14807  1.0000 0.0704310743
C   C385      1.0  0.29968  0.90910  0.67855  1.0000 -0.159643051
C   C386      1.0  0.29968  0.59090  0.17855  1.0000 -0.159643051
C   C387      1.0  0.36028  0.90140  0.69201  1.0000 -0.1102777068
C   C388      1.0  0.36028  0.59860  0.19201  1.0000 -0.1102777068
C   C389      1.0  0.08917  0.92050  0.60711  1.0000 -0.0081736051
C   C390      1.0  0.08917  0.57950  0.10711  1.0000 -0.0081736051
C   C391      1.0  0.11169  0.94520  0.63699  1.0000 -0.1212867304
C   C392      1.0  0.11169  0.55480  0.13699  1.0000 -0.1212867304
C   C393      1.0  0.17130  0.94760  0.64982  1.0000 -0.159643051
C   C394      1.0  0.17130  0.55240  0.14982  1.0000 -0.159643051
C   C395      1.0  0.21158  0.92030  0.63407  1.0000 0.0704310743
C   C396      1.0  0.21158  0.57970  0.13407  1.0000 0.0704310743
C   C397      1.0  0.18900  0.88820  0.60450  1.0000 -0.159643051
C   C398      1.0  0.18900  0.61180  0.10450  1.0000 -0.159643051
C   C399      1.0  0.12930  0.88560  0.59183  1.0000 -0.1026020157
C   C400      1.0  0.12930  0.61440  0.09183  1.0000 -0.1026020157
C   C401      1.0  0.46546  0.89270  0.68852  1.0000 0.5290960327
C   C402      1.0  0.46546  0.60730  0.18852  1.0000 0.5290960327
C   C403      1.0  0.02230  0.92370  0.59285  1.0000 0.5208440975
C   C404      1.0  0.02230  0.57630  0.09285  1.0000 0.5208440975
C   C405      1.0  0.62946  0.88170  0.66144  1.0000 0.0704310743
C   C406      1.0  0.62946  0.61830  0.16144  1.0000 0.0704310743
C   C407      1.0  0.66596  0.88880  0.64224  1.0000 -0.188893427
C   C408      1.0  0.66596  0.61120  0.14224  1.0000 -0.188893427
C   C409      1.0  0.72720  0.88850  0.65344  1.0000 0.1178317027
C   C410      1.0  0.72720  0.61150  0.15344  1.0000 0.1178317027
C   C411      1.0  0.74867  0.87930  0.68515  1.0000 -0.1821582175
C   C412      1.0  0.74867  0.62070  0.18515  1.0000 -0.1821582175
C   C413      1.0  0.70923  0.87120  0.70269  1.0000 0.0704310743
C   C414      1.0  0.70923  0.62880  0.20269  1.0000 0.0704310743
C   C415      1.0  0.78736  0.89020  0.58414  1.0000 0.0800898496
C   C416      1.0  0.78736  0.60980  0.08414  1.0000 0.0800898496
C   C417      1.0  0.74860  0.87950  0.60258  1.0000 -0.200656685
C   C418      1.0  0.74860  0.62050  0.10258  1.0000 -0.200656685
C   C419      1.0  0.76693  0.90110  0.63276  1.0000 0.1013633904
C   C420      1.0  0.76693  0.59890  0.13276  1.0000 0.1013633904
C   C421      1.0  0.82491  0.93510  0.64345  1.0000 -0.188893427
C   C422      1.0  0.82491  0.56490  0.14345  1.0000 -0.188893427
C   C423      1.0  0.86109  0.94140  0.62355  1.0000 0.0614340265
C   C424      1.0  0.86109  0.55860  0.12355  1.0000 0.0614340265
C   C425      1.0  0.53319  0.61310  0.71089  1.0000 0.0800898496
C   C426      1.0  0.53319  0.88690  0.21089  1.0000 0.0800898496
C   C427      1.0  0.53003  0.49640  0.71054  1.0000 -0.1821582175
C   C428      1.0  0.53003  0.00360  0.21054  1.0000 -0.1821582175
C   C429      1.0  0.58285  0.43550  0.72015  1.0000 0.1178317027
C   C430      1.0  0.58285  0.06450  0.22015  1.0000 0.1178317027
C   C431      1.0  0.63538  0.49810  0.73016  1.0000 -0.200656685
C   C432      1.0  0.63538  0.00190  0.23016  1.0000 -0.200656685
C   C433      1.0  0.63376  0.61370  0.72984  1.0000 0.0704310743
C   C434      1.0  0.63376  0.88630  0.22984  1.0000 0.0704310743
C   C435      1.0  0.63198  0.13280  0.71899  1.0000 0.0614340265
C   C436      1.0  0.63198  0.36720  0.21899  1.0000 0.0614340265
C   C437      1.0  0.63326  0.24890  0.71790  1.0000 -0.200656685
C   C438      1.0  0.63326  0.25110  0.21790  1.0000 -0.200656685
C   C439      1.0  0.58318  0.31080  0.72061  1.0000 0.1089452624
C   C440      1.0  0.58318  0.18920  0.22061  1.0000 0.1089452624
C   C441      1.0  0.53430  0.24930  0.72445  1.0000 -0.1727078899
C   C442      1.0  0.53430  0.25070  0.22445  1.0000 -0.1727078899
C   C443      1.0  0.53711  0.13360  0.72528  1.0000 0.0800898496
C   C444      1.0  0.53711  0.36640  0.22528  1.0000 0.0800898496
C   C445      1.0  0.91860  0.32180  0.08437  1.0000 0.0800898496
C   C446      1.0  0.91860  0.17820  0.58437  1.0000 0.0800898496
C   C447      1.0  0.91810  0.20410  0.08618  1.0000 -0.2094719507
C   C448      1.0  0.91810  0.29590  0.58618  1.0000 -0.2094719507
C   C449      1.0  0.89630  0.14250  0.06028  1.0000 0.1089452624
C   C450      1.0  0.89630  0.35750  0.56028  1.0000 0.1089452624
C   C451      1.0  0.87150  0.20350  0.03516  1.0000 -0.200656685
C   C452      1.0  0.87150  0.29650  0.53516  1.0000 -0.200656685
C   C453      1.0  0.87360  0.31940  0.03505  1.0000 0.0800898496
C   C454      1.0  0.87360  0.18060  0.53505  1.0000 0.0800898496
C   C455      1.0  0.85930  0.84020  0.04370  1.0000 0.0884803406
C   C456      1.0  0.85930  0.65980  0.54370  1.0000 0.0884803406
C   C457      1.0  0.85560  0.95750  0.04370  1.0000 -0.200656685
C   C458      1.0  0.85560  0.54250  0.54370  1.0000 -0.200656685
C   C459      1.0  0.89500  0.01820  0.06025  1.0000 0.1013633904
C   C460      1.0  0.89500  0.48180  0.56025  1.0000 0.1013633904
C   C461      1.0  0.93340  0.95760  0.08080  1.0000 -0.2203956272
C   C462      1.0  0.93340  0.54240  0.58080  1.0000 -0.2203956272
C   C463      1.0  0.93440  0.83990  0.07994  1.0000 0.1013633904
C   C464      1.0  0.93440  0.66010  0.57994  1.0000 0.1013633904
N   N1        1.0  0.80689  0.37070  0.29660  1.0000 -0.2385055132
N   N2        1.0  0.80689  0.12930  0.79660  1.0000 -0.2385055132
N   N3        1.0  0.61206  0.41630  0.39350  1.0000 -0.2203956272
N   N4        1.0  0.61206  0.08370  0.89350  1.0000 -0.2203956272
N   N5        1.0  0.86973  0.56910  0.26247  1.0000 -0.2320924483
N   N6        1.0  0.86973  0.93090  0.76247  1.0000 -0.2320924483
N   N7        1.0  0.87315  0.16770  0.26956  1.0000 -0.2203956272
N   N8        1.0  0.87315  0.33230  0.76956  1.0000 -0.2203956272
N   N9        1.0  0.54889  0.88730  0.92571  1.0000 -0.2094719507
N   N10       1.0  0.54889  0.61270  0.42571  1.0000 -0.2094719507
N   N11       1.0  0.55229  0.28860  0.92295  1.0000 -0.2203956272
N   N12       1.0  0.55229  0.21140  0.42295  1.0000 -0.2203956272
N   N13       1.0  0.19311  0.62930  0.70340  1.0000 -0.2385055132
N   N14       1.0  0.19311  0.87070  0.20340  1.0000 -0.2385055132
N   N15       1.0  0.38794  0.58370  0.60650  1.0000 -0.2203956272
N   N16       1.0  0.38794  0.91630  0.10650  1.0000 -0.2203956272
N   N17       1.0  0.13027  0.43090  0.73753  1.0000 -0.2320924483
N   N18       1.0  0.13027  0.06910  0.23753  1.0000 -0.2320924483
N   N19       1.0  0.12685  0.83230  0.73044  1.0000 -0.2203956272
N   N20       1.0  0.12685  0.66770  0.23044  1.0000 -0.2203956272
N   N21       1.0  0.45111  0.11270  0.07429  1.0000 -0.2094719507
N   N22       1.0  0.45111  0.38730  0.57429  1.0000 -0.2094719507
N   N23       1.0  0.44771  0.71140  0.07705  1.0000 -0.2203956272
N   N24       1.0  0.44771  0.78860  0.57705  1.0000 -0.2203956272
N   N25       1.0  0.35008  0.12790  0.30823  1.0000 -0.2385055132
N   N26       1.0  0.35008  0.37210  0.80823  1.0000 -0.2385055132
N   N27       1.0  0.15704  0.08040  0.40595  1.0000 -0.2320924483
N   N28       1.0  0.15704  0.41960  0.90595  1.0000 -0.2320924483
N   N29       1.0  0.41698  0.32690  0.27916  1.0000 -0.2320924483
N   N30       1.0  0.41698  0.17310  0.77916  1.0000 -0.2320924483
N   N31       1.0  0.41534  0.92680  0.27732  1.0000 -0.2451988056
N   N32       1.0  0.41534  0.57320  0.77732  1.0000 -0.2451988056
N   N33       1.0  0.10222  0.62060  0.94056  1.0000 -0.2094719507
N   N34       1.0  0.10222  0.87940  0.44056  1.0000 -0.2094719507
N   N35       1.0  0.10032  0.21890  0.93983  1.0000 -0.2094719507
N   N36       1.0  0.10032  0.28110  0.43983  1.0000 -0.2094719507
N   N37       1.0  0.64992  0.87210  0.69177  1.0000 -0.2385055132
N   N38       1.0  0.64992  0.62790  0.19177  1.0000 -0.2385055132
N   N39       1.0  0.84296  0.91960  0.59405  1.0000 -0.2320924483
N   N40       1.0  0.84296  0.58040  0.09405  1.0000 -0.2320924483
N   N41       1.0  0.58302  0.67310  0.72084  1.0000 -0.2320924483
N   N42       1.0  0.58302  0.82690  0.22084  1.0000 -0.2320924483
N   N43       1.0  0.58466  0.07320  0.72268  1.0000 -0.2451988056
N   N44       1.0  0.58466  0.42680  0.22268  1.0000 -0.2451988056
N   N45       1.0  0.89778  0.37940  0.05944  1.0000 -0.2094719507
N   N46       1.0  0.89778  0.12060  0.55944  1.0000 -0.2094719507
N   N47       1.0  0.89968  0.78110  0.06017  1.0000 -0.2094719507
N   N48       1.0  0.89968  0.71890  0.56017  1.0000 -0.2094719507
O   O1        1.0  0.86306  0.33980  0.21200  1.0000 -0.5399803564
O   O2        1.0  0.86306  0.16020  0.71200  1.0000 -0.5399803564
O   O3        1.0  0.77557  0.34590  0.22256  1.0000 -0.5833504244
O   O4        1.0  0.77557  0.15410  0.72256  1.0000 -0.5833504244
O   O5        1.0  0.63958  0.10060  0.96828  1.0000 -0.5722114538
O   O6        1.0  0.63958  0.39940  0.46828  1.0000 -0.5722114538
O   O7        1.0  0.55405  0.10670  0.97893  1.0000 -0.513904576
O   O8        1.0  0.55405  0.39330  0.47893  1.0000 -0.513904576
O   O9        1.0  0.97417  0.38500  0.26979  1.0000 -0.5328226134
O   O10       1.0  0.97417  0.11500  0.76979  1.0000 -0.5328226134
O   O11       1.0  0.95086  0.37770  0.31228  1.0000 -0.4967855756
O   O12       1.0  0.95086  0.12230  0.81228  1.0000 -0.4967855756
O   O13       1.0  0.46433  0.42450  0.37687  1.0000 -0.5588514774
O   O14       1.0  0.46433  0.07550  0.87687  1.0000 -0.5588514774
O   O15       1.0  0.44867  0.40730  0.42194  1.0000 -0.5206426426
O   O16       1.0  0.44867  0.09270  0.92194  1.0000 -0.5206426426
O   O17       1.0  0.13694  0.66020  0.78800  1.0000 -0.5399803564
O   O18       1.0  0.13694  0.83980  0.28800  1.0000 -0.5399803564
O   O19       1.0  0.22443  0.65410  0.77744  1.0000 -0.5833504244
O   O20       1.0  0.22443  0.84590  0.27744  1.0000 -0.5833504244
O   O21       1.0  0.36042  0.89940  0.03172  1.0000 -0.5722114538
O   O22       1.0  0.36042  0.60060  0.53172  1.0000 -0.5722114538
O   O23       1.0  0.44595  0.89330  0.02107  1.0000 -0.513904576
O   O24       1.0  0.44595  0.60670  0.52107  1.0000 -0.513904576
O   O25       1.0  0.02583  0.61500  0.73021  1.0000 -0.5328226134
O   O26       1.0  0.02583  0.88500  0.23021  1.0000 -0.5328226134
O   O27       1.0  0.04914  0.62230  0.68772  1.0000 -0.4967855756
O   O28       1.0  0.04914  0.87770  0.18772  1.0000 -0.4967855756
O   O29       1.0  0.53567  0.57550  0.62313  1.0000 -0.5588514774
O   O30       1.0  0.53567  0.92450  0.12313  1.0000 -0.5588514774
O   O31       1.0  0.55133  0.59270  0.57806  1.0000 -0.5206426426
O   O32       1.0  0.55133  0.90730  0.07806  1.0000 -0.5206426426
O   O33       1.0  0.32206  0.15250  0.23476  1.0000 -0.5722114538
O   O34       1.0  0.32206  0.34750  0.73476  1.0000 -0.5722114538
O   O35       1.0  0.40877  0.13370  0.22442  1.0000 -0.5399803564
O   O36       1.0  0.40877  0.36630  0.72442  1.0000 -0.5399803564
O   O37       1.0  0.10928  0.41090  0.99298  1.0000 -0.4943283245
O   O38       1.0  0.10928  0.08910  0.49298  1.0000 -0.4943283245
O   O39       1.0  0.19443  0.40710  0.98171  1.0000 -0.5722114538
O   O40       1.0  0.19443  0.09290  0.48171  1.0000 -0.5722114538
O   O41       1.0  0.49879  0.10590  0.32785  1.0000 -0.5588514774
O   O42       1.0  0.49879  0.39410  0.82785  1.0000 -0.5588514774
O   O43       1.0  0.51810  0.12050  0.28327  1.0000 -0.5399803564
O   O44       1.0  0.51810  0.37950  0.78327  1.0000 -0.5399803564
O   O45       1.0  0.99300  0.08720  0.43547  1.0000 -0.513904576
O   O46       1.0  0.99300  0.41280  0.93547  1.0000 -0.513904576
O   O47       1.0  0.01336  0.06870  0.39204  1.0000 -0.5399803564
O   O48       1.0  0.01336  0.43130  0.89204  1.0000 -0.5399803564
O   O49       1.0  0.67794  0.84750  0.76524  1.0000 -0.5722114538
O   O50       1.0  0.67794  0.65250  0.26524  1.0000 -0.5722114538
O   O51       1.0  0.59123  0.86630  0.77558  1.0000 -0.5399803564
O   O52       1.0  0.59123  0.63370  0.27558  1.0000 -0.5399803564
O   O53       1.0  0.89072  0.58910  0.00702  1.0000 -0.4967855756
O   O54       1.0  0.89072  0.91090  0.50702  1.0000 -0.4967855756
O   O55       1.0  0.80557  0.59290  0.01829  1.0000 -0.5722114538
O   O56       1.0  0.80557  0.90710  0.51829  1.0000 -0.5722114538
O   O57       1.0  0.50121  0.89410  0.67215  1.0000 -0.5588514774
O   O58       1.0  0.50121  0.60590  0.17215  1.0000 -0.5588514774
O   O59       1.0  0.48190  0.87950  0.71673  1.0000 -0.5399803564
O   O60       1.0  0.48190  0.62050  0.21673  1.0000 -0.5399803564
O   O61       1.0  0.00700  0.91280  0.56453  1.0000 -0.513904576
O   O62       1.0  0.00700  0.58720  0.06453  1.0000 -0.513904576
O   O63       1.0  0.98664  0.93130  0.60796  1.0000 -0.5399803564
O   O64       1.0  0.98664  0.56870  0.10796  1.0000 -0.5399803564
