# DDEC6 charges by PACMAN v1.1 (https://github.com/mtap-research/PACMAN-charge/)
data_2004[Mn][fet]3[FSR]1
_chemical_formula_sum              "Mn4 H56 C56 N8 O20"
_cell_length_a       8.8647
_cell_length_b       17.8824
_cell_length_c       11.707
_cell_angle_alpha    90
_cell_angle_beta     99.713
_cell_angle_gamma    90

_symmetry_space_group_name_H-M    "P 1"
_symmetry_Int_Tables_number       1

loop_
  _symmetry_equiv_pos_as_xyz
  'x, y, z'

loop_
  _atom_site_type_symbol
  _atom_site_label
  _atom_site_symmetry_multiplicity
  _atom_site_fract_x
  _atom_site_fract_y
  _atom_site_fract_z
  _atom_site_occupancy
  _atom_site_charge
Mn  Mn1       1.0  0.79401  0.17008  0.38120  1.0000 0.8884805016
Mn  Mn2       1.0  0.29401  0.32992  0.38120  1.0000 0.8884805016
Mn  Mn3       1.0  0.20599  0.82992  0.61880  1.0000 0.8884805016
Mn  Mn4       1.0  0.70599  0.67008  0.61880  1.0000 0.8884805016
H   H1        1.0  0.47500  0.17000  0.35900  1.0000 0.357333327
H   H2        1.0  0.97500  0.33000  0.35900  1.0000 0.357333327
H   H3        1.0  0.52500  0.83000  0.64100  1.0000 0.357333327
H   H4        1.0  0.02500  0.67000  0.64100  1.0000 0.357333327
H   H5        1.0  0.54100  0.10020  0.34800  1.0000 0.3314618639
H   H6        1.0  0.04100  0.39980  0.34800  1.0000 0.3314618639
H   H7        1.0  0.45900  0.89980  0.65200  1.0000 0.3314618639
H   H8        1.0  0.95900  0.60020  0.65200  1.0000 0.3314618639
H   H9        1.0  0.98170  0.23540  0.18610  1.0000 0.1119134681
H   H10       1.0  0.48170  0.26460  0.18610  1.0000 0.1119134681
H   H11       1.0  0.01830  0.76460  0.81390  1.0000 0.1119134681
H   H12       1.0  0.51830  0.73540  0.81390  1.0000 0.1119134681
H   H13       1.0  0.98340  0.23680  0.99240  1.0000 0.1225883312
H   H14       1.0  0.48340  0.26320  0.99240  1.0000 0.1225883312
H   H15       1.0  0.01660  0.76320  0.00760  1.0000 0.1225883312
H   H16       1.0  0.51660  0.73680  0.00760  1.0000 0.1225883312
H   H17       1.0  0.61630  0.10710  0.94810  1.0000 0.1409033708
H   H18       1.0  0.11630  0.39290  0.94810  1.0000 0.1409033708
H   H19       1.0  0.38370  0.89290  0.05190  1.0000 0.1409033708
H   H20       1.0  0.88370  0.60710  0.05190  1.0000 0.1409033708
H   H21       1.0  0.62440  0.10770  0.14350  1.0000 0.1119134681
H   H22       1.0  0.12440  0.39230  0.14350  1.0000 0.1119134681
H   H23       1.0  0.37560  0.89230  0.85650  1.0000 0.1119134681
H   H24       1.0  0.87560  0.60770  0.85650  1.0000 0.1119134681
H   H25       1.0  0.95760  0.25040  0.81150  1.0000 0.1225883312
H   H26       1.0  0.45760  0.24960  0.81150  1.0000 0.1225883312
H   H27       1.0  0.04240  0.74960  0.18850  1.0000 0.1225883312
H   H28       1.0  0.54240  0.75040  0.18850  1.0000 0.1225883312
H   H29       1.0  0.95130  0.24660  0.61550  1.0000 0.1119134681
H   H30       1.0  0.45130  0.25340  0.61550  1.0000 0.1119134681
H   H31       1.0  0.04870  0.75340  0.38450  1.0000 0.1119134681
H   H32       1.0  0.54870  0.74660  0.38450  1.0000 0.1119134681
H   H33       1.0  0.63780  0.09250  0.57950  1.0000 0.1225883312
H   H34       1.0  0.13780  0.40750  0.57950  1.0000 0.1225883312
H   H35       1.0  0.36220  0.90750  0.42050  1.0000 0.1225883312
H   H36       1.0  0.86220  0.59250  0.42050  1.0000 0.1225883312
H   H37       1.0  0.63580  0.09180  0.77430  1.0000 0.1409033708
H   H38       1.0  0.13580  0.40820  0.77430  1.0000 0.1409033708
H   H39       1.0  0.36420  0.90820  0.22570  1.0000 0.1409033708
H   H40       1.0  0.86420  0.59180  0.22570  1.0000 0.1409033708
H   H41       1.0  0.71690  0.88210  0.38590  1.0000 0.1119134681
H   H42       1.0  0.21690  0.61790  0.38590  1.0000 0.1119134681
H   H43       1.0  0.28310  0.11790  0.61410  1.0000 0.1119134681
H   H44       1.0  0.78310  0.38210  0.61410  1.0000 0.1119134681
H   H45       1.0  0.88400  0.91380  0.40030  1.0000 0.1291243866
H   H46       1.0  0.38400  0.58620  0.40030  1.0000 0.1291243866
H   H47       1.0  0.11600  0.08620  0.59970  1.0000 0.1291243866
H   H48       1.0  0.61600  0.41380  0.59970  1.0000 0.1291243866
H   H49       1.0  0.88440  0.94330  0.59100  1.0000 0.1409033708
H   H50       1.0  0.38440  0.55670  0.59100  1.0000 0.1409033708
H   H51       1.0  0.11560  0.05670  0.40900  1.0000 0.1409033708
H   H52       1.0  0.61560  0.44330  0.40900  1.0000 0.1409033708
H   H53       1.0  0.70790  0.92810  0.57870  1.0000 0.1291243866
H   H54       1.0  0.20790  0.57190  0.57870  1.0000 0.1291243866
H   H55       1.0  0.29210  0.07190  0.42130  1.0000 0.1291243866
H   H56       1.0  0.79210  0.42810  0.42130  1.0000 0.1291243866
C   C1        1.0  0.90610  0.20910  0.13760  1.0000 0.0823608044
C   C2        1.0  0.40610  0.29090  0.13760  1.0000 0.0823608044
C   C3        1.0  0.09390  0.79090  0.86240  1.0000 0.0823608044
C   C4        1.0  0.59390  0.70910  0.86240  1.0000 0.0823608044
C   C5        1.0  0.90780  0.21000  0.02090  1.0000 -0.2036553451
C   C6        1.0  0.40780  0.29000  0.02090  1.0000 -0.2036553451
C   C7        1.0  0.09220  0.79000  0.97910  1.0000 -0.2036553451
C   C8        1.0  0.59220  0.71000  0.97910  1.0000 -0.2036553451
C   C9        1.0  0.79930  0.17190  0.94520  1.0000 0.1005661807
C   C10       1.0  0.29930  0.32810  0.94520  1.0000 0.1005661807
C   C11       1.0  0.20070  0.82810  0.05480  1.0000 0.1005661807
C   C12       1.0  0.70070  0.67190  0.05480  1.0000 0.1005661807
C   C13       1.0  0.69290  0.13390  0.99490  1.0000 -0.2077345628
C   C14       1.0  0.19290  0.36610  0.99490  1.0000 -0.2077345628
C   C15       1.0  0.30710  0.86610  0.00510  1.0000 -0.2077345628
C   C16       1.0  0.80710  0.63390  0.00510  1.0000 -0.2077345628
C   C17       1.0  0.69770  0.13490  0.11300  1.0000 0.0823608044
C   C18       1.0  0.19770  0.36510  0.11300  1.0000 0.0823608044
C   C19       1.0  0.30230  0.86510  0.88700  1.0000 0.0823608044
C   C20       1.0  0.80230  0.63490  0.88700  1.0000 0.0823608044
C   C21       1.0  0.79740  0.17110  0.81800  1.0000 0.1005661807
C   C22       1.0  0.29740  0.32890  0.81800  1.0000 0.1005661807
C   C23       1.0  0.20260  0.82890  0.18200  1.0000 0.1005661807
C   C24       1.0  0.70260  0.67110  0.18200  1.0000 0.1005661807
C   C25       1.0  0.89140  0.21750  0.76640  1.0000 -0.2077345628
C   C26       1.0  0.39140  0.28250  0.76640  1.0000 -0.2077345628
C   C27       1.0  0.10860  0.78250  0.23360  1.0000 -0.2077345628
C   C28       1.0  0.60860  0.71750  0.23360  1.0000 -0.2077345628
C   C29       1.0  0.88680  0.21490  0.64790  1.0000 0.0894923101
C   C30       1.0  0.38680  0.28510  0.64790  1.0000 0.0894923101
C   C31       1.0  0.11320  0.78510  0.35210  1.0000 0.0894923101
C   C32       1.0  0.61320  0.71490  0.35210  1.0000 0.0894923101
C   C33       1.0  0.70330  0.12470  0.62670  1.0000 0.0894923101
C   C34       1.0  0.20330  0.37530  0.62670  1.0000 0.0894923101
C   C35       1.0  0.29670  0.87530  0.37330  1.0000 0.0894923101
C   C36       1.0  0.79670  0.62470  0.37330  1.0000 0.0894923101
C   C37       1.0  0.70150  0.12400  0.74420  1.0000 -0.1876680233
C   C38       1.0  0.20150  0.37600  0.74420  1.0000 -0.1876680233
C   C39       1.0  0.29850  0.87600  0.25580  1.0000 -0.1876680233
C   C40       1.0  0.79850  0.62400  0.25580  1.0000 -0.1876680233
C   C41       1.0  0.72170  0.99690  0.38300  1.0000 0.6199973247
C   C42       1.0  0.22170  0.50310  0.38300  1.0000 0.6199973247
C   C43       1.0  0.27830  0.00310  0.61700  1.0000 0.6199973247
C   C44       1.0  0.77830  0.49690  0.61700  1.0000 0.6199973247
C   C45       1.0  0.78480  0.92060  0.42340  1.0000 -0.2913746216
C   C46       1.0  0.28480  0.57940  0.42340  1.0000 -0.2913746216
C   C47       1.0  0.21520  0.07940  0.57660  1.0000 -0.2913746216
C   C48       1.0  0.71520  0.42060  0.57660  1.0000 -0.2913746216
C   C49       1.0  0.80140  0.91190  0.55340  1.0000 -0.3232640453
C   C50       1.0  0.30140  0.58810  0.55340  1.0000 -0.3232640453
C   C51       1.0  0.19860  0.08810  0.44660  1.0000 -0.3232640453
C   C52       1.0  0.69860  0.41190  0.44660  1.0000 -0.3232640453
C   C53       1.0  0.83350  0.83180  0.58820  1.0000 0.6375792793
C   C54       1.0  0.33350  0.66820  0.58820  1.0000 0.6375792793
C   C55       1.0  0.16650  0.16820  0.41180  1.0000 0.6375792793
C   C56       1.0  0.66650  0.33180  0.41180  1.0000 0.6375792793
N   N1        1.0  0.80120  0.17240  0.18530  1.0000 -0.2077345628
N   N2        1.0  0.30120  0.32760  0.18530  1.0000 -0.2077345628
N   N3        1.0  0.19880  0.82760  0.81470  1.0000 -0.2077345628
N   N4        1.0  0.69880  0.67240  0.81470  1.0000 -0.2077345628
N   N5        1.0  0.79470  0.16940  0.57730  1.0000 -0.2339228072
N   N6        1.0  0.29470  0.33060  0.57730  1.0000 -0.2339228072
N   N7        1.0  0.20530  0.83060  0.42270  1.0000 -0.2339228072
N   N8        1.0  0.70530  0.66940  0.42270  1.0000 -0.2339228072
O   O1        1.0  0.81540  0.04949  0.38540  1.0000 -0.5794984155
O   O2        1.0  0.31540  0.45051  0.38540  1.0000 -0.5794984155
O   O3        1.0  0.18460  0.95051  0.61460  1.0000 -0.5794984155
O   O4        1.0  0.68460  0.54949  0.61460  1.0000 -0.5794984155
O   O5        1.0  0.58190  0.00260  0.35110  1.0000 -0.5794984155
O   O6        1.0  0.08190  0.49740  0.35110  1.0000 -0.5794984155
O   O7        1.0  0.41810  0.99740  0.64890  1.0000 -0.5794984155
O   O8        1.0  0.91810  0.50260  0.64890  1.0000 -0.5794984155
O   O9        1.0  0.96540  0.80597  0.58800  1.0000 -0.5794984155
O   O10       1.0  0.46540  0.69403  0.58800  1.0000 -0.5794984155
O   O11       1.0  0.03460  0.19403  0.41200  1.0000 -0.5794984155
O   O12       1.0  0.53460  0.30597  0.41200  1.0000 -0.5794984155
O   O13       1.0  0.72540  0.79233  0.61240  1.0000 -0.5794984155
O   O14       1.0  0.22540  0.70767  0.61240  1.0000 -0.5794984155
O   O15       1.0  0.27460  0.20767  0.38760  1.0000 -0.5794984155
O   O16       1.0  0.77460  0.29233  0.38760  1.0000 -0.5794984155
O   O17       1.0  0.55000  0.14722  0.34100  1.0000 -0.6945575454
O   O18       1.0  0.05000  0.35278  0.34100  1.0000 -0.6945575454
O   O19       1.0  0.45000  0.85278  0.65900  1.0000 -0.6962731459
O   O20       1.0  0.95000  0.64722  0.65900  1.0000 -0.6945575454
