# DDEC6 charges by PACMAN v1.1 (https://github.com/mtap-research/PACMAN-charge/)
data_2004[Cd][nan]3[FSR]1
_chemical_formula_sum              "Cd3 H44 C36 N28 O6"
_cell_length_a       11.84
_cell_length_b       12.3247
_cell_length_c       13.7362
_cell_angle_alpha    92.615
_cell_angle_beta     112.675
_cell_angle_gamma    109.04

_symmetry_space_group_name_H-M    "P 1"
_symmetry_Int_Tables_number       1

loop_
  _symmetry_equiv_pos_as_xyz
  'x, y, z'

loop_
  _atom_site_type_symbol
  _atom_site_label
  _atom_site_symmetry_multiplicity
  _atom_site_fract_x
  _atom_site_fract_y
  _atom_site_fract_z
  _atom_site_occupancy
  _atom_site_charge
Cd  Cd1       1.0  0.00000  0.50000  0.50000  1.0000 0.5751827288
Cd  Cd2       1.0  0.88491  0.76668  0.53916  1.0000 0.8006285358
Cd  Cd3       1.0  0.11509  0.23332  0.46084  1.0000 0.8006285358
H   H1        1.0  0.54470  0.66900  0.11530  1.0000 0.1184467394
H   H2        1.0  0.45530  0.33100  0.88470  1.0000 0.1184467394
H   H3        1.0  0.60070  0.36880  0.06600  1.0000 0.1184467394
H   H4        1.0  0.39930  0.63120  0.93400  1.0000 0.1184467394
H   H5        1.0  0.10780  0.45110  0.90440  1.0000 0.1184467394
H   H6        1.0  0.89220  0.54890  0.09560  1.0000 0.1184467394
H   H7        1.0  0.86220  0.60340  0.93010  1.0000 0.1184467394
H   H8        1.0  0.13780  0.39660  0.06990  1.0000 0.1184467394
H   H9        1.0  0.65950  0.92500  0.50640  1.0000 0.1002904459
H   H10       1.0  0.34050  0.07500  0.49360  1.0000 0.1002904459
H   H11       1.0  0.53090  0.19270  0.48110  1.0000 0.1184467394
H   H12       1.0  0.46910  0.80730  0.51890  1.0000 0.1184467394
H   H13       1.0  0.90120  0.01550  0.64170  1.0000 0.1002904459
H   H14       1.0  0.09880  0.98450  0.35830  1.0000 0.1002904459
H   H15       1.0  0.94640  0.19460  0.71830  1.0000 0.141459484
H   H16       1.0  0.05360  0.80540  0.28170  1.0000 0.141459484
H   H17       1.0  0.10140  0.27070  0.77420  1.0000 0.141459484
H   H18       1.0  0.89860  0.72930  0.22580  1.0000 0.141459484
H   H19       1.0  0.02470  0.22300  0.84660  1.0000 0.141459484
H   H20       1.0  0.97530  0.77700  0.15340  1.0000 0.141459484
H   H21       1.0  0.18390  0.02140  0.84430  1.0000 0.1466776174
H   H22       1.0  0.81610  0.97860  0.15570  1.0000 0.1466776174
H   H23       1.0  0.17740  0.11220  0.92720  1.0000 0.1319148582
H   H24       1.0  0.82260  0.88780  0.07280  1.0000 0.1319148582
H   H25       1.0  0.25360  0.15920  0.85430  1.0000 0.1319148582
H   H26       1.0  0.74640  0.84080  0.14570  1.0000 0.1319148582
H   H27       1.0  0.76510  0.78370  0.70260  1.0000 0.0943182487
H   H28       1.0  0.23490  0.21630  0.29740  1.0000 0.0943182487
H   H29       1.0  0.68510  0.74370  0.82500  1.0000 0.1319148582
H   H30       1.0  0.31490  0.25630  0.17500  1.0000 0.1319148582
H   H31       1.0  0.58660  0.61060  0.80000  1.0000 0.141459484
H   H32       1.0  0.41340  0.38940  0.20000  1.0000 0.141459484
H   H33       1.0  0.52950  0.71280  0.77930  1.0000 0.1466776174
H   H34       1.0  0.47050  0.28720  0.22070  1.0000 0.1466776174
H   H35       1.0  0.46790  0.58830  0.51450  1.0000 0.141459484
H   H36       1.0  0.53210  0.41170  0.48550  1.0000 0.141459484
H   H37       1.0  0.39080  0.61360  0.58080  1.0000 0.1319148582
H   H38       1.0  0.60920  0.38640  0.41920  1.0000 0.1319148582
H   H39       1.0  0.44770  0.51140  0.60160  1.0000 0.141459484
H   H40       1.0  0.55230  0.48860  0.39840  1.0000 0.141459484
H   H41       1.0  0.83100  0.95100  0.44100  1.0000 0.2614739764
H   H42       1.0  0.16900  0.04900  0.55900  1.0000 0.2614739764
H   H43       1.0  0.76400  0.85600  0.37000  1.0000 0.2727683265
H   H44       1.0  0.23600  0.14400  0.63000  1.0000 0.2727683265
C   C1        1.0  0.67770  0.54440  0.22303  1.0000 0.2297773886
C   C2        1.0  0.32230  0.45560  0.77697  1.0000 0.2297773886
C   C3        1.0  0.58670  0.52160  0.10845  1.0000 0.0332532342
C   C4        1.0  0.41330  0.47840  0.89155  1.0000 0.0332532342
C   C5        1.0  0.52670  0.60020  0.06870  1.0000 -0.1392876403
C   C6        1.0  0.47330  0.39980  0.93130  1.0000 -0.1392876403
C   C7        1.0  0.55970  0.42250  0.03940  1.0000 -0.134645227
C   C8        1.0  0.44030  0.57750  0.96060  1.0000 -0.134645227
C   C9        1.0  0.95930  0.55870  0.79340  1.0000 0.2297773886
C   C10       1.0  0.04070  0.44130  0.20660  1.0000 0.2297773886
C   C11       1.0  0.98030  0.53050  0.90020  1.0000 0.0480403895
C   C12       1.0  0.01970  0.46950  0.09980  1.0000 0.0480403895
C   C13       1.0  0.06350  0.47050  0.94320  1.0000 -0.134645227
C   C14       1.0  0.93650  0.52950  0.05680  1.0000 -0.134645227
C   C15       1.0  0.91770  0.56100  0.95820  1.0000 -0.1392876403
C   C16       1.0  0.08230  0.43900  0.04180  1.0000 -0.1392876403
C   C17       1.0  0.73390  0.14720  0.48450  1.0000 0.2297773886
C   C18       1.0  0.26610  0.85280  0.51550  1.0000 0.2297773886
C   C19       1.0  0.61390  0.07060  0.49190  1.0000 0.0480403895
C   C20       1.0  0.38610  0.92940  0.50810  1.0000 0.0480403895
C   C21       1.0  0.59470  0.95580  0.50370  1.0000 -0.1392876403
C   C22       1.0  0.40530  0.04420  0.49630  1.0000 -0.1392876403
C   C23       1.0  0.51840  0.11390  0.48870  1.0000 -0.1132709082
C   C24       1.0  0.48160  0.88610  0.51130  1.0000 -0.1132709082
C   C25       1.0  0.97720  0.00820  0.69480  1.0000 0.2297773886
C   C26       1.0  0.02280  0.99180  0.30520  1.0000 0.2373828966
C   C27       1.0  0.03030  0.20550  0.77870  1.0000 -0.3413503241
C   C28       1.0  0.96970  0.79450  0.22130  1.0000 -0.3413503241
C   C29       1.0  0.17780  0.09780  0.85660  1.0000 -0.3181027245
C   C30       1.0  0.82220  0.90220  0.14340  1.0000 -0.3181027245
C   C31       1.0  0.68700  0.73100  0.64470  1.0000 0.2825230885
C   C32       1.0  0.31300  0.26900  0.35530  1.0000 0.2825230885
C   C33       1.0  0.59790  0.68600  0.77680  1.0000 -0.3498947989
C   C34       1.0  0.40210  0.31400  0.22320  1.0000 -0.3498947989
C   C35       1.0  0.46330  0.58970  0.58420  1.0000 -0.3413503241
C   C36       1.0  0.53670  0.41030  0.41580  1.0000 -0.3413503241
N   N1        1.0  0.74590  0.47723  0.26674  1.0000 -0.2623783421
N   N2        1.0  0.25410  0.52277  0.73326  1.0000 -0.2623783421
N   N3        1.0  0.81610  0.53012  0.36988  1.0000 -0.03204213
N   N4        1.0  0.18390  0.46988  0.63012  1.0000 -0.03204213
N   N5        1.0  0.79042  0.62361  0.38698  1.0000 -0.0801192121
N   N6        1.0  0.20958  0.37639  0.61302  1.0000 -0.0801192121
N   N7        1.0  0.70290  0.63512  0.29502  1.0000 -0.2825343084
N   N8        1.0  0.29710  0.36488  0.70498  1.0000 -0.2825343084
N   N9        1.0  0.93310  0.65206  0.76034  1.0000 -0.2825343084
N   N10       1.0  0.06690  0.34794  0.23966  1.0000 -0.2825343084
N   N11       1.0  0.92710  0.64337  0.66103  1.0000 -0.0801192121
N   N12       1.0  0.07290  0.35663  0.33897  1.0000 -0.0801192121
N   N13       1.0  0.94790  0.54930  0.63721  1.0000 -0.0405392941
N   N14       1.0  0.05210  0.45070  0.36279  1.0000 -0.0405392941
N   N15       1.0  0.96870  0.49386  0.71902  1.0000 -0.2458922636
N   N16       1.0  0.03130  0.50614  0.28098  1.0000 -0.2458922636
N   N17       1.0  0.76630  0.26274  0.49062  1.0000 -0.2623783421
N   N18       1.0  0.23370  0.73726  0.50938  1.0000 -0.2623783421
N   N19       1.0  0.88113  0.29937  0.48325  1.0000 -0.03204213
N   N20       1.0  0.11887  0.70063  0.51675  1.0000 -0.03204213
N   N21       1.0  0.91643  0.20961  0.47289  1.0000 -0.0801192121
N   N22       1.0  0.08357  0.79039  0.52711  1.0000 -0.0801192121
N   N23       1.0  0.82490  0.11209  0.47392  1.0000 -0.2661574256
N   N24       1.0  0.17510  0.88791  0.52608  1.0000 -0.2661574256
N   N25       1.0  0.05770  0.09880  0.77410  1.0000 0.0480403895
N   N26       1.0  0.94230  0.90120  0.22590  1.0000 0.0480403895
N   N27       1.0  0.58680  0.67240  0.66710  1.0000 0.0480403895
N   N28       1.0  0.41320  0.32760  0.33290  1.0000 0.0480403895
O   O1        1.0  0.99190  0.91649  0.68404  1.0000 -0.4351201724
O   O2        1.0  0.00810  0.08351  0.31596  1.0000 -0.4351201724
O   O3        1.0  0.68673  0.72231  0.55471  1.0000 -0.451781876
O   O4        1.0  0.31327  0.27769  0.44529  1.0000 -0.451781876
O   O5        1.0  0.82890  0.88724  0.42290  1.0000 -0.6253361177
O   O6        1.0  0.17110  0.11276  0.57710  1.0000 -0.6253361177
