# DDEC6 charges by PACMAN v1.1 (https://github.com/mtap-research/PACMAN-charge/)
data_2004[Co][cag]3[FSR]1
_chemical_formula_sum              "Co16 H96 C96 N64"
_cell_length_a       15.9253
_cell_length_b       15.9712
_cell_length_c       18.475
_cell_angle_alpha    90
_cell_angle_beta     90
_cell_angle_gamma    90

_symmetry_space_group_name_H-M    "P 1"
_symmetry_Int_Tables_number       1

loop_
  _symmetry_equiv_pos_as_xyz
  'x, y, z'

loop_
  _atom_site_type_symbol
  _atom_site_label
  _atom_site_symmetry_multiplicity
  _atom_site_fract_x
  _atom_site_fract_y
  _atom_site_fract_z
  _atom_site_occupancy
  _atom_site_charge
Co  Co1       1.0  0.86361  0.68797  0.60097  1.0000 0.5875984942
Co  Co2       1.0  0.86361  0.18797  0.89903  1.0000 0.5875984942
Co  Co3       1.0  0.63639  0.68797  0.10097  1.0000 0.5829744255
Co  Co4       1.0  0.36361  0.81203  0.60097  1.0000 0.5875984942
Co  Co5       1.0  0.13639  0.31203  0.39903  1.0000 0.5829744255
Co  Co6       1.0  0.13639  0.81203  0.10097  1.0000 0.5829744255
Co  Co7       1.0  0.36361  0.31203  0.89903  1.0000 0.5875984942
Co  Co8       1.0  0.63639  0.18797  0.39903  1.0000 0.5829744255
Co  Co9       1.0  0.67864  0.99506  0.67494  1.0000 0.6029912
Co  Co10      1.0  0.67864  0.49506  0.82506  1.0000 0.6029912
Co  Co11      1.0  0.82136  0.99506  0.17494  1.0000 0.6029912
Co  Co12      1.0  0.17864  0.50494  0.67494  1.0000 0.6029912
Co  Co13      1.0  0.32136  0.00494  0.32506  1.0000 0.6029912
Co  Co14      1.0  0.32136  0.50494  0.17494  1.0000 0.6029912
Co  Co15      1.0  0.17864  0.00494  0.82506  1.0000 0.6029912
Co  Co16      1.0  0.82136  0.49506  0.32506  1.0000 0.6029912
H   H1        1.0  0.94600  0.86900  0.58150  1.0000 0.1085122441
H   H2        1.0  0.94600  0.36900  0.91850  1.0000 0.1085122441
H   H3        1.0  0.55400  0.86900  0.08150  1.0000 0.1085122441
H   H4        1.0  0.44600  0.63100  0.58150  1.0000 0.1085122441
H   H5        1.0  0.05400  0.13100  0.41850  1.0000 0.1085122441
H   H6        1.0  0.05400  0.63100  0.08150  1.0000 0.1085122441
H   H7        1.0  0.44600  0.13100  0.91850  1.0000 0.1085122441
H   H8        1.0  0.55400  0.36900  0.41850  1.0000 0.1085122441
H   H9        1.0  0.86600  0.99700  0.61000  1.0000 0.1085122441
H   H10       1.0  0.86600  0.49700  0.89000  1.0000 0.1085122441
H   H11       1.0  0.63400  0.99700  0.11000  1.0000 0.1085122441
H   H12       1.0  0.36600  0.50300  0.61000  1.0000 0.1085122441
H   H13       1.0  0.13400  0.00300  0.39000  1.0000 0.1085122441
H   H14       1.0  0.13400  0.50300  0.11000  1.0000 0.1085122441
H   H15       1.0  0.36600  0.00300  0.89000  1.0000 0.1085122441
H   H16       1.0  0.63400  0.49700  0.39000  1.0000 0.1085122441
H   H17       1.0  0.73130  0.81570  0.64430  1.0000 0.0980804166
H   H18       1.0  0.73130  0.31570  0.85570  1.0000 0.0980804166
H   H19       1.0  0.76870  0.81570  0.14430  1.0000 0.0980804166
H   H20       1.0  0.23130  0.68430  0.64430  1.0000 0.0980804166
H   H21       1.0  0.26870  0.18430  0.35570  1.0000 0.0980804166
H   H22       1.0  0.26870  0.68430  0.14430  1.0000 0.0980804166
H   H23       1.0  0.23130  0.18430  0.85570  1.0000 0.0980804166
H   H24       1.0  0.76870  0.31570  0.35570  1.0000 0.0980804166
H   H25       1.0  0.91400  0.74810  0.44890  1.0000 0.118482015
H   H26       1.0  0.91400  0.24810  0.05110  1.0000 0.118482015
H   H27       1.0  0.58600  0.74810  0.94890  1.0000 0.118482015
H   H28       1.0  0.41400  0.75190  0.44890  1.0000 0.118482015
H   H29       1.0  0.08600  0.25190  0.55110  1.0000 0.118482015
H   H30       1.0  0.08600  0.75190  0.94890  1.0000 0.118482015
H   H31       1.0  0.41400  0.25190  0.05110  1.0000 0.118482015
H   H32       1.0  0.58600  0.24810  0.55110  1.0000 0.118482015
H   H33       1.0  0.89700  0.66990  0.33480  1.0000 0.1085122441
H   H34       1.0  0.89700  0.16990  0.16520  1.0000 0.1085122441
H   H35       1.0  0.60300  0.66990  0.83480  1.0000 0.1085122441
H   H36       1.0  0.39700  0.83010  0.33480  1.0000 0.1085122441
H   H37       1.0  0.10300  0.33010  0.66520  1.0000 0.1085122441
H   H38       1.0  0.10300  0.83010  0.83480  1.0000 0.1085122441
H   H39       1.0  0.39700  0.33010  0.16520  1.0000 0.1085122441
H   H40       1.0  0.60300  0.16990  0.66520  1.0000 0.1085122441
H   H41       1.0  0.81930  0.54850  0.49070  1.0000 0.0980804166
H   H42       1.0  0.81930  0.04850  0.00930  1.0000 0.0980804166
H   H43       1.0  0.68070  0.54850  0.99070  1.0000 0.0980804166
H   H44       1.0  0.31930  0.95150  0.49070  1.0000 0.0980804166
H   H45       1.0  0.18070  0.45150  0.50930  1.0000 0.0980804166
H   H46       1.0  0.18070  0.95150  0.99070  1.0000 0.0980804166
H   H47       1.0  0.31930  0.45150  0.00930  1.0000 0.0980804166
H   H48       1.0  0.68070  0.04850  0.50930  1.0000 0.0980804166
H   H49       1.0  0.98900  0.73940  0.72390  1.0000 0.1085122441
H   H50       1.0  0.98900  0.23940  0.77610  1.0000 0.1085122441
H   H51       1.0  0.51100  0.73940  0.22390  1.0000 0.1085122441
H   H52       1.0  0.48900  0.76060  0.72390  1.0000 0.1085122441
H   H53       1.0  0.01100  0.26060  0.27610  1.0000 0.1085122441
H   H54       1.0  0.01100  0.76060  0.22390  1.0000 0.1085122441
H   H55       1.0  0.48900  0.26060  0.77610  1.0000 0.1085122441
H   H56       1.0  0.51100  0.23940  0.27610  1.0000 0.1085122441
H   H57       1.0  0.11000  0.66300  0.76110  1.0000 0.1085122441
H   H58       1.0  0.11000  0.16300  0.73890  1.0000 0.1085122441
H   H59       1.0  0.39000  0.66300  0.26110  1.0000 0.1085122441
H   H60       1.0  0.61000  0.83700  0.76110  1.0000 0.1085122441
H   H61       1.0  0.89000  0.33700  0.23890  1.0000 0.1085122441
H   H62       1.0  0.89000  0.83700  0.26110  1.0000 0.1085122441
H   H63       1.0  0.61000  0.33700  0.73890  1.0000 0.1085122441
H   H64       1.0  0.39000  0.16300  0.23890  1.0000 0.1085122441
H   H65       1.0  0.00580  0.55900  0.60400  1.0000 0.0980804166
H   H66       1.0  0.00580  0.05900  0.89600  1.0000 0.0980804166
H   H67       1.0  0.49420  0.55900  0.10400  1.0000 0.0980804166
H   H68       1.0  0.50580  0.94100  0.60400  1.0000 0.0980804166
H   H69       1.0  0.99420  0.44100  0.39600  1.0000 0.0980804166
H   H70       1.0  0.99420  0.94100  0.10400  1.0000 0.0980804166
H   H71       1.0  0.50580  0.44100  0.89600  1.0000 0.0980804166
H   H72       1.0  0.49420  0.05900  0.39600  1.0000 0.0980804166
H   H73       1.0  0.59800  0.54800  0.68020  1.0000 0.1085122441
H   H74       1.0  0.59800  0.04800  0.81980  1.0000 0.1085122441
H   H75       1.0  0.90200  0.54800  0.18020  1.0000 0.1085122441
H   H76       1.0  0.09800  0.95200  0.68020  1.0000 0.1085122441
H   H77       1.0  0.40200  0.45200  0.31980  1.0000 0.1085122441
H   H78       1.0  0.40200  0.95200  0.18020  1.0000 0.1085122441
H   H79       1.0  0.09800  0.45200  0.81980  1.0000 0.1085122441
H   H80       1.0  0.90200  0.04800  0.31980  1.0000 0.1085122441
H   H81       1.0  0.67100  0.63400  0.58600  1.0000 0.1085122441
H   H82       1.0  0.67100  0.13400  0.91400  1.0000 0.1085122441
H   H83       1.0  0.82900  0.63400  0.08600  1.0000 0.1085122441
H   H84       1.0  0.17100  0.86600  0.58600  1.0000 0.1085122441
H   H85       1.0  0.32900  0.36600  0.41400  1.0000 0.1085122441
H   H86       1.0  0.32900  0.86600  0.08600  1.0000 0.1085122441
H   H87       1.0  0.17100  0.36600  0.91400  1.0000 0.1085122441
H   H88       1.0  0.82900  0.13400  0.41400  1.0000 0.1085122441
H   H89       1.0  0.82170  0.58380  0.73460  1.0000 0.0980804166
H   H90       1.0  0.82170  0.08380  0.76540  1.0000 0.0980804166
H   H91       1.0  0.67830  0.58380  0.23460  1.0000 0.0980804166
H   H92       1.0  0.32170  0.91620  0.73460  1.0000 0.0980804166
H   H93       1.0  0.17830  0.41620  0.26540  1.0000 0.0980804166
H   H94       1.0  0.17830  0.91620  0.23460  1.0000 0.0980804166
H   H95       1.0  0.32170  0.41620  0.76540  1.0000 0.0980804166
H   H96       1.0  0.67830  0.08380  0.26540  1.0000 0.0980804166
C   C1        1.0  0.89450  0.87780  0.60070  1.0000 -0.0767749272
C   C2        1.0  0.89450  0.37780  0.89930  1.0000 -0.0767749272
C   C3        1.0  0.60550  0.87780  0.10070  1.0000 -0.0767749272
C   C4        1.0  0.39450  0.62220  0.60070  1.0000 -0.0767749272
C   C5        1.0  0.10550  0.12220  0.39930  1.0000 -0.0767749272
C   C6        1.0  0.10550  0.62220  0.10070  1.0000 -0.0767749272
C   C7        1.0  0.39450  0.12220  0.89930  1.0000 -0.0767749272
C   C8        1.0  0.60550  0.37780  0.39930  1.0000 -0.0767749272
C   C9        1.0  0.85050  0.94730  0.61630  1.0000 -0.0601379416
C   C10       1.0  0.85050  0.44730  0.88370  1.0000 -0.0601379416
C   C11       1.0  0.64950  0.94730  0.11630  1.0000 -0.0601379416
C   C12       1.0  0.35050  0.55270  0.61630  1.0000 -0.0601379416
C   C13       1.0  0.14950  0.05270  0.38370  1.0000 -0.0601379416
C   C14       1.0  0.14950  0.55270  0.11630  1.0000 -0.0601379416
C   C15       1.0  0.35050  0.05270  0.88370  1.0000 -0.0601379416
C   C16       1.0  0.64950  0.44730  0.38370  1.0000 -0.0601379416
C   C17       1.0  0.77470  0.84410  0.63580  1.0000 0.1369412001
C   C18       1.0  0.77470  0.34410  0.86420  1.0000 0.1369412001
C   C19       1.0  0.72530  0.84410  0.13580  1.0000 0.1369412001
C   C20       1.0  0.27470  0.65590  0.63580  1.0000 0.1369412001
C   C21       1.0  0.22530  0.15590  0.36420  1.0000 0.1369412001
C   C22       1.0  0.22530  0.65590  0.13580  1.0000 0.1369412001
C   C23       1.0  0.27470  0.15590  0.86420  1.0000 0.1369412001
C   C24       1.0  0.72530  0.34410  0.36420  1.0000 0.1369412001
C   C25       1.0  0.89350  0.70370  0.44070  1.0000 -0.0712262248
C   C26       1.0  0.89350  0.20370  0.05930  1.0000 -0.0712262248
C   C27       1.0  0.60650  0.70370  0.94070  1.0000 -0.0712262248
C   C28       1.0  0.39350  0.79630  0.44070  1.0000 -0.0712262248
C   C29       1.0  0.10650  0.29630  0.55930  1.0000 -0.0712262248
C   C30       1.0  0.10650  0.79630  0.94070  1.0000 -0.0712262248
C   C31       1.0  0.39350  0.29630  0.05930  1.0000 -0.0712262248
C   C32       1.0  0.60650  0.20370  0.55930  1.0000 -0.0712262248
C   C33       1.0  0.88540  0.66030  0.37930  1.0000 -0.0712262248
C   C34       1.0  0.88540  0.16030  0.12070  1.0000 -0.0712262248
C   C35       1.0  0.61460  0.66030  0.87930  1.0000 -0.0712262248
C   C36       1.0  0.38540  0.83970  0.37930  1.0000 -0.0712262248
C   C37       1.0  0.11460  0.33970  0.62070  1.0000 -0.0712262248
C   C38       1.0  0.11460  0.83970  0.87930  1.0000 -0.0712262248
C   C39       1.0  0.38540  0.33970  0.12070  1.0000 -0.0712262248
C   C40       1.0  0.61460  0.16030  0.62070  1.0000 -0.0712262248
C   C41       1.0  0.83980  0.58860  0.46480  1.0000 0.1369412001
C   C42       1.0  0.83980  0.08860  0.03520  1.0000 0.1369412001
C   C43       1.0  0.66020  0.58860  0.96480  1.0000 0.1369412001
C   C44       1.0  0.33980  0.91140  0.46480  1.0000 0.1369412001
C   C45       1.0  0.16020  0.41140  0.53520  1.0000 0.1369412001
C   C46       1.0  0.16020  0.91140  0.96480  1.0000 0.1369412001
C   C47       1.0  0.33980  0.41140  0.03520  1.0000 0.1369412001
C   C48       1.0  0.66020  0.08860  0.53520  1.0000 0.1369412001
C   C49       1.0  0.00710  0.69420  0.70790  1.0000 -0.0712262248
C   C50       1.0  0.00710  0.19420  0.79210  1.0000 -0.0712262248
C   C51       1.0  0.49290  0.69420  0.20790  1.0000 -0.0712262248
C   C52       1.0  0.50710  0.80580  0.70790  1.0000 -0.0712262248
C   C53       1.0  0.99290  0.30580  0.29210  1.0000 -0.0712262248
C   C54       1.0  0.99290  0.80580  0.20790  1.0000 -0.0712262248
C   C55       1.0  0.50710  0.30580  0.79210  1.0000 -0.0712262248
C   C56       1.0  0.49290  0.19420  0.29210  1.0000 -0.0712262248
C   C57       1.0  0.07370  0.65040  0.72850  1.0000 -0.0767749272
C   C58       1.0  0.07370  0.15040  0.77150  1.0000 -0.0767749272
C   C59       1.0  0.42630  0.65040  0.22850  1.0000 -0.0767749272
C   C60       1.0  0.57370  0.84960  0.72850  1.0000 -0.0767749272
C   C61       1.0  0.92630  0.34960  0.27150  1.0000 -0.0767749272
C   C62       1.0  0.92630  0.84960  0.22850  1.0000 -0.0767749272
C   C63       1.0  0.57370  0.34960  0.77150  1.0000 -0.0767749272
C   C64       1.0  0.42630  0.15040  0.27150  1.0000 -0.0767749272
C   C65       1.0  0.01880  0.59130  0.64020  1.0000 0.132555223
C   C66       1.0  0.01880  0.09130  0.85980  1.0000 0.132555223
C   C67       1.0  0.48120  0.59130  0.14020  1.0000 0.132555223
C   C68       1.0  0.51880  0.90870  0.64020  1.0000 0.132555223
C   C69       1.0  0.98120  0.40870  0.35980  1.0000 0.132555223
C   C70       1.0  0.98120  0.90870  0.14020  1.0000 0.132555223
C   C71       1.0  0.51880  0.40870  0.85980  1.0000 0.132555223
C   C72       1.0  0.48120  0.09130  0.35980  1.0000 0.132555223
C   C73       1.0  0.64960  0.56930  0.67730  1.0000 -0.0712262248
C   C74       1.0  0.64960  0.06930  0.82270  1.0000 -0.0712262248
C   C75       1.0  0.85040  0.56930  0.17730  1.0000 -0.0712262248
C   C76       1.0  0.14960  0.93070  0.67730  1.0000 -0.0712262248
C   C77       1.0  0.35040  0.43070  0.32270  1.0000 -0.0712262248
C   C78       1.0  0.35040  0.93070  0.17730  1.0000 -0.0712262248
C   C79       1.0  0.14960  0.43070  0.82270  1.0000 -0.0712262248
C   C80       1.0  0.85040  0.06930  0.32270  1.0000 -0.0712262248
C   C81       1.0  0.68990  0.61380  0.62680  1.0000 -0.0767749272
C   C82       1.0  0.68990  0.11380  0.87320  1.0000 -0.0767749272
C   C83       1.0  0.81010  0.61380  0.12680  1.0000 -0.0767749272
C   C84       1.0  0.18990  0.88620  0.62680  1.0000 -0.0767749272
C   C85       1.0  0.31010  0.38620  0.37320  1.0000 -0.0767749272
C   C86       1.0  0.31010  0.88620  0.12680  1.0000 -0.0767749272
C   C87       1.0  0.18990  0.38620  0.87320  1.0000 -0.0767749272
C   C88       1.0  0.81010  0.11380  0.37320  1.0000 -0.0767749272
C   C89       1.0  0.77340  0.58610  0.71090  1.0000 0.132555223
C   C90       1.0  0.77340  0.08610  0.78910  1.0000 0.132555223
C   C91       1.0  0.72660  0.58610  0.21090  1.0000 0.132555223
C   C92       1.0  0.27340  0.91390  0.71090  1.0000 0.132555223
C   C93       1.0  0.22660  0.41390  0.28910  1.0000 0.132555223
C   C94       1.0  0.22660  0.91390  0.21090  1.0000 0.132555223
C   C95       1.0  0.27340  0.41390  0.78910  1.0000 0.132555223
C   C96       1.0  0.72660  0.08610  0.28910  1.0000 0.132555223
N   N1        1.0  0.84470  0.80966  0.61272  1.0000 -0.301415423
N   N2        1.0  0.84470  0.30966  0.88728  1.0000 -0.301415423
N   N3        1.0  0.65530  0.80966  0.11272  1.0000 -0.301415423
N   N4        1.0  0.34470  0.69034  0.61272  1.0000 -0.301415423
N   N5        1.0  0.15530  0.19034  0.38728  1.0000 -0.301415423
N   N6        1.0  0.15530  0.69034  0.11272  1.0000 -0.301415423
N   N7        1.0  0.34470  0.19034  0.88728  1.0000 -0.301415423
N   N8        1.0  0.65530  0.30966  0.38728  1.0000 -0.301415423
N   N9        1.0  0.77360  0.92712  0.63945  1.0000 -0.301415423
N   N10       1.0  0.77360  0.42712  0.86055  1.0000 -0.301415423
N   N11       1.0  0.72640  0.92712  0.13945  1.0000 -0.301415423
N   N12       1.0  0.27360  0.57288  0.63945  1.0000 -0.301415423
N   N13       1.0  0.22640  0.07288  0.36055  1.0000 -0.301415423
N   N14       1.0  0.22640  0.57288  0.13945  1.0000 -0.301415423
N   N15       1.0  0.27360  0.07288  0.86055  1.0000 -0.301415423
N   N16       1.0  0.72640  0.42712  0.36055  1.0000 -0.301415423
N   N17       1.0  0.86578  0.65787  0.49770  1.0000 -0.3091423087
N   N18       1.0  0.86578  0.15787  0.00230  1.0000 -0.3091423087
N   N19       1.0  0.63422  0.65787  0.99770  1.0000 -0.3091423087
N   N20       1.0  0.36578  0.84213  0.49770  1.0000 -0.3091423087
N   N21       1.0  0.13422  0.34213  0.50230  1.0000 -0.3091423087
N   N22       1.0  0.13422  0.84213  0.99770  1.0000 -0.3091423087
N   N23       1.0  0.36578  0.34213  0.00230  1.0000 -0.3091423087
N   N24       1.0  0.63422  0.15787  0.50230  1.0000 -0.3091423087
N   N25       1.0  0.85012  0.58465  0.39452  1.0000 -0.301415423
N   N26       1.0  0.85012  0.08465  0.10548  1.0000 -0.301415423
N   N27       1.0  0.64988  0.58465  0.89452  1.0000 -0.301415423
N   N28       1.0  0.35012  0.91535  0.39452  1.0000 -0.301415423
N   N29       1.0  0.14988  0.41535  0.60548  1.0000 -0.301415423
N   N30       1.0  0.14988  0.91535  0.89452  1.0000 -0.301415423
N   N31       1.0  0.35012  0.41535  0.10548  1.0000 -0.301415423
N   N32       1.0  0.64988  0.08465  0.60548  1.0000 -0.301415423
N   N33       1.0  0.96900  0.65693  0.65094  1.0000 -0.3091423087
N   N34       1.0  0.96900  0.15693  0.84906  1.0000 -0.3091423087
N   N35       1.0  0.53100  0.65693  0.15094  1.0000 -0.3091423087
N   N36       1.0  0.46900  0.84307  0.65094  1.0000 -0.3091423087
N   N37       1.0  0.03100  0.34307  0.34906  1.0000 -0.3091423087
N   N38       1.0  0.03100  0.84307  0.15094  1.0000 -0.3091423087
N   N39       1.0  0.46900  0.34307  0.84906  1.0000 -0.3091423087
N   N40       1.0  0.53100  0.15693  0.34906  1.0000 -0.3091423087
N   N41       1.0  0.08258  0.58358  0.68436  1.0000 -0.301415423
N   N42       1.0  0.08258  0.08358  0.81564  1.0000 -0.301415423
N   N43       1.0  0.41742  0.58358  0.18436  1.0000 -0.301415423
N   N44       1.0  0.58258  0.91642  0.68436  1.0000 -0.301415423
N   N45       1.0  0.91742  0.41642  0.31564  1.0000 -0.301415423
N   N46       1.0  0.91742  0.91642  0.18436  1.0000 -0.301415423
N   N47       1.0  0.58258  0.41642  0.81564  1.0000 -0.301415423
N   N48       1.0  0.41742  0.08358  0.31564  1.0000 -0.301415423
N   N49       1.0  0.70260  0.55027  0.73175  1.0000 -0.289203656
N   N50       1.0  0.70260  0.05027  0.76825  1.0000 -0.289203656
N   N51       1.0  0.79740  0.55027  0.23175  1.0000 -0.289203656
N   N52       1.0  0.20260  0.94973  0.73175  1.0000 -0.289203656
N   N53       1.0  0.29740  0.44973  0.26825  1.0000 -0.289203656
N   N54       1.0  0.29740  0.94973  0.23175  1.0000 -0.289203656
N   N55       1.0  0.20260  0.44973  0.76825  1.0000 -0.289203656
N   N56       1.0  0.79740  0.05027  0.26825  1.0000 -0.289203656
N   N57       1.0  0.77050  0.62563  0.64759  1.0000 -0.3091423087
N   N58       1.0  0.77050  0.12563  0.85241  1.0000 -0.3091423087
N   N59       1.0  0.72950  0.62563  0.14759  1.0000 -0.3091423087
N   N60       1.0  0.27050  0.87437  0.64759  1.0000 -0.3091423087
N   N61       1.0  0.22950  0.37437  0.35241  1.0000 -0.3091423087
N   N62       1.0  0.22950  0.87437  0.14759  1.0000 -0.3091423087
N   N63       1.0  0.27050  0.37437  0.85241  1.0000 -0.3091423087
N   N64       1.0  0.72950  0.12563  0.35241  1.0000 -0.3091423087
