# DDEC6 charges by PACMAN v1.1 (https://github.com/mtap-research/PACMAN-charge/)
data_2004[Pr][sqc]3[FSR]1
_chemical_formula_sum              "Pr2 H32 C18 O16"
_cell_length_a       8.655
_cell_length_b       9.9366
_cell_length_c       11.717
_cell_angle_alpha    105.29
_cell_angle_beta     110.205
_cell_angle_gamma    85.959

_symmetry_space_group_name_H-M    "P 1"
_symmetry_Int_Tables_number       1

loop_
  _symmetry_equiv_pos_as_xyz
  'x, y, z'

loop_
  _atom_site_type_symbol
  _atom_site_label
  _atom_site_symmetry_multiplicity
  _atom_site_fract_x
  _atom_site_fract_y
  _atom_site_fract_z
  _atom_site_occupancy
  _atom_site_charge
Pr  Pr1       1.0  0.74555  0.97761  0.98808  1.0000 2.0455259897
Pr  Pr2       1.0  0.25445  0.02239  0.01192  1.0000 2.0455259897
H   H1        1.0  0.26560  0.97540  0.32790  1.0000 0.1457415141
H   H2        1.0  0.73440  0.02460  0.67210  1.0000 0.1457415141
H   H3        1.0  0.24580  0.81350  0.27460  1.0000 0.1412998654
H   H4        1.0  0.75420  0.18650  0.72540  1.0000 0.1412998654
H   H5        1.0  0.09510  0.79840  0.39720  1.0000 0.0981558827
H   H6        1.0  0.90490  0.20160  0.60280  1.0000 0.0981558827
H   H7        1.0  0.08570  0.96140  0.43960  1.0000 0.0940721623
H   H8        1.0  0.91430  0.03860  0.56040  1.0000 0.0940721623
H   H9        1.0  0.37420  0.97290  0.54290  1.0000 0.0981558827
H   H10       1.0  0.62580  0.02710  0.45710  1.0000 0.0981558827
H   H11       1.0  0.37620  0.80960  0.50660  1.0000 0.0981558827
H   H12       1.0  0.62380  0.19040  0.49340  1.0000 0.0981558827
H   H13       1.0  0.20450  0.95950  0.66350  1.0000 0.1412998654
H   H14       1.0  0.79550  0.04050  0.33650  1.0000 0.1412998654
H   H15       1.0  0.23380  0.79870  0.63760  1.0000 0.1412998654
H   H16       1.0  0.76620  0.20130  0.36240  1.0000 0.1412998654
H   H17       1.0  0.75490  0.48330  0.78170  1.0000 0.1316815011
H   H18       1.0  0.24510  0.51670  0.21830  1.0000 0.1316815011
H   H19       1.0  0.72090  0.46960  0.90120  1.0000 0.1316815011
H   H20       1.0  0.27910  0.53040  0.09880  1.0000 0.1316815011
H   H21       1.0  0.03490  0.52250  0.89730  1.0000 0.0940721623
H   H22       1.0  0.96510  0.47750  0.10270  1.0000 0.0940721623
H   H23       1.0  0.97670  0.37820  0.90060  1.0000 0.1063026778
H   H24       1.0  0.02330  0.62180  0.09940  1.0000 0.1063026778
H   H25       1.0  0.96700  0.22600  0.15000  1.0000 0.3266781337
H   H26       1.0  0.03300  0.77400  0.85000  1.0000 0.3266781337
H   H27       1.0  0.83200  0.26400  0.16800  1.0000 0.2817207791
H   H28       1.0  0.16800  0.73600  0.83200  1.0000 0.2817207791
H   H29       1.0  0.64400  0.26300  0.95600  1.0000 0.2660567976
H   H30       1.0  0.35600  0.73700  0.04400  1.0000 0.2660567976
H   H31       1.0  0.53800  0.20800  0.86800  1.0000 0.2817207791
H   H32       1.0  0.46200  0.79200  0.13200  1.0000 0.2817207791
C   C1        1.0  0.04460  0.91560  0.19320  1.0000 0.6607294298
C   C2        1.0  0.95540  0.08440  0.80680  1.0000 0.6607294298
C   C3        1.0  0.18990  0.89700  0.30280  1.0000 -0.3471950077
C   C4        1.0  0.81010  0.10300  0.69720  1.0000 -0.3471950077
C   C5        1.0  0.15500  0.88530  0.41710  1.0000 -0.1225582797
C   C6        1.0  0.84500  0.11470  0.58290  1.0000 -0.1225582797
C   C7        1.0  0.31090  0.88940  0.52800  1.0000 -0.1225582797
C   C8        1.0  0.68910  0.11060  0.47200  1.0000 -0.1225582797
C   C9        1.0  0.28290  0.88820  0.64880  1.0000 -0.3393177025
C   C10       1.0  0.71710  0.11180  0.35120  1.0000 -0.3393177025
C   C11       1.0  0.56440  0.08730  0.23670  1.0000 0.669098518
C   C12       1.0  0.43560  0.91270  0.76330  1.0000 0.669098518
C   C13       1.0  0.76220  0.67150  0.90720  1.0000 0.6355016746
C   C14       1.0  0.23780  0.32850  0.09280  1.0000 0.6355016746
C   C15       1.0  0.78940  0.51660  0.87260  1.0000 -0.31983281
C   C16       1.0  0.21060  0.48340  0.12740  1.0000 -0.31983281
C   C17       1.0  0.96720  0.47840  0.92870  1.0000 -0.1346081279
C   C18       1.0  0.03280  0.52160  0.07130  1.0000 -0.1346081279
O   O1        1.0  0.57770  0.04480  0.12788  1.0000 -0.7449821614
O   O2        1.0  0.42230  0.95520  0.87212  1.0000 -0.7458950065
O   O3        1.0  0.57510  0.89270  0.75320  1.0000 -0.6024223847
O   O4        1.0  0.42490  0.10730  0.24680  1.0000 -0.6024223847
O   O5        1.0  0.86250  0.75300  0.90170  1.0000 -0.630256661
O   O6        1.0  0.13750  0.24700  0.09830  1.0000 -0.630256661
O   O7        1.0  0.64160  0.71860  0.94090  1.0000 -0.6383168183
O   O8        1.0  0.35840  0.28140  0.05910  1.0000 -0.6383168183
O   O9        1.0  0.90060  0.88360  0.18120  1.0000 -0.6024223847
O   O10       1.0  0.09940  0.11640  0.81880  1.0000 -0.6024223847
O   O11       1.0  0.06810  0.96470  0.11092  1.0000 -0.7321361981
O   O12       1.0  0.93190  0.03530  0.88908  1.0000 -0.7321361981
O   O13       1.0  0.62430  0.19730  0.91210  1.0000 -0.6024223847
O   O14       1.0  0.37570  0.80270  0.08790  1.0000 -0.6024223847
O   O15       1.0  0.87160  0.20190  0.15260  1.0000 -0.6494652413
O   O16       1.0  0.12840  0.79810  0.84740  1.0000 -0.6494652413
