# DDEC6 charges by PACMAN v1.1 (https://github.com/mtap-research/PACMAN-charge/)
data_2004[Cu][dia]3[FSR]2
_chemical_formula_sum              "Cu4 H64 C64 S8 Br4"
_cell_length_a       7.082
_cell_length_b       12.357
_cell_length_c       20.724
_cell_angle_alpha    90
_cell_angle_beta     90
_cell_angle_gamma    90

_symmetry_space_group_name_H-M    "P 1"
_symmetry_Int_Tables_number       1

loop_
  _symmetry_equiv_pos_as_xyz
  'x, y, z'

loop_
  _atom_site_type_symbol
  _atom_site_label
  _atom_site_symmetry_multiplicity
  _atom_site_fract_x
  _atom_site_fract_y
  _atom_site_fract_z
  _atom_site_occupancy
  _atom_site_charge
Cu  Cu1       1.0  0.75542  0.66734  0.75000  1.0000 0.1272588936
Cu  Cu2       1.0  0.74458  0.16734  0.25000  1.0000 0.1272588936
Cu  Cu3       1.0  0.25542  0.83266  0.75000  1.0000 0.1272588936
Cu  Cu4       1.0  0.24458  0.33266  0.25000  1.0000 0.1272588936
H   H1        1.0  0.51030  0.75230  0.48820  1.0000 0.1176325776
H   H2        1.0  0.98970  0.25230  0.98820  1.0000 0.1176325776
H   H3        1.0  0.51030  0.75230  0.01180  1.0000 0.1176325776
H   H4        1.0  0.01030  0.74770  0.48820  1.0000 0.1176325776
H   H5        1.0  0.48970  0.24770  0.51180  1.0000 0.1176325776
H   H6        1.0  0.01030  0.74770  0.01180  1.0000 0.1176325776
H   H7        1.0  0.48970  0.24770  0.98820  1.0000 0.1176325776
H   H8        1.0  0.98970  0.25230  0.51180  1.0000 0.1176325776
H   H9        1.0  0.36730  0.67850  0.39640  1.0000 0.1176325776
H   H10       1.0  0.13270  0.17850  0.89640  1.0000 0.1176325776
H   H11       1.0  0.36730  0.67850  0.10360  1.0000 0.1176325776
H   H12       1.0  0.86730  0.82150  0.39640  1.0000 0.1176325776
H   H13       1.0  0.63270  0.32150  0.60360  1.0000 0.1176325776
H   H14       1.0  0.86730  0.82150  0.10360  1.0000 0.1176325776
H   H15       1.0  0.63270  0.32150  0.89640  1.0000 0.1176325776
H   H16       1.0  0.13270  0.17850  0.60360  1.0000 0.1176325776
H   H17       1.0  0.15230  0.43600  0.50600  1.0000 0.1119260078
H   H18       1.0  0.34770  0.93600  0.00600  1.0000 0.1119260078
H   H19       1.0  0.15230  0.43600  0.99400  1.0000 0.1119260078
H   H20       1.0  0.65230  0.06400  0.50600  1.0000 0.1119260078
H   H21       1.0  0.84770  0.56400  0.49400  1.0000 0.1119260078
H   H22       1.0  0.65230  0.06400  0.99400  1.0000 0.1119260078
H   H23       1.0  0.84770  0.56400  0.00600  1.0000 0.1119260078
H   H24       1.0  0.34770  0.93600  0.49400  1.0000 0.1119260078
H   H25       1.0  0.28490  0.51350  0.59780  1.0000 0.1176325776
H   H26       1.0  0.21510  0.01350  0.09780  1.0000 0.1176325776
H   H27       1.0  0.28490  0.51350  0.90220  1.0000 0.1176325776
H   H28       1.0  0.78490  0.98650  0.59780  1.0000 0.1176325776
H   H29       1.0  0.71510  0.48650  0.40220  1.0000 0.1176325776
H   H30       1.0  0.78490  0.98650  0.90220  1.0000 0.1176325776
H   H31       1.0  0.71510  0.48650  0.09780  1.0000 0.1176325776
H   H32       1.0  0.21510  0.01350  0.40220  1.0000 0.1176325776
H   H33       1.0  0.63180  0.72150  0.59400  1.0000 0.1394632121
H   H34       1.0  0.86820  0.22150  0.09400  1.0000 0.1394632121
H   H35       1.0  0.63180  0.72150  0.90600  1.0000 0.1394632121
H   H36       1.0  0.13180  0.77850  0.59400  1.0000 0.1394632121
H   H37       1.0  0.36820  0.27850  0.40600  1.0000 0.1394632121
H   H38       1.0  0.13180  0.77850  0.90600  1.0000 0.1394632121
H   H39       1.0  0.36820  0.27850  0.09400  1.0000 0.1394632121
H   H40       1.0  0.86820  0.22150  0.40600  1.0000 0.1394632121
H   H41       1.0  0.44640  0.72430  0.63380  1.0000 0.1394632121
H   H42       1.0  0.05360  0.22430  0.13380  1.0000 0.1394632121
H   H43       1.0  0.44640  0.72430  0.86620  1.0000 0.1394632121
H   H44       1.0  0.94640  0.77570  0.63380  1.0000 0.1394632121
H   H45       1.0  0.55360  0.27570  0.36620  1.0000 0.1394632121
H   H46       1.0  0.94640  0.77570  0.86620  1.0000 0.1394632121
H   H47       1.0  0.55360  0.27570  0.13380  1.0000 0.1394632121
H   H48       1.0  0.05360  0.22430  0.36620  1.0000 0.1394632121
H   H49       1.0  0.87820  0.46310  0.64510  1.0000 0.1394632121
H   H50       1.0  0.62180  0.96310  0.14510  1.0000 0.1394632121
H   H51       1.0  0.87820  0.46310  0.85490  1.0000 0.1394632121
H   H52       1.0  0.37820  0.03690  0.64510  1.0000 0.1394632121
H   H53       1.0  0.12180  0.53690  0.35490  1.0000 0.1394632121
H   H54       1.0  0.37820  0.03690  0.85490  1.0000 0.1394632121
H   H55       1.0  0.12180  0.53690  0.14510  1.0000 0.1394632121
H   H56       1.0  0.62180  0.96310  0.35490  1.0000 0.1394632121
H   H57       1.0  0.90120  0.56810  0.60490  1.0000 0.1394632121
H   H58       1.0  0.59880  0.06810  0.10490  1.0000 0.1394632121
H   H59       1.0  0.90120  0.56810  0.89510  1.0000 0.1394632121
H   H60       1.0  0.40120  0.93190  0.60490  1.0000 0.1394632121
H   H61       1.0  0.09880  0.43190  0.39510  1.0000 0.1394632121
H   H62       1.0  0.40120  0.93190  0.89510  1.0000 0.1394632121
H   H63       1.0  0.09880  0.43190  0.10490  1.0000 0.1394632121
H   H64       1.0  0.59880  0.06810  0.39510  1.0000 0.1394632121
C   C1        1.0  0.43930  0.68700  0.49182  1.0000 -0.1668925064
C   C2        1.0  0.06070  0.18700  0.99182  1.0000 -0.1668925064
C   C3        1.0  0.43930  0.68700  0.00818  1.0000 -0.1668925064
C   C4        1.0  0.93930  0.81300  0.49182  1.0000 -0.1668925064
C   C5        1.0  0.56070  0.31300  0.50818  1.0000 -0.1668925064
C   C6        1.0  0.93930  0.81300  0.00818  1.0000 -0.1668925064
C   C7        1.0  0.56070  0.31300  0.99182  1.0000 -0.1668925064
C   C8        1.0  0.06070  0.18700  0.50818  1.0000 -0.1668925064
C   C9        1.0  0.35520  0.64260  0.43699  1.0000 -0.1630502196
C   C10       1.0  0.14480  0.14260  0.93699  1.0000 -0.1630502196
C   C11       1.0  0.35520  0.64260  0.06301  1.0000 -0.1630502196
C   C12       1.0  0.85520  0.85740  0.43699  1.0000 -0.1630502196
C   C13       1.0  0.64480  0.35740  0.56301  1.0000 -0.1630502196
C   C14       1.0  0.85520  0.85740  0.06301  1.0000 -0.1630502196
C   C15       1.0  0.64480  0.35740  0.93699  1.0000 -0.1630502196
C   C16       1.0  0.14480  0.14260  0.56301  1.0000 -0.1630502196
C   C17       1.0  0.25330  0.54590  0.44146  1.0000 0.1272588936
C   C18       1.0  0.24670  0.04590  0.94146  1.0000 0.1272588936
C   C19       1.0  0.25330  0.54590  0.05854  1.0000 0.1272588936
C   C20       1.0  0.75330  0.95410  0.44146  1.0000 0.1272588936
C   C21       1.0  0.74670  0.45410  0.55854  1.0000 0.1272588936
C   C22       1.0  0.75330  0.95410  0.05854  1.0000 0.1272588936
C   C23       1.0  0.74670  0.45410  0.94146  1.0000 0.1272588936
C   C24       1.0  0.24670  0.04590  0.55854  1.0000 0.1272588936
C   C25       1.0  0.22730  0.50020  0.50190  1.0000 -0.1466974037
C   C26       1.0  0.27270  0.00020  0.00190  1.0000 -0.144917153
C   C27       1.0  0.22730  0.50020  0.99810  1.0000 -0.1466974037
C   C28       1.0  0.72730  0.99980  0.50190  1.0000 -0.144917153
C   C29       1.0  0.77270  0.49980  0.49810  1.0000 -0.144917153
C   C30       1.0  0.72730  0.99980  0.99810  1.0000 -0.144917153
C   C31       1.0  0.77270  0.49980  0.00190  1.0000 -0.144917153
C   C32       1.0  0.27270  0.00020  0.49810  1.0000 -0.144917153
C   C33       1.0  0.30740  0.54530  0.55656  1.0000 -0.1466974037
C   C34       1.0  0.19260  0.04530  0.05656  1.0000 -0.1466974037
C   C35       1.0  0.30740  0.54530  0.94344  1.0000 -0.1466974037
C   C36       1.0  0.80740  0.95470  0.55656  1.0000 -0.1466974037
C   C37       1.0  0.69260  0.45470  0.44344  1.0000 -0.1466974037
C   C38       1.0  0.80740  0.95470  0.94344  1.0000 -0.1466974037
C   C39       1.0  0.69260  0.45470  0.05656  1.0000 -0.1466974037
C   C40       1.0  0.19260  0.04530  0.44344  1.0000 -0.1466974037
C   C41       1.0  0.42120  0.63690  0.55184  1.0000 0.1272588936
C   C42       1.0  0.07880  0.13690  0.05184  1.0000 0.1272588936
C   C43       1.0  0.42120  0.63690  0.94816  1.0000 0.1272588936
C   C44       1.0  0.92120  0.86310  0.55184  1.0000 0.1272588936
C   C45       1.0  0.57880  0.36310  0.44816  1.0000 0.1272588936
C   C46       1.0  0.92120  0.86310  0.94816  1.0000 0.1272588936
C   C47       1.0  0.57880  0.36310  0.05184  1.0000 0.1272588936
C   C48       1.0  0.07880  0.13690  0.44816  1.0000 0.1272588936
C   C49       1.0  0.52860  0.67940  0.60943  1.0000 -0.2933953406
C   C50       1.0  0.97140  0.17940  0.10943  1.0000 -0.2933953406
C   C51       1.0  0.52860  0.67940  0.89057  1.0000 -0.2933953406
C   C52       1.0  0.02860  0.82060  0.60943  1.0000 -0.2933953406
C   C53       1.0  0.47140  0.32060  0.39057  1.0000 -0.2933953406
C   C54       1.0  0.02860  0.82060  0.89057  1.0000 -0.2933953406
C   C55       1.0  0.47140  0.32060  0.10943  1.0000 -0.2933953406
C   C56       1.0  0.97140  0.17940  0.39057  1.0000 -0.2933953406
C   C57       1.0  0.81460  0.51300  0.61770  1.0000 -0.2933953406
C   C58       1.0  0.68540  0.01300  0.11770  1.0000 -0.2933953406
C   C59       1.0  0.81460  0.51300  0.88230  1.0000 -0.2933953406
C   C60       1.0  0.31460  0.98700  0.61770  1.0000 -0.2933953406
C   C61       1.0  0.18540  0.48700  0.38230  1.0000 -0.2933953406
C   C62       1.0  0.31460  0.98700  0.88230  1.0000 -0.2933953406
C   C63       1.0  0.18540  0.48700  0.11770  1.0000 -0.2933953406
C   C64       1.0  0.68540  0.01300  0.38230  1.0000 -0.2933953406
S   S1        1.0  0.62276  0.57594  0.66318  1.0000 0.0816179735
S   S2        1.0  0.87724  0.07594  0.16318  1.0000 0.0816179735
S   S3        1.0  0.62276  0.57594  0.83682  1.0000 0.0816179735
S   S4        1.0  0.12276  0.92406  0.66318  1.0000 0.0816179735
S   S5        1.0  0.37724  0.42406  0.33682  1.0000 0.0816179735
S   S6        1.0  0.12276  0.92406  0.83682  1.0000 0.0816179735
S   S7        1.0  0.37724  0.42406  0.16318  1.0000 0.0816179735
S   S8        1.0  0.87724  0.07594  0.33682  1.0000 0.0816179735
Br  Br1       1.0  0.10504  0.65171  0.75000  1.0000 -0.4272975402
Br  Br2       1.0  0.39496  0.15171  0.25000  1.0000 -0.4272975402
Br  Br3       1.0  0.60504  0.84829  0.75000  1.0000 -0.4272975402
Br  Br4       1.0  0.89496  0.34829  0.25000  1.0000 -0.4272975402
