# DDEC6 charges by PACMAN v1.1 (https://github.com/mtap-research/PACMAN-charge/)
data_2004[Co][pcu]3[FSR]1
_chemical_formula_sum              "Co4 H44 C72 N4 O16"
_cell_length_a       13.1644
_cell_length_b       13.1644
_cell_length_c       12.1277
_cell_angle_alpha    73.1247
_cell_angle_beta     106.875
_cell_angle_gamma    79.8647

_symmetry_space_group_name_H-M    "P 1"
_symmetry_Int_Tables_number       1

loop_
  _symmetry_equiv_pos_as_xyz
  'x, y, z'

loop_
  _atom_site_type_symbol
  _atom_site_label
  _atom_site_symmetry_multiplicity
  _atom_site_fract_x
  _atom_site_fract_y
  _atom_site_fract_z
  _atom_site_occupancy
  _atom_site_charge
Co  Co1       1.0  0.72617  0.83469  0.62234  1.0000 0.8596703456
Co  Co2       1.0  0.16531  0.27383  0.12234  1.0000 0.8596703456
Co  Co3       1.0  0.27383  0.16531  0.37766  1.0000 0.8596703456
Co  Co4       1.0  0.83469  0.72617  0.87766  1.0000 0.8596703456
H   H1        1.0  0.17740  0.71640  0.89590  1.0000 0.1221318701
H   H2        1.0  0.28360  0.82260  0.39590  1.0000 0.1221318701
H   H3        1.0  0.82260  0.28360  0.10410  1.0000 0.1221318701
H   H4        1.0  0.71640  0.17740  0.60410  1.0000 0.1221318701
H   H5        1.0  0.37930  0.69910  0.98650  1.0000 0.1221318701
H   H6        1.0  0.30090  0.62070  0.48650  1.0000 0.1221318701
H   H7        1.0  0.62070  0.30090  0.01350  1.0000 0.1221318701
H   H8        1.0  0.69910  0.37930  0.51350  1.0000 0.1221318701
H   H9        1.0  0.53940  0.71940  0.95950  1.0000 0.1221318701
H   H10       1.0  0.28060  0.46060  0.45950  1.0000 0.1221318701
H   H11       1.0  0.46060  0.28060  0.04050  1.0000 0.1221318701
H   H12       1.0  0.71940  0.53940  0.54050  1.0000 0.1221318701
H   H13       1.0  0.37940  0.86400  0.59260  1.0000 0.1305399906
H   H14       1.0  0.13600  0.62060  0.09260  1.0000 0.1305399906
H   H15       1.0  0.62060  0.13600  0.40740  1.0000 0.1305399906
H   H16       1.0  0.86400  0.37940  0.90740  1.0000 0.1305399906
H   H17       1.0  0.17400  0.89900  0.50400  1.0000 0.1221318701
H   H18       1.0  0.10100  0.82600  0.00400  1.0000 0.1221318701
H   H19       1.0  0.82600  0.10100  0.49600  1.0000 0.1221318701
H   H20       1.0  0.89900  0.17400  0.99600  1.0000 0.1221318701
H   H21       1.0  0.01400  0.87660  0.53100  1.0000 0.1104897245
H   H22       1.0  0.12340  0.98600  0.03100  1.0000 0.1104897245
H   H23       1.0  0.98600  0.12340  0.46900  1.0000 0.1104897245
H   H24       1.0  0.87660  0.01400  0.96900  1.0000 0.1104897245
H   H25       1.0  0.80770  0.88390  0.41000  1.0000 0.1104897245
H   H26       1.0  0.11610  0.19230  0.91000  1.0000 0.1104897245
H   H27       1.0  0.19230  0.11610  0.59000  1.0000 0.1104897245
H   H28       1.0  0.88390  0.80770  0.09000  1.0000 0.1104897245
H   H29       1.0  0.74630  0.94030  0.20030  1.0000 0.1305399906
H   H30       1.0  0.05970  0.25370  0.70030  1.0000 0.1305399906
H   H31       1.0  0.25370  0.05970  0.79970  1.0000 0.1305399906
H   H32       1.0  0.94030  0.74630  0.29970  1.0000 0.1305399906
H   H33       1.0  0.43860  0.96680  0.19640  1.0000 0.1373472558
H   H34       1.0  0.03320  0.56140  0.69640  1.0000 0.1373472558
H   H35       1.0  0.56140  0.03320  0.80360  1.0000 0.1373472558
H   H36       1.0  0.96680  0.43860  0.30360  1.0000 0.1373472558
H   H37       1.0  0.50830  0.91110  0.40870  1.0000 0.1221318701
H   H38       1.0  0.08890  0.49170  0.90870  1.0000 0.1221318701
H   H39       1.0  0.49170  0.08890  0.59130  1.0000 0.1221318701
H   H40       1.0  0.91110  0.50830  0.09130  1.0000 0.1221318701
H   H41       1.0  0.60270  0.00090  0.00320  1.0000 0.1305399906
H   H42       1.0  0.99910  0.39730  0.50320  1.0000 0.1305399906
H   H43       1.0  0.39730  0.99910  0.99680  1.0000 0.1305399906
H   H44       1.0  0.00090  0.60270  0.49680  1.0000 0.1305399906
C   C1        1.0  0.08035  0.79139  0.71790  1.0000 -0.0222156132
C   C2        1.0  0.20861  0.91965  0.21790  1.0000 -0.0222156132
C   C3        1.0  0.91965  0.20861  0.28210  1.0000 -0.0222156132
C   C4        1.0  0.79139  0.08035  0.78210  1.0000 -0.0222156132
C   C5        1.0  0.17748  0.75288  0.81780  1.0000 -0.1673320411
C   C6        1.0  0.24712  0.82252  0.31780  1.0000 -0.1673320411
C   C7        1.0  0.82252  0.24712  0.18220  1.0000 -0.1673320411
C   C8        1.0  0.75288  0.17748  0.68220  1.0000 -0.1673320411
C   C9        1.0  0.27763  0.76763  0.80470  1.0000 0.080238224
C   C10       1.0  0.23237  0.72237  0.30470  1.0000 0.080238224
C   C11       1.0  0.72237  0.23237  0.19530  1.0000 0.080238224
C   C12       1.0  0.76763  0.27763  0.69530  1.0000 0.080238224
C   C13       1.0  0.37869  0.73129  0.90700  1.0000 -0.151614644
C   C14       1.0  0.26871  0.62131  0.40700  1.0000 -0.151614644
C   C15       1.0  0.62131  0.26871  0.09300  1.0000 -0.151614644
C   C16       1.0  0.73129  0.37869  0.59300  1.0000 -0.151614644
C   C17       1.0  0.47423  0.74283  0.89100  1.0000 -0.1111310879
C   C18       1.0  0.25717  0.52577  0.39100  1.0000 -0.1111310879
C   C19       1.0  0.52577  0.25717  0.10900  1.0000 -0.1111310879
C   C20       1.0  0.74283  0.47423  0.60900  1.0000 -0.1111310879
C   C21       1.0  0.47594  0.79006  0.77060  1.0000 -0.0222156132
C   C22       1.0  0.20994  0.52406  0.27060  1.0000 -0.0222156132
C   C23       1.0  0.52406  0.20994  0.22940  1.0000 -0.0222156132
C   C24       1.0  0.79006  0.47594  0.72940  1.0000 -0.0222156132
C   C25       1.0  0.37879  0.82979  0.67100  1.0000 -0.151614644
C   C26       1.0  0.17021  0.62121  0.17100  1.0000 -0.151614644
C   C27       1.0  0.62121  0.17021  0.32900  1.0000 -0.151614644
C   C28       1.0  0.82979  0.37879  0.82900  1.0000 -0.151614644
C   C29       1.0  0.27774  0.82016  0.68440  1.0000 0.0721123116
C   C30       1.0  0.17984  0.72226  0.18440  1.0000 0.0721123116
C   C31       1.0  0.72226  0.17984  0.31560  1.0000 0.0721123116
C   C32       1.0  0.82016  0.27774  0.81560  1.0000 0.0721123116
C   C33       1.0  0.17566  0.86186  0.58280  1.0000 -0.151614644
C   C34       1.0  0.13814  0.82434  0.08280  1.0000 -0.151614644
C   C35       1.0  0.82434  0.13814  0.41720  1.0000 -0.151614644
C   C36       1.0  0.86186  0.17566  0.91720  1.0000 -0.151614644
C   C37       1.0  0.08011  0.84831  0.59880  1.0000 -0.1234321378
C   C38       1.0  0.15169  0.91989  0.09880  1.0000 -0.1234321378
C   C39       1.0  0.91989  0.15169  0.40120  1.0000 -0.1234321378
C   C40       1.0  0.84831  0.08011  0.90120  1.0000 -0.1234321378
C   C41       1.0  0.97390  0.77840  0.73330  1.0000 0.5692690806
C   C42       1.0  0.22160  0.02610  0.23330  1.0000 0.5692690806
C   C43       1.0  0.02610  0.22160  0.26670  1.0000 0.5692690806
C   C44       1.0  0.77840  0.97390  0.76670  1.0000 0.5692690806
C   C45       1.0  0.58355  0.79489  0.75470  1.0000 0.5692690806
C   C46       1.0  0.20511  0.41645  0.25470  1.0000 0.5692690806
C   C47       1.0  0.41645  0.20511  0.24530  1.0000 0.5692690806
C   C48       1.0  0.79489  0.58355  0.74530  1.0000 0.5692690806
C   C49       1.0  0.73222  0.90042  0.36660  1.0000 0.080238224
C   C50       1.0  0.09958  0.26778  0.86660  1.0000 0.080238224
C   C51       1.0  0.26778  0.09958  0.63340  1.0000 0.080238224
C   C52       1.0  0.90042  0.73222  0.13340  1.0000 0.080238224
C   C53       1.0  0.69620  0.93380  0.24050  1.0000 -0.2009224398
C   C54       1.0  0.06620  0.30380  0.74050  1.0000 -0.2009224398
C   C55       1.0  0.30380  0.06620  0.75950  1.0000 -0.2009224398
C   C56       1.0  0.93380  0.69620  0.25950  1.0000 -0.2009224398
C   C57       1.0  0.58508  0.95788  0.17340  1.0000 0.1541086184
C   C58       1.0  0.04212  0.41492  0.67340  1.0000 0.1541086184
C   C59       1.0  0.41492  0.04212  0.82660  1.0000 0.1541086184
C   C60       1.0  0.95788  0.58508  0.32660  1.0000 0.1541086184
C   C61       1.0  0.51433  0.94973  0.23830  1.0000 -0.1844905382
C   C62       1.0  0.05027  0.48567  0.73830  1.0000 -0.1844905382
C   C63       1.0  0.48567  0.05027  0.76170  1.0000 -0.1844905382
C   C64       1.0  0.94973  0.51433  0.26170  1.0000 -0.1844905382
C   C65       1.0  0.55705  0.91585  0.36640  1.0000 0.1104897245
C   C66       1.0  0.08415  0.44295  0.86640  1.0000 0.1104897245
C   C67       1.0  0.44295  0.08415  0.63360  1.0000 0.1104897245
C   C68       1.0  0.91585  0.55705  0.13360  1.0000 0.1104897245
C   C69       1.0  0.54880  0.99140  0.03760  1.0000 -0.1252194299
C   C70       1.0  0.00860  0.45120  0.53760  1.0000 -0.1234321378
C   C71       1.0  0.45120  0.00860  0.96240  1.0000 -0.1234321378
C   C72       1.0  0.99140  0.54880  0.46240  1.0000 -0.1234321378
N   N1        1.0  0.66511  0.88993  0.43110  1.0000 -0.2355061127
N   N2        1.0  0.11007  0.33489  0.93110  1.0000 -0.2355061127
N   N3        1.0  0.33489  0.11007  0.56890  1.0000 -0.2355061127
N   N4        1.0  0.88993  0.66511  0.06890  1.0000 -0.2355061127
O   O1        1.0  0.88824  0.81840  0.63703  1.0000 -0.5622340544
O   O2        1.0  0.18160  0.11176  0.13703  1.0000 -0.5622340544
O   O3        1.0  0.11176  0.18160  0.36297  1.0000 -0.5622340544
O   O4        1.0  0.81840  0.88824  0.86297  1.0000 -0.5622340544
O   O5        1.0  0.97607  0.73043  0.84070  1.0000 -0.5454733176
O   O6        1.0  0.26957  0.02393  0.34070  1.0000 -0.5454733176
O   O7        1.0  0.02393  0.26957  0.15930  1.0000 -0.5454733176
O   O8        1.0  0.73043  0.97607  0.65930  1.0000 -0.5454733176
O   O9        1.0  0.58160  0.83656  0.64635  1.0000 -0.5400917335
O   O10       1.0  0.16344  0.41840  0.14635  1.0000 -0.5400917335
O   O11       1.0  0.41840  0.16344  0.35365  1.0000 -0.5400917335
O   O12       1.0  0.83656  0.58160  0.85365  1.0000 -0.5400917335
O   O13       1.0  0.66956  0.75650  0.85090  1.0000 -0.5622340544
O   O14       1.0  0.24350  0.33044  0.35090  1.0000 -0.5622340544
O   O15       1.0  0.33044  0.24350  0.14910  1.0000 -0.5622340544
O   O16       1.0  0.75650  0.66956  0.64910  1.0000 -0.5622340544
