# DDEC6 charges by PACMAN v1.1 (https://github.com/mtap-research/PACMAN-charge/)
data_2004[VCo][xbe]3[FSR]1
_chemical_formula_sum              "V4 Co4 P4 H72 C60 N12 O40"
_cell_length_a       8.7734
_cell_length_b       17.264
_cell_length_c       15.507
_cell_angle_alpha    90
_cell_angle_beta     93.94
_cell_angle_gamma    90

_symmetry_space_group_name_H-M    "P 1"
_symmetry_Int_Tables_number       1

loop_
  _symmetry_equiv_pos_as_xyz
  'x, y, z'

loop_
  _atom_site_type_symbol
  _atom_site_label
  _atom_site_symmetry_multiplicity
  _atom_site_fract_x
  _atom_site_fract_y
  _atom_site_fract_z
  _atom_site_occupancy
  _atom_site_charge
V   V1        1.0  0.94123  0.98200  0.33416  1.0000 1.708083226
V   V2        1.0  0.05877  0.48200  0.16584  1.0000 1.708083226
V   V3        1.0  0.05877  0.01800  0.66584  1.0000 1.708083226
V   V4        1.0  0.94123  0.51800  0.83416  1.0000 1.708083226
Co  Co1       1.0  0.80822  0.76042  0.63445  1.0000 0.8926548499
Co  Co2       1.0  0.19178  0.26042  0.86555  1.0000 0.8926548499
Co  Co3       1.0  0.19178  0.23958  0.36555  1.0000 0.8926548499
Co  Co4       1.0  0.80822  0.73958  0.13445  1.0000 0.8926548499
P   P1        1.0  0.94376  0.89318  0.51020  1.0000 1.323422088
P   P2        1.0  0.05624  0.39318  0.98980  1.0000 1.323422088
P   P3        1.0  0.05624  0.10682  0.48980  1.0000 1.323422088
P   P4        1.0  0.94376  0.60682  0.01020  1.0000 1.323422088
H   H1        1.0  0.76540  0.99480  0.52100  1.0000 0.1489299871
H   H2        1.0  0.23460  0.49480  0.97900  1.0000 0.1489299871
H   H3        1.0  0.23460  0.00520  0.47900  1.0000 0.1489299871
H   H4        1.0  0.76540  0.50520  0.02100  1.0000 0.1489299871
H   H5        1.0  0.67950  0.91280  0.52280  1.0000 0.1326023775
H   H6        1.0  0.32050  0.41280  0.97720  1.0000 0.1326023775
H   H7        1.0  0.32050  0.08720  0.47720  1.0000 0.1326023775
H   H8        1.0  0.67950  0.58720  0.02280  1.0000 0.1326023775
H   H9        1.0  0.68700  0.83300  0.40510  1.0000 0.140100577
H   H10       1.0  0.31300  0.33300  0.09490  1.0000 0.140100577
H   H11       1.0  0.31300  0.16700  0.59490  1.0000 0.140100577
H   H12       1.0  0.68700  0.66700  0.90510  1.0000 0.140100577
H   H13       1.0  0.55100  0.87670  0.35120  1.0000 0.140100577
H   H14       1.0  0.44900  0.37670  0.14880  1.0000 0.140100577
H   H15       1.0  0.44900  0.12330  0.64880  1.0000 0.140100577
H   H16       1.0  0.55100  0.62330  0.85120  1.0000 0.140100577
H   H17       1.0  0.50290  0.99200  0.37470  1.0000 0.140100577
H   H18       1.0  0.49710  0.49200  0.12530  1.0000 0.140100577
H   H19       1.0  0.49710  0.00800  0.62530  1.0000 0.140100577
H   H20       1.0  0.50290  0.50800  0.87470  1.0000 0.140100577
H   H21       1.0  0.61470  0.05110  0.42750  1.0000 0.140100577
H   H22       1.0  0.38530  0.55110  0.07250  1.0000 0.140100577
H   H23       1.0  0.38530  0.94890  0.57250  1.0000 0.140100577
H   H24       1.0  0.61470  0.44890  0.92750  1.0000 0.140100577
H   H25       1.0  0.46330  0.80780  0.61310  1.0000 0.09965743
H   H26       1.0  0.53670  0.30780  0.88690  1.0000 0.09965743
H   H27       1.0  0.53670  0.19220  0.38690  1.0000 0.09965743
H   H28       1.0  0.46330  0.69220  0.11310  1.0000 0.09965743
H   H29       1.0  0.25910  0.80470  0.51010  1.0000 0.1489299871
H   H30       1.0  0.74090  0.30470  0.98990  1.0000 0.1489299871
H   H31       1.0  0.74090  0.19530  0.48990  1.0000 0.1489299871
H   H32       1.0  0.25910  0.69530  0.01010  1.0000 0.1489299871
H   H33       1.0  0.51360  0.66840  0.36240  1.0000 0.1489299871
H   H34       1.0  0.48640  0.16840  0.13760  1.0000 0.1489299871
H   H35       1.0  0.48640  0.33160  0.63760  1.0000 0.1489299871
H   H36       1.0  0.51360  0.83160  0.86240  1.0000 0.1489299871
H   H37       1.0  0.70930  0.67590  0.47010  1.0000 0.1073483216
H   H38       1.0  0.29070  0.17590  0.02990  1.0000 0.1073483216
H   H39       1.0  0.29070  0.32410  0.52990  1.0000 0.1073483216
H   H40       1.0  0.70930  0.82410  0.97010  1.0000 0.1073483216
H   H41       1.0  0.87120  0.70960  0.32610  1.0000 0.1073483216
H   H42       1.0  0.12880  0.20960  0.17390  1.0000 0.1073483216
H   H43       1.0  0.12880  0.29040  0.67390  1.0000 0.1073483216
H   H44       1.0  0.87120  0.79040  0.82610  1.0000 0.1073483216
H   H45       1.0  0.06350  0.71850  0.43530  1.0000 0.1326023775
H   H46       1.0  0.93650  0.21850  0.06470  1.0000 0.1326023775
H   H47       1.0  0.93650  0.28150  0.56470  1.0000 0.1326023775
H   H48       1.0  0.06350  0.78150  0.93530  1.0000 0.1326023775
H   H49       1.0  0.36400  0.75040  0.25150  1.0000 0.140100577
H   H50       1.0  0.63600  0.25040  0.24850  1.0000 0.140100577
H   H51       1.0  0.63600  0.24960  0.74850  1.0000 0.140100577
H   H52       1.0  0.36400  0.74960  0.75150  1.0000 0.140100577
H   H53       1.0  0.16090  0.74640  0.14790  1.0000 0.09965743
H   H54       1.0  0.83910  0.24640  0.35210  1.0000 0.09965743
H   H55       1.0  0.83910  0.25360  0.85210  1.0000 0.09965743
H   H56       1.0  0.16090  0.75360  0.64790  1.0000 0.09965743
H   H57       1.0  0.96200  0.63400  0.57400  1.0000 0.3327356342
H   H58       1.0  0.03800  0.13400  0.92600  1.0000 0.3327356342
H   H59       1.0  0.03800  0.36600  0.42600  1.0000 0.3327356342
H   H60       1.0  0.96200  0.86600  0.07400  1.0000 0.3327356342
H   H61       1.0  0.88100  0.62500  0.64500  1.0000 0.3327356342
H   H62       1.0  0.11900  0.12500  0.85500  1.0000 0.3327356342
H   H63       1.0  0.11900  0.37500  0.35500  1.0000 0.3327356342
H   H64       1.0  0.88100  0.87500  0.14500  1.0000 0.3327356342
H   H65       1.0  0.79100  0.90200  0.69800  1.0000 0.3509025413
H   H66       1.0  0.20900  0.40200  0.80200  1.0000 0.3509025413
H   H67       1.0  0.20900  0.09800  0.30200  1.0000 0.3509025413
H   H68       1.0  0.79100  0.59800  0.19800  1.0000 0.3509025413
H   H69       1.0  0.64300  0.87800  0.69900  1.0000 0.3327356342
H   H70       1.0  0.35700  0.37800  0.80100  1.0000 0.3327356342
H   H71       1.0  0.35700  0.12200  0.30100  1.0000 0.3327356342
H   H72       1.0  0.64300  0.62200  0.19900  1.0000 0.3327356342
C   C1        1.0  0.75860  0.94260  0.49450  1.0000 -0.4620042977
C   C2        1.0  0.24140  0.44260  0.00550  1.0000 -0.4620042977
C   C3        1.0  0.24140  0.05740  0.50550  1.0000 -0.4620042977
C   C4        1.0  0.75860  0.55740  0.99450  1.0000 -0.4620042977
C   C5        1.0  0.66340  0.87470  0.36240  1.0000 -0.2870458377
C   C6        1.0  0.33660  0.37470  0.13760  1.0000 -0.2870458377
C   C7        1.0  0.33660  0.12530  0.63760  1.0000 -0.2870458377
C   C8        1.0  0.66340  0.62530  0.86240  1.0000 -0.2870458377
C   C9        1.0  0.73480  0.85440  0.27890  1.0000 0.6320629853
C   C10       1.0  0.26520  0.35440  0.22110  1.0000 0.6320629853
C   C11       1.0  0.26520  0.14560  0.72110  1.0000 0.6320629853
C   C12       1.0  0.73480  0.64560  0.77890  1.0000 0.6320629853
C   C13       1.0  0.60820  0.01280  0.37990  1.0000 -0.2870458377
C   C14       1.0  0.39180  0.51280  0.12010  1.0000 -0.2870458377
C   C15       1.0  0.39180  0.98720  0.62010  1.0000 -0.2870458377
C   C16       1.0  0.60820  0.48720  0.87990  1.0000 -0.2870458377
C   C17       1.0  0.64190  0.05310  0.29570  1.0000 0.6216009992
C   C18       1.0  0.35810  0.55310  0.20430  1.0000 0.6216009992
C   C19       1.0  0.35810  0.94690  0.70430  1.0000 0.6216009992
C   C20       1.0  0.64190  0.44690  0.79570  1.0000 0.6216009992
C   C21       1.0  0.47380  0.77990  0.56100  1.0000 0.0729990403
C   C22       1.0  0.52620  0.27990  0.93900  1.0000 0.0729990403
C   C23       1.0  0.52620  0.22010  0.43900  1.0000 0.0729990403
C   C24       1.0  0.47380  0.72010  0.06100  1.0000 0.0729990403
C   C25       1.0  0.35100  0.77810  0.50000  1.0000 -0.1882578109
C   C26       1.0  0.64900  0.27810  0.00000  1.0000 -0.1882578109
C   C27       1.0  0.64900  0.22190  0.50000  1.0000 -0.1882578109
C   C28       1.0  0.35100  0.72190  0.00000  1.0000 -0.1882578109
C   C29       1.0  0.36390  0.73700  0.42370  1.0000 0.1183146189
C   C30       1.0  0.63610  0.23700  0.07630  1.0000 0.1183146189
C   C31       1.0  0.63610  0.26300  0.57630  1.0000 0.1183146189
C   C32       1.0  0.36390  0.76300  0.92370  1.0000 0.1183146189
C   C33       1.0  0.50070  0.69800  0.41310  1.0000 -0.17730922
C   C34       1.0  0.49930  0.19800  0.08690  1.0000 -0.17730922
C   C35       1.0  0.49930  0.30200  0.58690  1.0000 -0.17730922
C   C36       1.0  0.50070  0.80200  0.91310  1.0000 -0.17730922
C   C37       1.0  0.61710  0.70310  0.47770  1.0000 0.0774378615
C   C38       1.0  0.38290  0.20310  0.02230  1.0000 0.0774378615
C   C39       1.0  0.38290  0.29690  0.52230  1.0000 0.0774378615
C   C40       1.0  0.61710  0.79690  0.97770  1.0000 0.0774378615
C   C41       1.0  0.97260  0.71910  0.31110  1.0000 0.0925250786
C   C42       1.0  0.02740  0.21910  0.18890  1.0000 0.0925250786
C   C43       1.0  0.02740  0.28090  0.68890  1.0000 0.0925250786
C   C44       1.0  0.97260  0.78090  0.81110  1.0000 0.0925250786
C   C45       1.0  0.08670  0.72320  0.37650  1.0000 -0.1584674654
C   C46       1.0  0.91330  0.22320  0.12350  1.0000 -0.1584674654
C   C47       1.0  0.91330  0.27680  0.62350  1.0000 -0.1584674654
C   C48       1.0  0.08670  0.77680  0.87650  1.0000 -0.1584674654
C   C49       1.0  0.23630  0.73420  0.35500  1.0000 0.1183146189
C   C50       1.0  0.76370  0.23420  0.14500  1.0000 0.1183146189
C   C51       1.0  0.76370  0.26580  0.64500  1.0000 0.1183146189
C   C52       1.0  0.23630  0.76580  0.85500  1.0000 0.1183146189
C   C53       1.0  0.26300  0.74270  0.26840  1.0000 -0.1584674654
C   C54       1.0  0.73700  0.24270  0.23160  1.0000 -0.1584674654
C   C55       1.0  0.73700  0.25730  0.73160  1.0000 -0.1584674654
C   C56       1.0  0.26300  0.75730  0.76840  1.0000 -0.1584674654
C   C57       1.0  0.14150  0.73980  0.20700  1.0000 0.0925250786
C   C58       1.0  0.85850  0.23980  0.29300  1.0000 0.0925250786
C   C59       1.0  0.85850  0.26020  0.79300  1.0000 0.0925250786
C   C60       1.0  0.14150  0.76020  0.70700  1.0000 0.0925250786
N   N1        1.0  0.71630  0.94939  0.40046  1.0000 -0.0508591843
N   N2        1.0  0.28370  0.44939  0.09954  1.0000 -0.0508591843
N   N3        1.0  0.28370  0.05061  0.59954  1.0000 -0.0508591843
N   N4        1.0  0.71630  0.55061  0.90046  1.0000 -0.0508591843
N   N5        1.0  0.60710  0.74423  0.55025  1.0000 -0.2407573921
N   N6        1.0  0.39290  0.24423  0.94975  1.0000 -0.2407573921
N   N7        1.0  0.39290  0.25577  0.44975  1.0000 -0.2407573921
N   N8        1.0  0.60710  0.75577  0.05025  1.0000 -0.2407573921
N   N9        1.0  0.99720  0.72802  0.22727  1.0000 -0.2494609592
N   N10       1.0  0.00280  0.22802  0.27273  1.0000 -0.2494609592
N   N11       1.0  0.00280  0.27198  0.77273  1.0000 -0.2494609592
N   N12       1.0  0.99720  0.77198  0.72727  1.0000 -0.2494609592
O   O1        1.0  0.91820  0.80932  0.53310  1.0000 -0.7910048825
O   O2        1.0  0.08180  0.30932  0.96690  1.0000 -0.7910048825
O   O3        1.0  0.08180  0.19068  0.46690  1.0000 -0.7910048825
O   O4        1.0  0.91820  0.69068  0.03310  1.0000 -0.7910048825
O   O5        1.0  0.04210  0.93448  0.58096  1.0000 -0.8205494744
O   O6        1.0  0.95790  0.43448  0.91904  1.0000 -0.8205494744
O   O7        1.0  0.95790  0.06552  0.41904  1.0000 -0.8205494744
O   O8        1.0  0.04210  0.56552  0.08096  1.0000 -0.8205494744
O   O9        1.0  0.01290  0.90311  0.42274  1.0000 -0.8109343511
O   O10       1.0  0.98710  0.40311  0.07726  1.0000 -0.8109343511
O   O11       1.0  0.98710  0.09689  0.57726  1.0000 -0.8109343511
O   O12       1.0  0.01290  0.59689  0.92274  1.0000 -0.8109343511
O   O13       1.0  0.85100  0.89396  0.26053  1.0000 -0.580817358
O   O14       1.0  0.14900  0.39396  0.23947  1.0000 -0.580817358
O   O15       1.0  0.14900  0.10604  0.73947  1.0000 -0.580817358
O   O16       1.0  0.85100  0.60604  0.76053  1.0000 -0.580817358
O   O17       1.0  0.68250  0.79931  0.23443  1.0000 -0.5519372088
O   O18       1.0  0.31750  0.29931  0.26557  1.0000 -0.5519372088
O   O19       1.0  0.31750  0.20069  0.76557  1.0000 -0.5519372088
O   O20       1.0  0.68250  0.70069  0.73443  1.0000 -0.5519372088
O   O21       1.0  0.77580  0.04514  0.26937  1.0000 -0.580817358
O   O22       1.0  0.22420  0.54514  0.23063  1.0000 -0.580817358
O   O23       1.0  0.22420  0.95486  0.73063  1.0000 -0.580817358
O   O24       1.0  0.77580  0.45486  0.76937  1.0000 -0.580817358
O   O25       1.0  0.53970  0.09281  0.25840  1.0000 -0.5353190762
O   O26       1.0  0.46030  0.59281  0.24160  1.0000 -0.5353190762
O   O27       1.0  0.46030  0.90719  0.74160  1.0000 -0.5353190762
O   O28       1.0  0.53970  0.40719  0.75840  1.0000 -0.5353190762
O   O29       1.0  0.08640  0.99865  0.27855  1.0000 -0.662259565
O   O30       1.0  0.91360  0.49865  0.22145  1.0000 -0.662259565
O   O31       1.0  0.91360  0.00135  0.72145  1.0000 -0.662259565
O   O32       1.0  0.08640  0.50135  0.77855  1.0000 -0.662259565
O   O33       1.0  0.88410  0.64956  0.59770  1.0000 -0.6525082451
O   O34       1.0  0.11590  0.14956  0.90230  1.0000 -0.6525082451
O   O35       1.0  0.11590  0.35044  0.40230  1.0000 -0.6525082451
O   O36       1.0  0.88410  0.85044  0.09770  1.0000 -0.6525082451
O   O37       1.0  0.73030  0.86745  0.68341  1.0000 -0.6797360045
O   O38       1.0  0.26970  0.36745  0.81659  1.0000 -0.6797360045
O   O39       1.0  0.26970  0.13255  0.31659  1.0000 -0.6797360045
O   O40       1.0  0.73030  0.63255  0.18341  1.0000 -0.6797360045
