# DDEC6 charges by PACMAN v1.1 (https://github.com/mtap-research/PACMAN-charge/)
data_2005[CoAg][utp]3[FSR]1
_chemical_formula_sum              "Co8 Ag8 H240 C344 S8 N72 O24 F24"
_cell_length_a       12.58
_cell_length_b       26.713
_cell_length_c       33.455
_cell_angle_alpha    90
_cell_angle_beta     90
_cell_angle_gamma    90

_symmetry_space_group_name_H-M    "P 1"
_symmetry_Int_Tables_number       1

loop_
  _symmetry_equiv_pos_as_xyz
  'x, y, z'

loop_
  _atom_site_type_symbol
  _atom_site_label
  _atom_site_symmetry_multiplicity
  _atom_site_fract_x
  _atom_site_fract_y
  _atom_site_fract_z
  _atom_site_occupancy
  _atom_site_charge
Co  Co1       1.0  0.01462  0.43124  0.11468  1.0000 0.5291708412
Co  Co2       1.0  0.48538  0.93124  0.88532  1.0000 0.5291708412
Co  Co3       1.0  0.51462  0.93124  0.38532  1.0000 0.5291708412
Co  Co4       1.0  0.98538  0.43124  0.61468  1.0000 0.5291708412
Co  Co5       1.0  0.48538  0.06876  0.61468  1.0000 0.5291708412
Co  Co6       1.0  0.01462  0.56876  0.38532  1.0000 0.5291708412
Co  Co7       1.0  0.98538  0.56876  0.88532  1.0000 0.5291708412
Co  Co8       1.0  0.51462  0.06876  0.11468  1.0000 0.5291708412
Ag  Ag1       1.0  0.24111  0.78008  0.13768  1.0000 0.3102523426
Ag  Ag2       1.0  0.25889  0.28008  0.86232  1.0000 0.3102523426
Ag  Ag3       1.0  0.74111  0.28008  0.36232  1.0000 0.3102523426
Ag  Ag4       1.0  0.75889  0.78008  0.63768  1.0000 0.3102523426
Ag  Ag5       1.0  0.25889  0.71992  0.63768  1.0000 0.3102523426
Ag  Ag6       1.0  0.24111  0.21992  0.36232  1.0000 0.3102523426
Ag  Ag7       1.0  0.75889  0.21992  0.86232  1.0000 0.3102523426
Ag  Ag8       1.0  0.74111  0.71992  0.13768  1.0000 0.3102523426
H   H1        1.0  0.78380  0.45830  0.14370  1.0000 0.1091835036
H   H2        1.0  0.71620  0.95830  0.85630  1.0000 0.1091835036
H   H3        1.0  0.28380  0.95830  0.35630  1.0000 0.1091835036
H   H4        1.0  0.21620  0.45830  0.64370  1.0000 0.1091835036
H   H5        1.0  0.72250  0.54350  0.16320  1.0000 0.1211382043
H   H6        1.0  0.77750  0.04350  0.83680  1.0000 0.1211382043
H   H7        1.0  0.22250  0.04350  0.33680  1.0000 0.1211382043
H   H8        1.0  0.27750  0.54350  0.66320  1.0000 0.1211382043
H   H9        1.0  0.87860  0.60150  0.15580  1.0000 0.1211382043
H   H10       1.0  0.62140  0.10150  0.84420  1.0000 0.1211382043
H   H11       1.0  0.37860  0.10150  0.34420  1.0000 0.1211382043
H   H12       1.0  0.12140  0.60150  0.65580  1.0000 0.1211382043
H   H13       1.0  0.27420  0.57380  0.09880  1.0000 0.1296070169
H   H14       1.0  0.22580  0.07380  0.90120  1.0000 0.1296070169
H   H15       1.0  0.77420  0.07380  0.40120  1.0000 0.1296070169
H   H16       1.0  0.72580  0.57380  0.59880  1.0000 0.1296070169
H   H17       1.0  0.37050  0.49830  0.07340  1.0000 0.1211382043
H   H18       1.0  0.12950  0.99830  0.92660  1.0000 0.1211382043
H   H19       1.0  0.87050  0.99830  0.42660  1.0000 0.1211382043
H   H20       1.0  0.62950  0.49830  0.57340  1.0000 0.1211382043
H   H21       1.0  0.24610  0.42510  0.08040  1.0000 0.102408936
H   H22       1.0  0.25390  0.92510  0.91960  1.0000 0.102408936
H   H23       1.0  0.74610  0.92510  0.41960  1.0000 0.102408936
H   H24       1.0  0.75390  0.42510  0.58040  1.0000 0.102408936
H   H25       1.0  0.18900  0.59630  0.17990  1.0000 0.1296070169
H   H26       1.0  0.31100  0.09630  0.82010  1.0000 0.1296070169
H   H27       1.0  0.68900  0.09630  0.32010  1.0000 0.1296070169
H   H28       1.0  0.81100  0.59630  0.67990  1.0000 0.1296070169
H   H29       1.0  0.23810  0.67960  0.18680  1.0000 0.1091835036
H   H30       1.0  0.26190  0.17960  0.81320  1.0000 0.1091835036
H   H31       1.0  0.73810  0.17960  0.31320  1.0000 0.1091835036
H   H32       1.0  0.76190  0.67960  0.68680  1.0000 0.1091835036
H   H33       1.0  0.05310  0.71980  0.09900  1.0000 0.102408936
H   H34       1.0  0.44690  0.21980  0.90100  1.0000 0.102408936
H   H35       1.0  0.55310  0.21980  0.40100  1.0000 0.102408936
H   H36       1.0  0.94690  0.71980  0.59900  1.0000 0.102408936
H   H37       1.0  0.99530  0.63840  0.08980  1.0000 0.1211382043
H   H38       1.0  0.50470  0.13840  0.91020  1.0000 0.1211382043
H   H39       1.0  0.49530  0.13840  0.41020  1.0000 0.1211382043
H   H40       1.0  0.00470  0.63840  0.58980  1.0000 0.1211382043
H   H41       1.0  0.19450  0.46980  0.17140  1.0000 0.1091835036
H   H42       1.0  0.30550  0.96980  0.82860  1.0000 0.1091835036
H   H43       1.0  0.69450  0.96980  0.32860  1.0000 0.1091835036
H   H44       1.0  0.80550  0.46980  0.67140  1.0000 0.1091835036
H   H45       1.0  0.20610  0.45050  0.24530  1.0000 0.1211382043
H   H46       1.0  0.29390  0.95050  0.75470  1.0000 0.1211382043
H   H47       1.0  0.70610  0.95050  0.25470  1.0000 0.1211382043
H   H48       1.0  0.79390  0.45050  0.74530  1.0000 0.1211382043
H   H49       1.0  0.05160  0.39690  0.26190  1.0000 0.1211382043
H   H50       1.0  0.44840  0.89690  0.73810  1.0000 0.1211382043
H   H51       1.0  0.55160  0.89690  0.23810  1.0000 0.1211382043
H   H52       1.0  0.94840  0.39690  0.76190  1.0000 0.1211382043
H   H53       1.0  0.74170  0.31290  0.17150  1.0000 0.1211382043
H   H54       1.0  0.75830  0.81290  0.82850  1.0000 0.1211382043
H   H55       1.0  0.24170  0.81290  0.32850  1.0000 0.1211382043
H   H56       1.0  0.25830  0.31290  0.67150  1.0000 0.1211382043
H   H57       1.0  0.69340  0.32210  0.09950  1.0000 0.1211382043
H   H58       1.0  0.80660  0.82210  0.90050  1.0000 0.1211382043
H   H59       1.0  0.19340  0.82210  0.40050  1.0000 0.1211382043
H   H60       1.0  0.30660  0.32210  0.59950  1.0000 0.1211382043
H   H61       1.0  0.82880  0.38000  0.06900  1.0000 0.1091835036
H   H62       1.0  0.67120  0.88000  0.93100  1.0000 0.1091835036
H   H63       1.0  0.32880  0.88000  0.43100  1.0000 0.1091835036
H   H64       1.0  0.17120  0.38000  0.56900  1.0000 0.1091835036
H   H65       1.0  0.00510  0.30280  0.24420  1.0000 0.1400441724
H   H66       1.0  0.49490  0.80280  0.75580  1.0000 0.1400441724
H   H67       1.0  0.50510  0.80280  0.25580  1.0000 0.1400441724
H   H68       1.0  0.99490  0.30280  0.74420  1.0000 0.1400441724
H   H69       1.0  0.93870  0.26810  0.30220  1.0000 0.1211382043
H   H70       1.0  0.56130  0.76810  0.69780  1.0000 0.1211382043
H   H71       1.0  0.43870  0.76810  0.19780  1.0000 0.1211382043
H   H72       1.0  0.06130  0.26810  0.80220  1.0000 0.1211382043
H   H73       1.0  0.67380  0.34480  0.29020  1.0000 0.1091835036
H   H74       1.0  0.82620  0.84480  0.70980  1.0000 0.1091835036
H   H75       1.0  0.17380  0.84480  0.20980  1.0000 0.1091835036
H   H76       1.0  0.32620  0.34480  0.79020  1.0000 0.1091835036
H   H77       1.0  0.73350  0.38080  0.23160  1.0000 0.1400441724
H   H78       1.0  0.76650  0.88080  0.76840  1.0000 0.1400441724
H   H79       1.0  0.23350  0.88080  0.26840  1.0000 0.1400441724
H   H80       1.0  0.26650  0.38080  0.73160  1.0000 0.1400441724
H   H81       1.0  0.14760  0.34690  0.15600  1.0000 0.1091835036
H   H82       1.0  0.35240  0.84690  0.84400  1.0000 0.1091835036
H   H83       1.0  0.64760  0.84690  0.34400  1.0000 0.1091835036
H   H84       1.0  0.85240  0.34690  0.65600  1.0000 0.1091835036
H   H85       1.0  0.25110  0.28120  0.11970  1.0000 0.1211382043
H   H86       1.0  0.24890  0.78120  0.88030  1.0000 0.1211382043
H   H87       1.0  0.75110  0.78120  0.38030  1.0000 0.1211382043
H   H88       1.0  0.74890  0.28120  0.61970  1.0000 0.1211382043
H   H89       1.0  0.22650  0.29620  0.04630  1.0000 0.1211382043
H   H90       1.0  0.27350  0.79620  0.95370  1.0000 0.1211382043
H   H91       1.0  0.72650  0.79620  0.45370  1.0000 0.1211382043
H   H92       1.0  0.77350  0.29620  0.54630  1.0000 0.1211382043
H   H93       1.0  0.96240  0.42040  0.96530  1.0000 0.1211382043
H   H94       1.0  0.53760  0.92040  0.03470  1.0000 0.1211382043
H   H95       1.0  0.46240  0.92040  0.53470  1.0000 0.1211382043
H   H96       1.0  0.03760  0.42040  0.46530  1.0000 0.1211382043
H   H97       1.0  0.83530  0.48720  0.98870  1.0000 0.1211382043
H   H98       1.0  0.66470  0.98720  0.01130  1.0000 0.1211382043
H   H99       1.0  0.33530  0.98720  0.51130  1.0000 0.1211382043
H   H100      1.0  0.16470  0.48720  0.48870  1.0000 0.1211382043
H   H101      1.0  0.86120  0.49600  0.06280  1.0000 0.1091835036
H   H102      1.0  0.63880  0.99600  0.93720  1.0000 0.1091835036
H   H103      1.0  0.36120  0.99600  0.43720  1.0000 0.1091835036
H   H104      1.0  0.13880  0.49600  0.56280  1.0000 0.1091835036
H   H105      1.0  0.05500  0.28310  0.99620  1.0000 0.1400441724
H   H106      1.0  0.44500  0.78310  0.00380  1.0000 0.1400441724
H   H107      1.0  0.55500  0.78310  0.50380  1.0000 0.1400441724
H   H108      1.0  0.94500  0.28310  0.49620  1.0000 0.1400441724
H   H109      1.0  0.12250  0.25160  0.93770  1.0000 0.1211382043
H   H110      1.0  0.37750  0.75160  0.06230  1.0000 0.1211382043
H   H111      1.0  0.62250  0.75160  0.56230  1.0000 0.1211382043
H   H112      1.0  0.87750  0.25160  0.43770  1.0000 0.1211382043
H   H113      1.0  0.26500  0.37890  0.91320  1.0000 0.1091835036
H   H114      1.0  0.23500  0.87890  0.08680  1.0000 0.1211382043
H   H115      1.0  0.76500  0.87890  0.58680  1.0000 0.1091835036
H   H116      1.0  0.73500  0.37890  0.41320  1.0000 0.1091835036
H   H117      1.0  0.19750  0.41540  0.97080  1.0000 0.1400441724
H   H118      1.0  0.30250  0.91540  0.02920  1.0000 0.1400441724
H   H119      1.0  0.69750  0.91540  0.52920  1.0000 0.1400441724
H   H120      1.0  0.80250  0.41540  0.47080  1.0000 0.1400441724
H   H121      1.0  0.71620  0.04170  0.64370  1.0000 0.1091835036
H   H122      1.0  0.78380  0.54170  0.35630  1.0000 0.1091835036
H   H123      1.0  0.21620  0.54170  0.85630  1.0000 0.1091835036
H   H124      1.0  0.28380  0.04170  0.14370  1.0000 0.1091835036
H   H125      1.0  0.77750  0.95650  0.66320  1.0000 0.1211382043
H   H126      1.0  0.72250  0.45650  0.33680  1.0000 0.1211382043
H   H127      1.0  0.27750  0.45650  0.83680  1.0000 0.1211382043
H   H128      1.0  0.22250  0.95650  0.16320  1.0000 0.1211382043
H   H129      1.0  0.62140  0.89850  0.65580  1.0000 0.1211382043
H   H130      1.0  0.87860  0.39850  0.34420  1.0000 0.1211382043
H   H131      1.0  0.12140  0.39850  0.84420  1.0000 0.1211382043
H   H132      1.0  0.37860  0.89850  0.15580  1.0000 0.1211382043
H   H133      1.0  0.22580  0.92620  0.59880  1.0000 0.1296070169
H   H134      1.0  0.27420  0.42620  0.40120  1.0000 0.1296070169
H   H135      1.0  0.72580  0.42620  0.90120  1.0000 0.1296070169
H   H136      1.0  0.77420  0.92620  0.09880  1.0000 0.1296070169
H   H137      1.0  0.12950  0.00170  0.57340  1.0000 0.1211382043
H   H138      1.0  0.37050  0.50170  0.42660  1.0000 0.1211382043
H   H139      1.0  0.62950  0.50170  0.92660  1.0000 0.1211382043
H   H140      1.0  0.87050  0.00170  0.07340  1.0000 0.1211382043
H   H141      1.0  0.25390  0.07490  0.58040  1.0000 0.102408936
H   H142      1.0  0.24610  0.57490  0.41960  1.0000 0.102408936
H   H143      1.0  0.75390  0.57490  0.91960  1.0000 0.102408936
H   H144      1.0  0.74610  0.07490  0.08040  1.0000 0.102408936
H   H145      1.0  0.31100  0.90370  0.67990  1.0000 0.1296070169
H   H146      1.0  0.18900  0.40370  0.32010  1.0000 0.1296070169
H   H147      1.0  0.81100  0.40370  0.82010  1.0000 0.1296070169
H   H148      1.0  0.68900  0.90370  0.17990  1.0000 0.1296070169
H   H149      1.0  0.26190  0.82040  0.68680  1.0000 0.1091835036
H   H150      1.0  0.23810  0.32040  0.31320  1.0000 0.1091835036
H   H151      1.0  0.76190  0.32040  0.81320  1.0000 0.1091835036
H   H152      1.0  0.73810  0.82040  0.18680  1.0000 0.1091835036
H   H153      1.0  0.44690  0.78020  0.59900  1.0000 0.102408936
H   H154      1.0  0.05310  0.28020  0.40100  1.0000 0.102408936
H   H155      1.0  0.94690  0.28020  0.90100  1.0000 0.102408936
H   H156      1.0  0.55310  0.78020  0.09900  1.0000 0.102408936
H   H157      1.0  0.50470  0.86160  0.58980  1.0000 0.1211382043
H   H158      1.0  0.99530  0.36160  0.41020  1.0000 0.1211382043
H   H159      1.0  0.00470  0.36160  0.91020  1.0000 0.1211382043
H   H160      1.0  0.49530  0.86160  0.08980  1.0000 0.1211382043
H   H161      1.0  0.30550  0.03020  0.67140  1.0000 0.1091835036
H   H162      1.0  0.19450  0.53020  0.32860  1.0000 0.1091835036
H   H163      1.0  0.80550  0.53020  0.82860  1.0000 0.1091835036
H   H164      1.0  0.69450  0.03020  0.17140  1.0000 0.1091835036
H   H165      1.0  0.29390  0.04950  0.74530  1.0000 0.1211382043
H   H166      1.0  0.20610  0.54950  0.25470  1.0000 0.1211382043
H   H167      1.0  0.79390  0.54950  0.75470  1.0000 0.1211382043
H   H168      1.0  0.70610  0.04950  0.24530  1.0000 0.1211382043
H   H169      1.0  0.44840  0.10310  0.76190  1.0000 0.1211382043
H   H170      1.0  0.05160  0.60310  0.23810  1.0000 0.1211382043
H   H171      1.0  0.94840  0.60310  0.73810  1.0000 0.1211382043
H   H172      1.0  0.55160  0.10310  0.26190  1.0000 0.1211382043
H   H173      1.0  0.75830  0.18710  0.67150  1.0000 0.1211382043
H   H174      1.0  0.74170  0.68710  0.32850  1.0000 0.1211382043
H   H175      1.0  0.25830  0.68710  0.82850  1.0000 0.1211382043
H   H176      1.0  0.24170  0.18710  0.17150  1.0000 0.1211382043
H   H177      1.0  0.80660  0.17790  0.59950  1.0000 0.1211382043
H   H178      1.0  0.69340  0.67790  0.40050  1.0000 0.1211382043
H   H179      1.0  0.30660  0.67790  0.90050  1.0000 0.1211382043
H   H180      1.0  0.19340  0.17790  0.09950  1.0000 0.1211382043
H   H181      1.0  0.67120  0.12000  0.56900  1.0000 0.1091835036
H   H182      1.0  0.82880  0.62000  0.43100  1.0000 0.1091835036
H   H183      1.0  0.17120  0.62000  0.93100  1.0000 0.1091835036
H   H184      1.0  0.32880  0.12000  0.06900  1.0000 0.1091835036
H   H185      1.0  0.49490  0.19720  0.74420  1.0000 0.1400441724
H   H186      1.0  0.00510  0.69720  0.25580  1.0000 0.1400441724
H   H187      1.0  0.99490  0.69720  0.75580  1.0000 0.1400441724
H   H188      1.0  0.50510  0.19720  0.24420  1.0000 0.1400441724
H   H189      1.0  0.56130  0.23190  0.80220  1.0000 0.1211382043
H   H190      1.0  0.93870  0.73190  0.19780  1.0000 0.1211382043
H   H191      1.0  0.06130  0.73190  0.69780  1.0000 0.1211382043
H   H192      1.0  0.43870  0.23190  0.30220  1.0000 0.1211382043
H   H193      1.0  0.82620  0.15520  0.79020  1.0000 0.1091835036
H   H194      1.0  0.67380  0.65520  0.20980  1.0000 0.1091835036
H   H195      1.0  0.32620  0.65520  0.70980  1.0000 0.1091835036
H   H196      1.0  0.17380  0.15520  0.29020  1.0000 0.1091835036
H   H197      1.0  0.76650  0.11920  0.73160  1.0000 0.1400441724
H   H198      1.0  0.73350  0.61920  0.26840  1.0000 0.1400441724
H   H199      1.0  0.26650  0.61920  0.76840  1.0000 0.1400441724
H   H200      1.0  0.23350  0.11920  0.23160  1.0000 0.1400441724
H   H201      1.0  0.35240  0.15310  0.65600  1.0000 0.1091835036
H   H202      1.0  0.14760  0.65310  0.34400  1.0000 0.1091835036
H   H203      1.0  0.85240  0.65310  0.84400  1.0000 0.1091835036
H   H204      1.0  0.64760  0.15310  0.15600  1.0000 0.1091835036
H   H205      1.0  0.24890  0.21880  0.61970  1.0000 0.1211382043
H   H206      1.0  0.25110  0.71880  0.38030  1.0000 0.1211382043
H   H207      1.0  0.74890  0.71880  0.88030  1.0000 0.1211382043
H   H208      1.0  0.75110  0.21880  0.11970  1.0000 0.1211382043
H   H209      1.0  0.27350  0.20380  0.54630  1.0000 0.1211382043
H   H210      1.0  0.22650  0.70380  0.45370  1.0000 0.1211382043
H   H211      1.0  0.77350  0.70380  0.95370  1.0000 0.1211382043
H   H212      1.0  0.72650  0.20380  0.04630  1.0000 0.1211382043
H   H213      1.0  0.53760  0.07960  0.46530  1.0000 0.1211382043
H   H214      1.0  0.96240  0.57960  0.53470  1.0000 0.1211382043
H   H215      1.0  0.03760  0.57960  0.03470  1.0000 0.1211382043
H   H216      1.0  0.46240  0.07960  0.96530  1.0000 0.1211382043
H   H217      1.0  0.66470  0.01280  0.48870  1.0000 0.1211382043
H   H218      1.0  0.83530  0.51280  0.51130  1.0000 0.1211382043
H   H219      1.0  0.16470  0.51280  0.01130  1.0000 0.1211382043
H   H220      1.0  0.33530  0.01280  0.98870  1.0000 0.1211382043
H   H221      1.0  0.63880  0.00400  0.56280  1.0000 0.1091835036
H   H222      1.0  0.86120  0.50400  0.43720  1.0000 0.1091835036
H   H223      1.0  0.13880  0.50400  0.93720  1.0000 0.1091835036
H   H224      1.0  0.36120  0.00400  0.06280  1.0000 0.1091835036
H   H225      1.0  0.44500  0.21690  0.49620  1.0000 0.1400441724
H   H226      1.0  0.05500  0.71690  0.50380  1.0000 0.1400441724
H   H227      1.0  0.94500  0.71690  0.00380  1.0000 0.1400441724
H   H228      1.0  0.55500  0.21690  0.99620  1.0000 0.1400441724
H   H229      1.0  0.37750  0.24840  0.43770  1.0000 0.1211382043
H   H230      1.0  0.12250  0.74840  0.56230  1.0000 0.1211382043
H   H231      1.0  0.87750  0.74840  0.06230  1.0000 0.1211382043
H   H232      1.0  0.62250  0.24840  0.93770  1.0000 0.1211382043
H   H233      1.0  0.23500  0.12110  0.41320  1.0000 0.1091835036
H   H234      1.0  0.26500  0.62110  0.58680  1.0000 0.1091835036
H   H235      1.0  0.73500  0.62110  0.08680  1.0000 0.1211382043
H   H236      1.0  0.76500  0.12110  0.91320  1.0000 0.1091835036
H   H237      1.0  0.30250  0.08460  0.47080  1.0000 0.1400441724
H   H238      1.0  0.19750  0.58460  0.52920  1.0000 0.1400441724
H   H239      1.0  0.80250  0.58460  0.02920  1.0000 0.1400441724
H   H240      1.0  0.69750  0.08460  0.97080  1.0000 0.1400441724
C   C1        1.0  0.82680  0.48753  0.14304  1.0000 0.0299511058
C   C2        1.0  0.67320  0.98753  0.85696  1.0000 0.0299511058
C   C3        1.0  0.32680  0.98753  0.35696  1.0000 0.0299511058
C   C4        1.0  0.17320  0.48753  0.64304  1.0000 0.0299511058
C   C5        1.0  0.79180  0.53486  0.15432  1.0000 -0.158956953
C   C6        1.0  0.70820  0.03486  0.84568  1.0000 -0.158956953
C   C7        1.0  0.29180  0.03486  0.34568  1.0000 -0.158956953
C   C8        1.0  0.20820  0.53486  0.65432  1.0000 -0.158956953
C   C9        1.0  0.87730  0.56670  0.15003  1.0000 -0.2070950342
C   C10       1.0  0.62270  0.06670  0.84997  1.0000 -0.2070950342
C   C11       1.0  0.37730  0.06670  0.34997  1.0000 -0.2070950342
C   C12       1.0  0.12270  0.56670  0.65003  1.0000 -0.2070950342
C   C13       1.0  0.96280  0.53750  0.13530  1.0000 0.1400441724
C   C14       1.0  0.53720  0.03750  0.86470  1.0000 0.1400441724
C   C15       1.0  0.46280  0.03750  0.36470  1.0000 0.1400441724
C   C16       1.0  0.03720  0.53750  0.63530  1.0000 0.1400441724
C   C17       1.0  0.06460  0.55399  0.12524  1.0000 -0.0774801651
C   C18       1.0  0.43540  0.05399  0.87476  1.0000 -0.0774801651
C   C19       1.0  0.56460  0.05399  0.37476  1.0000 -0.0774801651
C   C20       1.0  0.93540  0.55399  0.62524  1.0000 -0.0774801651
C   C21       1.0  0.14390  0.52453  0.10890  1.0000 0.1400441724
C   C22       1.0  0.35610  0.02453  0.89110  1.0000 0.1400441724
C   C23       1.0  0.64390  0.02453  0.39110  1.0000 0.1400441724
C   C24       1.0  0.85610  0.52453  0.60890  1.0000 0.1400441724
C   C25       1.0  0.24720  0.54066  0.09729  1.0000 -0.189963912
C   C26       1.0  0.25280  0.04066  0.90271  1.0000 -0.189963912
C   C27       1.0  0.74720  0.04066  0.40271  1.0000 -0.189963912
C   C28       1.0  0.75280  0.54066  0.59729  1.0000 -0.189963912
C   C29       1.0  0.30000  0.49940  0.08359  1.0000 -0.158956953
C   C30       1.0  0.20000  0.99940  0.91641  1.0000 -0.150902709
C   C31       1.0  0.80000  0.99940  0.41641  1.0000 -0.158956953
C   C32       1.0  0.70000  0.49940  0.58359  1.0000 -0.158956953
C   C33       1.0  0.22940  0.45863  0.08754  1.0000 0.0299511058
C   C34       1.0  0.27060  0.95863  0.91246  1.0000 0.0299511058
C   C35       1.0  0.72940  0.95863  0.41246  1.0000 0.0299511058
C   C36       1.0  0.77060  0.45863  0.58754  1.0000 0.0299511058
C   C37       1.0  0.09050  0.60748  0.13214  1.0000 0.1296070169
C   C38       1.0  0.40950  0.10748  0.86786  1.0000 0.1296070169
C   C39       1.0  0.59050  0.10748  0.36786  1.0000 0.1296070169
C   C40       1.0  0.90950  0.60748  0.63214  1.0000 0.1296070169
C   C41       1.0  0.16100  0.62088  0.16232  1.0000 -0.1832323644
C   C42       1.0  0.33900  0.12088  0.83768  1.0000 -0.1832323644
C   C43       1.0  0.66100  0.12088  0.33768  1.0000 -0.1832323644
C   C44       1.0  0.83900  0.62088  0.66232  1.0000 -0.1832323644
C   C45       1.0  0.18960  0.67085  0.16621  1.0000 0.0748632031
C   C46       1.0  0.31040  0.17085  0.83379  1.0000 0.0809694194
C   C47       1.0  0.68960  0.17085  0.33379  1.0000 0.0809694194
C   C48       1.0  0.81040  0.67085  0.66621  1.0000 0.0809694194
C   C49       1.0  0.08220  0.69426  0.11541  1.0000 0.0809694194
C   C50       1.0  0.41780  0.19426  0.88459  1.0000 0.0809694194
C   C51       1.0  0.58220  0.19426  0.38459  1.0000 0.0809694194
C   C52       1.0  0.91780  0.69426  0.61541  1.0000 0.0809694194
C   C53       1.0  0.04780  0.64549  0.10940  1.0000 -0.189963912
C   C54       1.0  0.45220  0.14549  0.89060  1.0000 -0.189963912
C   C55       1.0  0.54780  0.14549  0.39060  1.0000 -0.189963912
C   C56       1.0  0.95220  0.64549  0.60940  1.0000 -0.189963912
C   C57       1.0  0.14580  0.44948  0.18584  1.0000 0.0299511058
C   C58       1.0  0.35420  0.94948  0.81416  1.0000 0.0299511058
C   C59       1.0  0.64580  0.94948  0.31416  1.0000 0.0299511058
C   C60       1.0  0.85420  0.44948  0.68584  1.0000 0.0299511058
C   C61       1.0  0.15290  0.43904  0.22731  1.0000 -0.150902709
C   C62       1.0  0.34710  0.93904  0.77269  1.0000 -0.150902709
C   C63       1.0  0.65290  0.93904  0.27269  1.0000 -0.150902709
C   C64       1.0  0.84710  0.43904  0.72731  1.0000 -0.150902709
C   C65       1.0  0.06890  0.40951  0.23620  1.0000 -0.1985096693
C   C66       1.0  0.43110  0.90951  0.76380  1.0000 -0.1985096693
C   C67       1.0  0.56890  0.90951  0.26380  1.0000 -0.1985096693
C   C68       1.0  0.93110  0.40951  0.73620  1.0000 -0.1985096693
C   C69       1.0  0.01100  0.40065  0.20036  1.0000 0.1400441724
C   C70       1.0  0.48900  0.90065  0.79964  1.0000 0.1400441724
C   C71       1.0  0.51100  0.90065  0.29964  1.0000 0.1400441724
C   C72       1.0  0.98900  0.40065  0.70036  1.0000 0.1400441724
C   C73       1.0  0.92060  0.37169  0.19556  1.0000 -0.0616693332
C   C74       1.0  0.57940  0.87169  0.80444  1.0000 -0.0616693332
C   C75       1.0  0.42060  0.87169  0.30444  1.0000 -0.0616693332
C   C76       1.0  0.07940  0.37169  0.69556  1.0000 -0.0616693332
C   C77       1.0  0.86650  0.36431  0.15968  1.0000 0.1400441724
C   C78       1.0  0.63350  0.86431  0.84032  1.0000 0.1400441724
C   C79       1.0  0.36650  0.86431  0.34032  1.0000 0.1400441724
C   C80       1.0  0.13350  0.36431  0.65968  1.0000 0.1400441724
C   C81       1.0  0.77710  0.33323  0.15234  1.0000 -0.1985096693
C   C82       1.0  0.72290  0.83323  0.84766  1.0000 -0.1985096693
C   C83       1.0  0.27710  0.83323  0.34766  1.0000 -0.1985096693
C   C84       1.0  0.22290  0.33323  0.65234  1.0000 -0.1985096693
C   C85       1.0  0.75090  0.33780  0.11297  1.0000 -0.158956953
C   C86       1.0  0.74910  0.83780  0.88703  1.0000 -0.158956953
C   C87       1.0  0.25090  0.83780  0.38703  1.0000 -0.158956953
C   C88       1.0  0.24910  0.33780  0.61297  1.0000 -0.158956953
C   C89       1.0  0.82690  0.37059  0.09640  1.0000 0.0386297644
C   C90       1.0  0.67310  0.87059  0.90360  1.0000 0.0386297644
C   C91       1.0  0.32690  0.87059  0.40360  1.0000 0.0386297644
C   C92       1.0  0.17310  0.37059  0.59640  1.0000 0.0386297644
C   C93       1.0  0.87820  0.34634  0.23206  1.0000 0.1211382043
C   C94       1.0  0.62180  0.84634  0.76794  1.0000 0.1211382043
C   C95       1.0  0.37820  0.84634  0.26794  1.0000 0.1211382043
C   C96       1.0  0.12180  0.34634  0.73206  1.0000 0.1211382043
C   C97       1.0  0.93660  0.31232  0.25344  1.0000 -0.1985096693
C   C98       1.0  0.56340  0.81232  0.74656  1.0000 -0.1985096693
C   C99       1.0  0.43660  0.81232  0.24656  1.0000 -0.1985096693
C   C100      1.0  0.06340  0.31232  0.75344  1.0000 -0.1985096693
C   C101      1.0  0.89700  0.29187  0.28811  1.0000 0.0862614458
C   C102      1.0  0.60300  0.79187  0.71189  1.0000 0.0862614458
C   C103      1.0  0.39700  0.79187  0.21189  1.0000 0.0862614458
C   C104      1.0  0.10300  0.29187  0.78811  1.0000 0.0862614458
C   C105      1.0  0.74290  0.33670  0.28079  1.0000 0.0597358413
C   C106      1.0  0.75710  0.83670  0.71921  1.0000 0.0597358413
C   C107      1.0  0.24290  0.83670  0.21921  1.0000 0.0597358413
C   C108      1.0  0.25710  0.33670  0.78079  1.0000 0.0597358413
C   C109      1.0  0.77760  0.35820  0.24594  1.0000 -0.1832323644
C   C110      1.0  0.72240  0.85820  0.75406  1.0000 -0.1832323644
C   C111      1.0  0.27760  0.85820  0.25406  1.0000 -0.1832323644
C   C112      1.0  0.22240  0.35820  0.74594  1.0000 -0.1832323644
C   C113      1.0  0.14990  0.34317  0.12782  1.0000 0.0299511058
C   C114      1.0  0.35010  0.84317  0.87218  1.0000 0.0299511058
C   C115      1.0  0.64990  0.84317  0.37218  1.0000 0.0299511058
C   C116      1.0  0.85010  0.34317  0.62782  1.0000 0.0299511058
C   C117      1.0  0.20890  0.30660  0.10775  1.0000 -0.158956953
C   C118      1.0  0.29110  0.80660  0.89225  1.0000 -0.158956953
C   C119      1.0  0.70890  0.80660  0.39225  1.0000 -0.158956953
C   C120      1.0  0.79110  0.30660  0.60775  1.0000 -0.158956953
C   C121      1.0  0.19430  0.31430  0.06752  1.0000 -0.1985096693
C   C122      1.0  0.30570  0.81430  0.93248  1.0000 -0.1985096693
C   C123      1.0  0.69430  0.81430  0.43248  1.0000 -0.1985096693
C   C124      1.0  0.80570  0.31430  0.56752  1.0000 -0.1985096693
C   C125      1.0  0.12160  0.35483  0.06376  1.0000 0.1400441724
C   C126      1.0  0.37840  0.85483  0.93624  1.0000 0.1296070169
C   C127      1.0  0.62160  0.85483  0.43624  1.0000 0.1400441724
C   C128      1.0  0.87840  0.35483  0.56376  1.0000 0.1400441724
C   C129      1.0  0.08100  0.37533  0.02868  1.0000 -0.0734516455
C   C130      1.0  0.41900  0.87533  0.97132  1.0000 -0.0734516455
C   C131      1.0  0.58100  0.87533  0.47132  1.0000 -0.0734516455
C   C132      1.0  0.91900  0.37533  0.52868  1.0000 -0.0734516455
C   C133      1.0  0.00800  0.41449  0.02625  1.0000 0.1400441724
C   C134      1.0  0.49200  0.91449  0.97375  1.0000 0.1400441724
C   C135      1.0  0.50800  0.91449  0.47375  1.0000 0.1400441724
C   C136      1.0  0.99200  0.41449  0.52625  1.0000 0.1400441724
C   C137      1.0  0.95310  0.43180  0.99196  1.0000 -0.189963912
C   C138      1.0  0.54690  0.93180  0.00804  1.0000 -0.189963912
C   C139      1.0  0.45310  0.93180  0.50804  1.0000 -0.189963912
C   C140      1.0  0.04690  0.43180  0.49196  1.0000 -0.189963912
C   C141      1.0  0.88340  0.46856  0.00478  1.0000 -0.1315549964
C   C142      1.0  0.61660  0.96856  0.99522  1.0000 -0.1315549964
C   C143      1.0  0.38340  0.96856  0.49522  1.0000 -0.1315549964
C   C144      1.0  0.11660  0.46856  0.50478  1.0000 -0.1315549964
C   C145      1.0  0.89820  0.47282  0.04635  1.0000 0.021074282
C   C146      1.0  0.60180  0.97282  0.95365  1.0000 0.021074282
C   C147      1.0  0.39820  0.97282  0.45365  1.0000 0.021074282
C   C148      1.0  0.10180  0.47282  0.54635  1.0000 0.021074282
C   C149      1.0  0.11980  0.35286  0.99065  1.0000 0.1211382043
C   C150      1.0  0.38020  0.85286  0.00935  1.0000 0.1211382043
C   C151      1.0  0.61980  0.85286  0.50935  1.0000 0.1211382043
C   C152      1.0  0.88020  0.35286  0.49065  1.0000 0.1211382043
C   C153      1.0  0.09800  0.30364  0.97963  1.0000 -0.189963912
C   C154      1.0  0.40200  0.80364  0.02037  1.0000 -0.189963912
C   C155      1.0  0.59800  0.80364  0.52037  1.0000 -0.189963912
C   C156      1.0  0.90200  0.30364  0.47963  1.0000 -0.189963912
C   C157      1.0  0.13880  0.28515  0.94483  1.0000 0.0453746246
C   C158      1.0  0.36120  0.78515  0.05517  1.0000 0.0453746246
C   C159      1.0  0.63880  0.78515  0.55517  1.0000 0.0453746246
C   C160      1.0  0.86120  0.28515  0.44483  1.0000 0.0453746246
C   C161      1.0  0.22140  0.35933  0.93033  1.0000 0.0809694194
C   C162      1.0  0.27860  0.85933  0.06967  1.0000 0.0809694194
C   C163      1.0  0.72140  0.85933  0.56967  1.0000 0.0809694194
C   C164      1.0  0.77860  0.35933  0.43033  1.0000 0.0809694194
C   C165      1.0  0.18210  0.38142  0.96487  1.0000 -0.1985096693
C   C166      1.0  0.31790  0.88142  0.03513  1.0000 -0.1985096693
C   C167      1.0  0.68210  0.88142  0.53513  1.0000 -0.1985096693
C   C168      1.0  0.81790  0.38142  0.46487  1.0000 -0.1985096693
C   C169      1.0  0.97250  0.89530  0.14450  1.0000 0.3789630311
C   C170      1.0  0.52750  0.39530  0.85550  1.0000 0.3789630311
C   C171      1.0  0.47250  0.39530  0.35550  1.0000 0.3789630311
C   C172      1.0  0.02750  0.89530  0.64450  1.0000 0.3789630311
C   C173      1.0  0.67320  0.01247  0.64304  1.0000 0.0299511058
C   C174      1.0  0.82680  0.51247  0.35696  1.0000 0.0299511058
C   C175      1.0  0.17320  0.51247  0.85696  1.0000 0.0299511058
C   C176      1.0  0.32680  0.01247  0.14304  1.0000 0.0299511058
C   C177      1.0  0.70820  0.96514  0.65432  1.0000 -0.158956953
C   C178      1.0  0.79180  0.46514  0.34568  1.0000 -0.158956953
C   C179      1.0  0.20820  0.46514  0.84568  1.0000 -0.158956953
C   C180      1.0  0.29180  0.96514  0.15432  1.0000 -0.158956953
C   C181      1.0  0.62270  0.93330  0.65003  1.0000 -0.2070950342
C   C182      1.0  0.87730  0.43330  0.34997  1.0000 -0.2070950342
C   C183      1.0  0.12270  0.43330  0.84997  1.0000 -0.2070950342
C   C184      1.0  0.37730  0.93330  0.15003  1.0000 -0.2070950342
C   C185      1.0  0.53720  0.96250  0.63530  1.0000 0.1400441724
C   C186      1.0  0.96280  0.46250  0.36470  1.0000 0.1400441724
C   C187      1.0  0.03720  0.46250  0.86470  1.0000 0.1400441724
C   C188      1.0  0.46280  0.96250  0.13530  1.0000 0.1400441724
C   C189      1.0  0.43540  0.94601  0.62524  1.0000 -0.0774801651
C   C190      1.0  0.06460  0.44601  0.37476  1.0000 -0.0774801651
C   C191      1.0  0.93540  0.44601  0.87476  1.0000 -0.0774801651
C   C192      1.0  0.56460  0.94601  0.12524  1.0000 -0.0774801651
C   C193      1.0  0.35610  0.97547  0.60890  1.0000 0.1400441724
C   C194      1.0  0.14390  0.47547  0.39110  1.0000 0.1400441724
C   C195      1.0  0.85610  0.47547  0.89110  1.0000 0.1400441724
C   C196      1.0  0.64390  0.97547  0.10890  1.0000 0.1400441724
C   C197      1.0  0.25280  0.95934  0.59729  1.0000 -0.189963912
C   C198      1.0  0.24720  0.45934  0.40271  1.0000 -0.189963912
C   C199      1.0  0.75280  0.45934  0.90271  1.0000 -0.189963912
C   C200      1.0  0.74720  0.95934  0.09729  1.0000 -0.189963912
C   C201      1.0  0.20000  0.00060  0.58359  1.0000 -0.158956953
C   C202      1.0  0.30000  0.50060  0.41641  1.0000 -0.158956953
C   C203      1.0  0.70000  0.50060  0.91641  1.0000 -0.150902709
C   C204      1.0  0.80000  0.00060  0.08359  1.0000 -0.158956953
C   C205      1.0  0.27060  0.04137  0.58754  1.0000 0.0299511058
C   C206      1.0  0.22940  0.54137  0.41246  1.0000 0.0299511058
C   C207      1.0  0.77060  0.54137  0.91246  1.0000 0.0299511058
C   C208      1.0  0.72940  0.04137  0.08754  1.0000 0.0299511058
C   C209      1.0  0.40950  0.89252  0.63214  1.0000 0.1296070169
C   C210      1.0  0.09050  0.39252  0.36786  1.0000 0.1296070169
C   C211      1.0  0.90950  0.39252  0.86786  1.0000 0.1296070169
C   C212      1.0  0.59050  0.89252  0.13214  1.0000 0.1296070169
C   C213      1.0  0.33900  0.87912  0.66232  1.0000 -0.1832323644
C   C214      1.0  0.16100  0.37912  0.33768  1.0000 -0.1832323644
C   C215      1.0  0.83900  0.37912  0.83768  1.0000 -0.1832323644
C   C216      1.0  0.66100  0.87912  0.16232  1.0000 -0.1832323644
C   C217      1.0  0.31040  0.82915  0.66621  1.0000 0.0809694194
C   C218      1.0  0.18960  0.32915  0.33379  1.0000 0.0748632031
C   C219      1.0  0.81040  0.32915  0.83379  1.0000 0.0809694194
C   C220      1.0  0.68960  0.82915  0.16621  1.0000 0.0748632031
C   C221      1.0  0.41780  0.80574  0.61541  1.0000 0.0809694194
C   C222      1.0  0.08220  0.30574  0.38459  1.0000 0.0809694194
C   C223      1.0  0.91780  0.30574  0.88459  1.0000 0.0809694194
C   C224      1.0  0.58220  0.80574  0.11541  1.0000 0.0809694194
C   C225      1.0  0.45220  0.85451  0.60940  1.0000 -0.189963912
C   C226      1.0  0.04780  0.35451  0.39060  1.0000 -0.189963912
C   C227      1.0  0.95220  0.35451  0.89060  1.0000 -0.189963912
C   C228      1.0  0.54780  0.85451  0.10940  1.0000 -0.189963912
C   C229      1.0  0.35420  0.05052  0.68584  1.0000 0.0299511058
C   C230      1.0  0.14580  0.55052  0.31416  1.0000 0.0299511058
C   C231      1.0  0.85420  0.55052  0.81416  1.0000 0.0299511058
C   C232      1.0  0.64580  0.05052  0.18584  1.0000 0.0299511058
C   C233      1.0  0.34710  0.06096  0.72731  1.0000 -0.150902709
C   C234      1.0  0.15290  0.56096  0.27269  1.0000 -0.150902709
C   C235      1.0  0.84710  0.56096  0.77269  1.0000 -0.150902709
C   C236      1.0  0.65290  0.06096  0.22731  1.0000 -0.150902709
C   C237      1.0  0.43110  0.09049  0.73620  1.0000 -0.1985096693
C   C238      1.0  0.06890  0.59049  0.26380  1.0000 -0.1985096693
C   C239      1.0  0.93110  0.59049  0.76380  1.0000 -0.1985096693
C   C240      1.0  0.56890  0.09049  0.23620  1.0000 -0.1985096693
C   C241      1.0  0.48900  0.09935  0.70036  1.0000 0.1400441724
C   C242      1.0  0.01100  0.59935  0.29964  1.0000 0.1400441724
C   C243      1.0  0.98900  0.59935  0.79964  1.0000 0.1400441724
C   C244      1.0  0.51100  0.09935  0.20036  1.0000 0.1400441724
C   C245      1.0  0.57940  0.12831  0.69556  1.0000 -0.0616693332
C   C246      1.0  0.92060  0.62831  0.30444  1.0000 -0.0616693332
C   C247      1.0  0.07940  0.62831  0.80444  1.0000 -0.0616693332
C   C248      1.0  0.42060  0.12831  0.19556  1.0000 -0.0616693332
C   C249      1.0  0.63350  0.13569  0.65968  1.0000 0.1400441724
C   C250      1.0  0.86650  0.63569  0.34032  1.0000 0.1400441724
C   C251      1.0  0.13350  0.63569  0.84032  1.0000 0.1400441724
C   C252      1.0  0.36650  0.13569  0.15968  1.0000 0.1400441724
C   C253      1.0  0.72290  0.16677  0.65234  1.0000 -0.1985096693
C   C254      1.0  0.77710  0.66677  0.34766  1.0000 -0.1985096693
C   C255      1.0  0.22290  0.66677  0.84766  1.0000 -0.1985096693
C   C256      1.0  0.27710  0.16677  0.15234  1.0000 -0.1985096693
C   C257      1.0  0.74910  0.16220  0.61297  1.0000 -0.158956953
C   C258      1.0  0.75090  0.66220  0.38703  1.0000 -0.158956953
C   C259      1.0  0.24910  0.66220  0.88703  1.0000 -0.158956953
C   C260      1.0  0.25090  0.16220  0.11297  1.0000 -0.158956953
C   C261      1.0  0.67310  0.12941  0.59640  1.0000 0.0386297644
C   C262      1.0  0.82690  0.62941  0.40360  1.0000 0.0386297644
C   C263      1.0  0.17310  0.62941  0.90360  1.0000 0.0386297644
C   C264      1.0  0.32690  0.12941  0.09640  1.0000 0.0386297644
C   C265      1.0  0.62180  0.15366  0.73206  1.0000 0.1211382043
C   C266      1.0  0.87820  0.65366  0.26794  1.0000 0.1211382043
C   C267      1.0  0.12180  0.65366  0.76794  1.0000 0.1211382043
C   C268      1.0  0.37820  0.15366  0.23206  1.0000 0.1211382043
C   C269      1.0  0.56340  0.18768  0.75344  1.0000 -0.1985096693
C   C270      1.0  0.93660  0.68768  0.24656  1.0000 -0.1985096693
C   C271      1.0  0.06340  0.68768  0.74656  1.0000 -0.1985096693
C   C272      1.0  0.43660  0.18768  0.25344  1.0000 -0.1985096693
C   C273      1.0  0.60300  0.20813  0.78811  1.0000 0.0862614458
C   C274      1.0  0.89700  0.70813  0.21189  1.0000 0.0862614458
C   C275      1.0  0.10300  0.70813  0.71189  1.0000 0.0862614458
C   C276      1.0  0.39700  0.20813  0.28811  1.0000 0.0862614458
C   C277      1.0  0.75710  0.16330  0.78079  1.0000 0.0597358413
C   C278      1.0  0.74290  0.66330  0.21921  1.0000 0.0597358413
C   C279      1.0  0.25710  0.66330  0.71921  1.0000 0.0597358413
C   C280      1.0  0.24290  0.16330  0.28079  1.0000 0.0597358413
C   C281      1.0  0.72240  0.14180  0.74594  1.0000 -0.1832323644
C   C282      1.0  0.77760  0.64180  0.25406  1.0000 -0.1832323644
C   C283      1.0  0.22240  0.64180  0.75406  1.0000 -0.1832323644
C   C284      1.0  0.27760  0.14180  0.24594  1.0000 -0.1832323644
C   C285      1.0  0.35010  0.15683  0.62782  1.0000 0.0299511058
C   C286      1.0  0.14990  0.65683  0.37218  1.0000 0.0299511058
C   C287      1.0  0.85010  0.65683  0.87218  1.0000 0.0299511058
C   C288      1.0  0.64990  0.15683  0.12782  1.0000 0.0299511058
C   C289      1.0  0.29110  0.19340  0.60775  1.0000 -0.158956953
C   C290      1.0  0.20890  0.69340  0.39225  1.0000 -0.158956953
C   C291      1.0  0.79110  0.69340  0.89225  1.0000 -0.158956953
C   C292      1.0  0.70890  0.19340  0.10775  1.0000 -0.158956953
C   C293      1.0  0.30570  0.18570  0.56752  1.0000 -0.1985096693
C   C294      1.0  0.19430  0.68570  0.43248  1.0000 -0.1985096693
C   C295      1.0  0.80570  0.68570  0.93248  1.0000 -0.1985096693
C   C296      1.0  0.69430  0.18570  0.06752  1.0000 -0.1985096693
C   C297      1.0  0.37840  0.14517  0.56376  1.0000 0.1400441724
C   C298      1.0  0.12160  0.64517  0.43624  1.0000 0.1400441724
C   C299      1.0  0.87840  0.64517  0.93624  1.0000 0.1296070169
C   C300      1.0  0.62160  0.14517  0.06376  1.0000 0.1400441724
C   C301      1.0  0.41900  0.12467  0.52868  1.0000 -0.0734516455
C   C302      1.0  0.08100  0.62467  0.47132  1.0000 -0.0734516455
C   C303      1.0  0.91900  0.62467  0.97132  1.0000 -0.0734516455
C   C304      1.0  0.58100  0.12467  0.02868  1.0000 -0.0734516455
C   C305      1.0  0.49200  0.08551  0.52625  1.0000 0.1400441724
C   C306      1.0  0.00800  0.58551  0.47375  1.0000 0.1400441724
C   C307      1.0  0.99200  0.58551  0.97375  1.0000 0.1400441724
C   C308      1.0  0.50800  0.08551  0.02625  1.0000 0.1400441724
C   C309      1.0  0.54690  0.06820  0.49196  1.0000 -0.189963912
C   C310      1.0  0.95310  0.56820  0.50804  1.0000 -0.189963912
C   C311      1.0  0.04690  0.56820  0.00804  1.0000 -0.189963912
C   C312      1.0  0.45310  0.06820  0.99196  1.0000 -0.189963912
C   C313      1.0  0.61660  0.03144  0.50478  1.0000 -0.1315549964
C   C314      1.0  0.88340  0.53144  0.49522  1.0000 -0.1315549964
C   C315      1.0  0.11660  0.53144  0.99522  1.0000 -0.1315549964
C   C316      1.0  0.38340  0.03144  0.00478  1.0000 -0.1315549964
C   C317      1.0  0.60180  0.02718  0.54635  1.0000 0.021074282
C   C318      1.0  0.89820  0.52718  0.45365  1.0000 0.021074282
C   C319      1.0  0.10180  0.52718  0.95365  1.0000 0.021074282
C   C320      1.0  0.39820  0.02718  0.04635  1.0000 0.021074282
C   C321      1.0  0.38020  0.14714  0.49065  1.0000 0.1211382043
C   C322      1.0  0.11980  0.64714  0.50935  1.0000 0.1211382043
C   C323      1.0  0.88020  0.64714  0.00935  1.0000 0.1211382043
C   C324      1.0  0.61980  0.14714  0.99065  1.0000 0.1211382043
C   C325      1.0  0.40200  0.19636  0.47963  1.0000 -0.189963912
C   C326      1.0  0.09800  0.69636  0.52037  1.0000 -0.189963912
C   C327      1.0  0.90200  0.69636  0.02037  1.0000 -0.189963912
C   C328      1.0  0.59800  0.19636  0.97963  1.0000 -0.189963912
C   C329      1.0  0.36120  0.21485  0.44483  1.0000 0.0453746246
C   C330      1.0  0.13880  0.71485  0.55517  1.0000 0.0453746246
C   C331      1.0  0.86120  0.71485  0.05517  1.0000 0.0453746246
C   C332      1.0  0.63880  0.21485  0.94483  1.0000 0.0453746246
C   C333      1.0  0.27860  0.14067  0.43033  1.0000 0.0809694194
C   C334      1.0  0.22140  0.64067  0.56967  1.0000 0.0809694194
C   C335      1.0  0.77860  0.64067  0.06967  1.0000 0.0809694194
C   C336      1.0  0.72140  0.14067  0.93033  1.0000 0.0809694194
C   C337      1.0  0.31790  0.11858  0.46487  1.0000 -0.1985096693
C   C338      1.0  0.18210  0.61858  0.53513  1.0000 -0.1985096693
C   C339      1.0  0.81790  0.61858  0.03513  1.0000 -0.1985096693
C   C340      1.0  0.68210  0.11858  0.96487  1.0000 -0.1985096693
C   C341      1.0  0.52750  0.60470  0.64450  1.0000 0.3789630311
C   C342      1.0  0.97250  0.10470  0.35550  1.0000 0.3789630311
C   C343      1.0  0.02750  0.10470  0.85550  1.0000 0.3789630311
C   C344      1.0  0.47250  0.60470  0.14450  1.0000 0.3789630311
S   S1        1.0  0.97617  0.83883  0.13228  1.0000 0.9646048772
S   S2        1.0  0.52383  0.33883  0.86772  1.0000 0.9654395061
S   S3        1.0  0.47617  0.33883  0.36772  1.0000 0.9654395061
S   S4        1.0  0.02383  0.83883  0.63228  1.0000 0.9646048772
S   S5        1.0  0.52383  0.66117  0.63228  1.0000 0.9646048772
S   S6        1.0  0.97617  0.16117  0.36772  1.0000 0.9646048772
S   S7        1.0  0.02383  0.16117  0.86772  1.0000 0.9654395061
S   S8        1.0  0.47617  0.66117  0.13228  1.0000 0.9654395061
N   N1        1.0  0.92870  0.48806  0.13116  1.0000 -0.2399837876
N   N2        1.0  0.57130  0.98806  0.86884  1.0000 -0.2399837876
N   N3        1.0  0.42870  0.98806  0.36884  1.0000 -0.2399837876
N   N4        1.0  0.07130  0.48806  0.63116  1.0000 -0.2399837876
N   N5        1.0  0.13590  0.47318  0.10266  1.0000 -0.2399837876
N   N6        1.0  0.36410  0.97318  0.89734  1.0000 -0.2399837876
N   N7        1.0  0.63590  0.97318  0.39734  1.0000 -0.2399837876
N   N8        1.0  0.86410  0.47318  0.60266  1.0000 -0.2399837876
N   N9        1.0  0.15300  0.70718  0.14268  1.0000 -0.189963912
N   N10       1.0  0.34700  0.20718  0.85732  1.0000 -0.189963912
N   N11       1.0  0.65300  0.20718  0.35732  1.0000 -0.189963912
N   N12       1.0  0.84700  0.70718  0.64268  1.0000 -0.189963912
N   N13       1.0  0.06090  0.42669  0.16968  1.0000 -0.2302259783
N   N14       1.0  0.43910  0.92669  0.83032  1.0000 -0.2302259783
N   N15       1.0  0.56090  0.92669  0.33032  1.0000 -0.2302259783
N   N16       1.0  0.93910  0.42669  0.66968  1.0000 -0.2302259783
N   N17       1.0  0.89510  0.38666  0.12354  1.0000 -0.2302259783
N   N18       1.0  0.60490  0.88666  0.87646  1.0000 -0.2302259783
N   N19       1.0  0.39510  0.88666  0.37646  1.0000 -0.2302259783
N   N20       1.0  0.10490  0.38666  0.62354  1.0000 -0.2302259783
N   N21       1.0  0.80250  0.30439  0.30241  1.0000 -0.1985096693
N   N22       1.0  0.69750  0.80439  0.69759  1.0000 -0.1985096693
N   N23       1.0  0.30250  0.80439  0.19759  1.0000 -0.1985096693
N   N24       1.0  0.19750  0.30439  0.80241  1.0000 -0.1985096693
N   N25       1.0  0.09700  0.37219  0.10194  1.0000 -0.2302259783
N   N26       1.0  0.40300  0.87219  0.89806  1.0000 -0.2302259783
N   N27       1.0  0.59700  0.87219  0.39806  1.0000 -0.2302259783
N   N28       1.0  0.90300  0.37219  0.60194  1.0000 -0.2302259783
N   N29       1.0  0.97070  0.44032  0.05990  1.0000 -0.2399837876
N   N30       1.0  0.52930  0.94032  0.94010  1.0000 -0.2399837876
N   N31       1.0  0.47070  0.94032  0.44010  1.0000 -0.2399837876
N   N32       1.0  0.02930  0.44032  0.55990  1.0000 -0.2399837876
N   N33       1.0  0.20120  0.31210  0.91998  1.0000 -0.1985096693
N   N34       1.0  0.29880  0.81210  0.08002  1.0000 -0.1985096693
N   N35       1.0  0.70120  0.81210  0.58002  1.0000 -0.1985096693
N   N36       1.0  0.79880  0.31210  0.41998  1.0000 -0.1985096693
N   N37       1.0  0.57130  0.01194  0.63116  1.0000 -0.2399837876
N   N38       1.0  0.92870  0.51194  0.36884  1.0000 -0.2399837876
N   N39       1.0  0.07130  0.51194  0.86884  1.0000 -0.2399837876
N   N40       1.0  0.42870  0.01194  0.13116  1.0000 -0.2399837876
N   N41       1.0  0.36410  0.02682  0.60266  1.0000 -0.2399837876
N   N42       1.0  0.13590  0.52682  0.39734  1.0000 -0.2399837876
N   N43       1.0  0.86410  0.52682  0.89734  1.0000 -0.2399837876
N   N44       1.0  0.63590  0.02682  0.10266  1.0000 -0.2399837876
N   N45       1.0  0.34700  0.79282  0.64268  1.0000 -0.189963912
N   N46       1.0  0.15300  0.29282  0.35732  1.0000 -0.189963912
N   N47       1.0  0.84700  0.29282  0.85732  1.0000 -0.189963912
N   N48       1.0  0.65300  0.79282  0.14268  1.0000 -0.189963912
N   N49       1.0  0.43910  0.07331  0.66968  1.0000 -0.2302259783
N   N50       1.0  0.06090  0.57331  0.33032  1.0000 -0.2302259783
N   N51       1.0  0.93910  0.57331  0.83032  1.0000 -0.2302259783
N   N52       1.0  0.56090  0.07331  0.16968  1.0000 -0.2302259783
N   N53       1.0  0.60490  0.11334  0.62354  1.0000 -0.2302259783
N   N54       1.0  0.89510  0.61334  0.37646  1.0000 -0.2302259783
N   N55       1.0  0.10490  0.61334  0.87646  1.0000 -0.2302259783
N   N56       1.0  0.39510  0.11334  0.12354  1.0000 -0.2302259783
N   N57       1.0  0.69750  0.19561  0.80241  1.0000 -0.1985096693
N   N58       1.0  0.80250  0.69561  0.19759  1.0000 -0.1985096693
N   N59       1.0  0.19750  0.69561  0.69759  1.0000 -0.1985096693
N   N60       1.0  0.30250  0.19561  0.30241  1.0000 -0.1985096693
N   N61       1.0  0.40300  0.12781  0.60194  1.0000 -0.2302259783
N   N62       1.0  0.09700  0.62781  0.39806  1.0000 -0.2302259783
N   N63       1.0  0.90300  0.62781  0.89806  1.0000 -0.2302259783
N   N64       1.0  0.59700  0.12781  0.10194  1.0000 -0.2302259783
N   N65       1.0  0.52930  0.05968  0.55990  1.0000 -0.2399837876
N   N66       1.0  0.97070  0.55968  0.44010  1.0000 -0.2399837876
N   N67       1.0  0.02930  0.55968  0.94010  1.0000 -0.2399837876
N   N68       1.0  0.47070  0.05968  0.05990  1.0000 -0.2399837876
N   N69       1.0  0.29880  0.18790  0.41998  1.0000 -0.1985096693
N   N70       1.0  0.20120  0.68790  0.58002  1.0000 -0.1985096693
N   N71       1.0  0.79880  0.68790  0.08002  1.0000 -0.1985096693
N   N72       1.0  0.70120  0.18790  0.91998  1.0000 -0.1985096693
O   O1        1.0  0.07800  0.83380  0.12000  1.0000 -0.4918285234
O   O2        1.0  0.42200  0.33380  0.88000  1.0000 -0.4918285234
O   O3        1.0  0.57800  0.33380  0.38000  1.0000 -0.4918285234
O   O4        1.0  0.92200  0.83380  0.62000  1.0000 -0.4918285234
O   O5        1.0  0.95320  0.80830  0.16270  1.0000 -0.5291083975
O   O6        1.0  0.54680  0.30830  0.83730  1.0000 -0.5291083975
O   O7        1.0  0.45320  0.30830  0.33730  1.0000 -0.5291083975
O   O8        1.0  0.04680  0.80830  0.66270  1.0000 -0.5291083975
O   O9        1.0  0.87790  0.84280  0.09340  1.0000 -0.6343150261
O   O10       1.0  0.62210  0.34280  0.90660  1.0000 -0.6343150261
O   O11       1.0  0.37790  0.34280  0.40660  1.0000 -0.6343150261
O   O12       1.0  0.12210  0.84280  0.59340  1.0000 -0.6353276892
O   O13       1.0  0.42200  0.66620  0.62000  1.0000 -0.4918285234
O   O14       1.0  0.07800  0.16620  0.38000  1.0000 -0.4918285234
O   O15       1.0  0.92200  0.16620  0.88000  1.0000 -0.4918285234
O   O16       1.0  0.57800  0.66620  0.12000  1.0000 -0.4918285234
O   O17       1.0  0.54680  0.69170  0.66270  1.0000 -0.5291083975
O   O18       1.0  0.95320  0.19170  0.33730  1.0000 -0.5291083975
O   O19       1.0  0.04680  0.19170  0.83730  1.0000 -0.5291083975
O   O20       1.0  0.45320  0.69170  0.16270  1.0000 -0.5291083975
O   O21       1.0  0.62210  0.65720  0.59340  1.0000 -0.6353276892
O   O22       1.0  0.87790  0.15720  0.40660  1.0000 -0.6343150261
O   O23       1.0  0.12210  0.15720  0.90660  1.0000 -0.6343150261
O   O24       1.0  0.37790  0.65720  0.09340  1.0000 -0.6343150261
F   F1        1.0  0.99800  0.92530  0.10620  1.0000 -0.158956953
F   F2        1.0  0.50200  0.42530  0.89380  1.0000 -0.158956953
F   F3        1.0  0.49800  0.42530  0.39380  1.0000 -0.158956953
F   F4        1.0  0.00200  0.92530  0.60620  1.0000 -0.158956953
F   F5        1.0  0.90320  0.91770  0.16530  1.0000 -0.150902709
F   F6        1.0  0.59680  0.41770  0.83470  1.0000 -0.150902709
F   F7        1.0  0.40320  0.41770  0.33470  1.0000 -0.150902709
F   F8        1.0  0.09680  0.91770  0.66530  1.0000 -0.150902709
F   F9        1.0  0.06570  0.90520  0.17190  1.0000 -0.1832323644
F   F10       1.0  0.43430  0.40520  0.82810  1.0000 -0.1832323644
F   F11       1.0  0.56570  0.40520  0.32810  1.0000 -0.1832323644
F   F12       1.0  0.93430  0.90520  0.67190  1.0000 -0.1832323644
F   F13       1.0  0.50200  0.57470  0.60620  1.0000 -0.158956953
F   F14       1.0  0.99800  0.07470  0.39380  1.0000 -0.158956953
F   F15       1.0  0.00200  0.07470  0.89380  1.0000 -0.158956953
F   F16       1.0  0.49800  0.57470  0.10620  1.0000 -0.158956953
F   F17       1.0  0.59680  0.58230  0.66530  1.0000 -0.150902709
F   F18       1.0  0.90320  0.08230  0.33470  1.0000 -0.150902709
F   F19       1.0  0.09680  0.08230  0.83470  1.0000 -0.150902709
F   F20       1.0  0.40320  0.58230  0.16530  1.0000 -0.150902709
F   F21       1.0  0.43430  0.59480  0.67190  1.0000 -0.1832323644
F   F22       1.0  0.06570  0.09480  0.32810  1.0000 -0.1832323644
F   F23       1.0  0.93430  0.09480  0.82810  1.0000 -0.1832323644
F   F24       1.0  0.56570  0.59480  0.17190  1.0000 -0.1832323644
