# DDEC6 charges by PACMAN v1.1 (https://github.com/mtap-research/PACMAN-charge/)
data_2005[Co][nan]3[FSR]4
_chemical_formula_sum              "Co6 H18 C24 O24"
_cell_length_a       15.2402
_cell_length_b       15.2402
_cell_length_c       15.2402
_cell_angle_alpha    117.879
_cell_angle_beta     117.879
_cell_angle_gamma    117.879

_symmetry_space_group_name_H-M    "P 1"
_symmetry_Int_Tables_number       1

loop_
  _symmetry_equiv_pos_as_xyz
  'x, y, z'

loop_
  _atom_site_type_symbol
  _atom_site_label
  _atom_site_symmetry_multiplicity
  _atom_site_fract_x
  _atom_site_fract_y
  _atom_site_fract_z
  _atom_site_occupancy
  _atom_site_charge
Co  Co1       1.0  0.69801  0.38381  0.96285  1.0000 0.9929198478
Co  Co2       1.0  0.38381  0.96285  0.69801  1.0000 0.9929198478
Co  Co3       1.0  0.96285  0.69801  0.38381  1.0000 0.9929198478
Co  Co4       1.0  0.30199  0.61619  0.03715  1.0000 0.9929198478
Co  Co5       1.0  0.61619  0.03715  0.30199  1.0000 0.9929198478
Co  Co6       1.0  0.03715  0.30199  0.61619  1.0000 0.9929198478
H   H1        1.0  0.42100  0.20400  0.62800  1.0000 0.4021297101
H   H2        1.0  0.20400  0.62800  0.42100  1.0000 0.4021297101
H   H3        1.0  0.62800  0.42100  0.20400  1.0000 0.4021297101
H   H4        1.0  0.57900  0.79600  0.37200  1.0000 0.4021297101
H   H5        1.0  0.79600  0.37200  0.57900  1.0000 0.4021297101
H   H6        1.0  0.37200  0.57900  0.79600  1.0000 0.4021297101
H   H7        1.0  0.66200  0.42100  0.82100  1.0000 0.4021297101
H   H8        1.0  0.42100  0.82100  0.66200  1.0000 0.4021297101
H   H9        1.0  0.82100  0.66200  0.42100  1.0000 0.4021297101
H   H10       1.0  0.33800  0.57900  0.17900  1.0000 0.4021297101
H   H11       1.0  0.57900  0.17900  0.33800  1.0000 0.4021297101
H   H12       1.0  0.17900  0.33800  0.57900  1.0000 0.4021297101
H   H13       1.0  0.69790  0.15010  0.16670  1.0000 0.1401466582
H   H14       1.0  0.15010  0.16670  0.69790  1.0000 0.1401466582
H   H15       1.0  0.16670  0.69790  0.15010  1.0000 0.1401466582
H   H16       1.0  0.30210  0.84990  0.83330  1.0000 0.1401466582
H   H17       1.0  0.84990  0.83330  0.30210  1.0000 0.1401466582
H   H18       1.0  0.83330  0.30210  0.84990  1.0000 0.1401466582
C   C1        1.0  0.76010  0.32270  0.14730  1.0000 0.6194966887
C   C2        1.0  0.32270  0.14730  0.76010  1.0000 0.6194966887
C   C3        1.0  0.14730  0.76010  0.32270  1.0000 0.6194966887
C   C4        1.0  0.23990  0.67730  0.85270  1.0000 0.6194966887
C   C5        1.0  0.67730  0.85270  0.23990  1.0000 0.6194966887
C   C6        1.0  0.85270  0.23990  0.67730  1.0000 0.6194966887
C   C7        1.0  0.88650  0.42080  0.33350  1.0000 -0.1503948416
C   C8        1.0  0.42080  0.33350  0.88650  1.0000 -0.1503948416
C   C9        1.0  0.33350  0.88650  0.42080  1.0000 -0.1503948416
C   C10       1.0  0.11350  0.57920  0.66650  1.0000 -0.1503948416
C   C11       1.0  0.57920  0.66650  0.11350  1.0000 -0.1503948416
C   C12       1.0  0.66650  0.11350  0.57920  1.0000 -0.1503948416
C   C13       1.0  0.07120  0.63740  0.53820  1.0000 0.2818418596
C   C14       1.0  0.63740  0.53820  0.07120  1.0000 0.2818418596
C   C15       1.0  0.53820  0.07120  0.63740  1.0000 0.2818418596
C   C16       1.0  0.92880  0.36260  0.46180  1.0000 0.2818418596
C   C17       1.0  0.36260  0.46180  0.92880  1.0000 0.2818418596
C   C18       1.0  0.46180  0.92880  0.36260  1.0000 0.2818418596
C   C19       1.0  0.82100  0.29190  0.30230  1.0000 -0.2152972714
C   C20       1.0  0.29190  0.30230  0.82100  1.0000 -0.2152972714
C   C21       1.0  0.30230  0.82100  0.29190  1.0000 -0.2152972714
C   C22       1.0  0.17900  0.70810  0.69770  1.0000 -0.2152972714
C   C23       1.0  0.70810  0.69770  0.17900  1.0000 -0.2152972714
C   C24       1.0  0.69770  0.17900  0.70810  1.0000 -0.2152972714
O   O1        1.0  0.81350  0.43400  0.16770  1.0000 -0.6006990816
O   O2        1.0  0.43400  0.16770  0.81350  1.0000 -0.6006990816
O   O3        1.0  0.16770  0.81350  0.43400  1.0000 -0.6006990816
O   O4        1.0  0.18650  0.56600  0.83230  1.0000 -0.6006990816
O   O5        1.0  0.56600  0.83230  0.18650  1.0000 -0.6006990816
O   O6        1.0  0.83230  0.18650  0.56600  1.0000 -0.6006990816
O   O7        1.0  0.60420  0.12960  0.97190  1.0000 -0.5652530934
O   O8        1.0  0.12960  0.97190  0.60420  1.0000 -0.5652530934
O   O9        1.0  0.97190  0.60420  0.12960  1.0000 -0.5652530934
O   O10       1.0  0.39580  0.87040  0.02810  1.0000 -0.5652530934
O   O11       1.0  0.87040  0.02810  0.39580  1.0000 -0.5652530934
O   O12       1.0  0.02810  0.39580  0.87040  1.0000 -0.5652530934
O   O13       1.0  0.14710  0.77720  0.58800  1.0000 -0.6266551759
O   O14       1.0  0.77720  0.58800  0.14710  1.0000 -0.6266551759
O   O15       1.0  0.58800  0.14710  0.77720  1.0000 -0.6266551759
O   O16       1.0  0.85290  0.22280  0.41200  1.0000 -0.6266551759
O   O17       1.0  0.22280  0.41200  0.85290  1.0000 -0.6266551759
O   O18       1.0  0.41200  0.85290  0.22280  1.0000 -0.6266551759
O   O19       1.0  0.55220  0.32190  0.75240  1.0000 -0.6803650107
O   O20       1.0  0.32190  0.75240  0.55220  1.0000 -0.6803650107
O   O21       1.0  0.75240  0.55220  0.32190  1.0000 -0.6803650107
O   O22       1.0  0.44780  0.67810  0.24760  1.0000 -0.6803650107
O   O23       1.0  0.67810  0.24760  0.44780  1.0000 -0.6803650107
O   O24       1.0  0.24760  0.44780  0.67810  1.0000 -0.6803650107
