# DDEC6 charges by PACMAN v1.1 (https://github.com/mtap-research/PACMAN-charge/)
data_2005[Gd][nan]3[FSR]2
_chemical_formula_sum              "Gd16 H144 C288 O112"
_cell_length_a       22.8979
_cell_length_b       22.8979
_cell_length_c       22.8979
_cell_angle_alpha    96.7902
_cell_angle_beta     96.7902
_cell_angle_gamma    139.777

_symmetry_space_group_name_H-M    "P 1"
_symmetry_Int_Tables_number       1

loop_
  _symmetry_equiv_pos_as_xyz
  'x, y, z'

loop_
  _atom_site_type_symbol
  _atom_site_label
  _atom_site_symmetry_multiplicity
  _atom_site_fract_x
  _atom_site_fract_y
  _atom_site_fract_z
  _atom_site_occupancy
  _atom_site_charge
Gd  Gd1       1.0  0.15847  0.95169  0.74674  1.0000 1.9904614859
Gd  Gd2       1.0  0.20496  0.41173  0.25326  1.0000 1.9904614859
Gd  Gd3       1.0  0.66173  0.90847  0.70678  1.0000 1.9904614859
Gd  Gd4       1.0  0.20170  0.95495  0.29323  1.0000 1.9904614859
Gd  Gd5       1.0  0.65847  0.91173  0.20677  1.0000 1.9904614859
Gd  Gd6       1.0  0.70496  0.45170  0.79322  1.0000 1.9904614859
Gd  Gd7       1.0  0.16173  0.45495  0.75326  1.0000 1.9904614859
Gd  Gd8       1.0  0.70169  0.40847  0.24674  1.0000 1.9904614859
Gd  Gd9       1.0  0.40818  0.21443  0.74892  1.0000 1.9904614859
Gd  Gd10      1.0  0.46550  0.65925  0.25107  1.0000 1.9904614859
Gd  Gd11      1.0  0.90926  0.15818  0.69375  1.0000 1.9904614859
Gd  Gd12      1.0  0.46443  0.21551  0.30625  1.0000 1.9904614859
Gd  Gd13      1.0  0.90818  0.15925  0.19375  1.0000 1.9904614859
Gd  Gd14      1.0  0.96550  0.71443  0.80625  1.0000 1.9904614859
Gd  Gd15      1.0  0.40926  0.71550  0.75108  1.0000 1.9904614859
Gd  Gd16      1.0  0.96443  0.65818  0.24893  1.0000 1.9904614859
H   H1        1.0  0.08490  0.08570  0.67780  1.0000 0.1307466836
H   H2        1.0  0.40791  0.40710  0.32221  1.0000 0.1307466836
H   H3        1.0  0.65711  0.83490  0.49920  1.0000 0.1307466836
H   H4        1.0  0.33570  0.15790  0.50080  1.0000 0.1307466836
H   H5        1.0  0.58490  0.90710  0.99920  1.0000 0.1307466836
H   H6        1.0  0.90791  0.58570  0.00080  1.0000 0.1307466836
H   H7        1.0  0.15710  0.65790  0.82220  1.0000 0.1307466836
H   H8        1.0  0.83570  0.33490  0.17779  1.0000 0.1307466836
H   H9        1.0  0.07250  0.17820  0.68310  1.0000 0.1307466836
H   H10       1.0  0.49511  0.38941  0.31690  1.0000 0.1307466836
H   H11       1.0  0.63941  0.82250  0.39430  1.0000 0.1307466836
H   H12       1.0  0.42820  0.24510  0.60570  1.0000 0.1307466836
H   H13       1.0  0.57250  0.88940  0.89430  1.0000 0.1307466836
H   H14       1.0  0.99511  0.67820  0.10570  1.0000 0.1307466836
H   H15       1.0  0.13940  0.74510  0.81690  1.0000 0.1307466836
H   H16       1.0  0.92820  0.32250  0.18310  1.0000 0.1307466836
H   H17       1.0  0.30680  0.43070  0.86909  1.0000 0.1307466836
H   H18       1.0  0.56161  0.43771  0.13090  1.0000 0.1307466836
H   H19       1.0  0.68771  0.05680  0.37610  1.0000 0.1307466836
H   H20       1.0  0.68070  0.31161  0.62390  1.0000 0.1307466836
H   H21       1.0  0.80680  0.93770  0.87610  1.0000 0.1307466836
H   H22       1.0  0.06160  0.93070  0.12390  1.0000 0.1307466836
H   H23       1.0  0.18770  0.81160  0.63091  1.0000 0.1307466836
H   H24       1.0  0.18070  0.55680  0.36910  1.0000 0.1307466836
H   H25       1.0  0.41780  0.47390  0.94610  1.0000 0.1109424421
H   H26       1.0  0.52780  0.47170  0.05390  1.0000 0.1109424421
H   H27       1.0  0.72171  0.16780  0.44390  1.0000 0.1109424421
H   H28       1.0  0.72390  0.27780  0.55610  1.0000 0.1109424421
H   H29       1.0  0.91780  0.97171  0.94390  1.0000 0.1109424421
H   H30       1.0  0.02781  0.97390  0.05610  1.0000 0.1109424421
H   H31       1.0  0.22171  0.77780  0.55390  1.0000 0.1109424421
H   H32       1.0  0.22390  0.66780  0.44609  1.0000 0.1109424421
H   H33       1.0  0.42140  0.37530  0.94309  1.0000 0.1109424421
H   H34       1.0  0.43221  0.47830  0.05690  1.0000 0.1109424421
H   H35       1.0  0.72830  0.17140  0.54610  1.0000 0.1109424421
H   H36       1.0  0.62530  0.18221  0.45390  1.0000 0.1109424421
H   H37       1.0  0.92140  0.97830  0.04610  1.0000 0.1109424421
H   H38       1.0  0.93221  0.87530  0.95390  1.0000 0.1109424421
H   H39       1.0  0.22831  0.68220  0.55690  1.0000 0.1109424421
H   H40       1.0  0.12530  0.67140  0.44310  1.0000 0.1109424421
H   H41       1.0  0.32190  0.23960  0.86209  1.0000 0.1307466836
H   H42       1.0  0.37751  0.45980  0.13790  1.0000 0.1307466836
H   H43       1.0  0.70981  0.07190  0.58230  1.0000 0.1307466836
H   H44       1.0  0.48960  0.12751  0.41770  1.0000 0.1307466836
H   H45       1.0  0.82190  0.95981  0.08230  1.0000 0.1307466836
H   H46       1.0  0.87751  0.73960  0.91770  1.0000 0.1307466836
H   H47       1.0  0.20980  0.62750  0.63791  1.0000 0.1307466836
H   H48       1.0  0.98960  0.57190  0.36210  1.0000 0.1307466836
H   H49       1.0  0.44050  0.93280  0.70449  1.0000 0.1214762171
H   H50       1.0  0.22830  0.73601  0.29551  1.0000 0.1214762171
H   H51       1.0  0.98601  0.19050  0.00770  1.0000 0.1214762171
H   H52       1.0  0.18280  0.97830  0.99230  1.0000 0.1214762171
H   H53       1.0  0.94050  0.23600  0.50770  1.0000 0.1214762171
H   H54       1.0  0.72830  0.43280  0.49230  1.0000 0.1214762171
H   H55       1.0  0.48601  0.47830  0.79551  1.0000 0.1214762171
H   H56       1.0  0.68280  0.69050  0.20449  1.0000 0.1214762171
H   H57       1.0  0.43650  0.03050  0.70539  1.0000 0.1214762171
H   H58       1.0  0.32510  0.73111  0.29461  1.0000 0.1214762171
H   H59       1.0  0.98111  0.18650  0.90600  1.0000 0.1214762171
H   H60       1.0  0.28050  0.07511  0.09400  1.0000 0.1214762171
H   H61       1.0  0.93650  0.23111  0.40600  1.0000 0.1214762171
H   H62       1.0  0.82510  0.53050  0.59400  1.0000 0.1214762171
H   H63       1.0  0.48111  0.57510  0.79461  1.0000 0.1214762171
H   H64       1.0  0.78050  0.68650  0.20539  1.0000 0.1214762171
H   H65       1.0  0.36930  0.04840  0.88230  1.0000 0.1307466836
H   H66       1.0  0.16610  0.48700  0.11770  1.0000 0.1307466836
H   H67       1.0  0.73701  0.11930  0.82090  1.0000 0.1307466836
H   H68       1.0  0.29840  0.91610  0.17910  1.0000 0.1307466836
H   H69       1.0  0.86930  0.98701  0.32090  1.0000 0.1307466836
H   H70       1.0  0.66610  0.54840  0.67910  1.0000 0.1307466836
H   H71       1.0  0.23701  0.41611  0.61770  1.0000 0.1307466836
H   H72       1.0  0.79840  0.61930  0.38229  1.0000 0.1307466836
H   H73       1.0  0.34910  0.99200  0.96229  1.0000 0.1109424421
H   H74       1.0  0.02971  0.38681  0.03771  1.0000 0.1109424421
H   H75       1.0  0.63681  0.09910  0.85710  1.0000 0.1109424421
H   H76       1.0  0.24200  0.77970  0.14290  1.0000 0.1109424421
H   H77       1.0  0.84910  0.88680  0.35710  1.0000 0.1109424421
H   H78       1.0  0.52970  0.49200  0.64290  1.0000 0.1109424421
H   H79       1.0  0.13681  0.27970  0.53770  1.0000 0.1109424421
H   H80       1.0  0.74200  0.59910  0.46229  1.0000 0.1109424421
H   H81       1.0  0.36710  0.90650  0.97059  1.0000 0.1214762171
H   H82       1.0  0.93591  0.39650  0.02940  1.0000 0.1214762171
H   H83       1.0  0.64650  0.11710  0.96060  1.0000 0.1214762171
H   H84       1.0  0.15650  0.68590  0.03940  1.0000 0.1214762171
H   H85       1.0  0.86710  0.89650  0.46060  1.0000 0.1214762171
H   H86       1.0  0.43590  0.40650  0.53940  1.0000 0.1214762171
H   H87       1.0  0.14650  0.18590  0.52940  1.0000 0.1214762171
H   H88       1.0  0.65650  0.61710  0.47059  1.0000 0.1214762171
H   H89       1.0  0.39480  0.86710  0.89070  1.0000 0.1307466836
H   H90       1.0  0.97641  0.50410  0.10930  1.0000 0.1307466836
H   H91       1.0  0.75411  0.14480  0.02770  1.0000 0.1307466836
H   H92       1.0  0.11710  0.72640  0.97230  1.0000 0.1307466836
H   H93       1.0  0.89480  0.00411  0.52770  1.0000 0.1307466836
H   H94       1.0  0.47641  0.36710  0.47230  1.0000 0.1307466836
H   H95       1.0  0.25411  0.22640  0.60930  1.0000 0.1307466836
H   H96       1.0  0.61710  0.64480  0.39069  1.0000 0.1307466836
H   H97       1.0  0.09590  0.92060  0.54929  1.0000 0.1307466836
H   H98       1.0  0.37130  0.54661  0.45070  1.0000 0.1307466836
H   H99       1.0  0.79661  0.84590  0.67530  1.0000 0.1307466836
H   H100      1.0  0.17060  0.12130  0.32470  1.0000 0.1307466836
H   H101      1.0  0.59590  0.04660  0.17530  1.0000 0.1307466836
H   H102      1.0  0.87131  0.42060  0.82470  1.0000 0.1307466836
H   H103      1.0  0.29660  0.62130  0.95070  1.0000 0.1307466836
H   H104      1.0  0.67060  0.34590  0.04929  1.0000 0.1307466836
H   H105      1.0  0.02450  0.82930  0.44660  1.0000 0.1214762171
H   H106      1.0  0.38271  0.57791  0.55341  1.0000 0.1214762171
H   H107      1.0  0.82791  0.77450  0.69520  1.0000 0.1214762171
H   H108      1.0  0.07930  0.13270  0.30480  1.0000 0.1214762171
H   H109      1.0  0.52450  0.07790  0.19520  1.0000 0.1214762171
H   H110      1.0  0.88271  0.32930  0.80480  1.0000 0.1214762171
H   H111      1.0  0.32791  0.63270  0.05341  1.0000 0.1214762171
H   H112      1.0  0.57930  0.27450  0.94659  1.0000 0.1214762171
H   H113      1.0  0.23040  0.84810  0.40890  1.0000 0.1307466836
H   H114      1.0  0.43920  0.82150  0.59110  1.0000 0.1307466836
H   H115      1.0  0.07151  0.98040  0.88230  1.0000 0.1307466836
H   H116      1.0  0.09810  0.18921  0.11770  1.0000 0.1307466836
H   H117      1.0  0.73040  0.32150  0.38230  1.0000 0.1307466836
H   H118      1.0  0.93920  0.34810  0.61770  1.0000 0.1307466836
H   H119      1.0  0.57151  0.68920  0.09111  1.0000 0.1307466836
H   H120      1.0  0.59810  0.48040  0.90890  1.0000 0.1307466836
H   H121      1.0  0.37480  0.92490  0.46349  1.0000 0.1109424421
H   H122      1.0  0.46141  0.91130  0.53651  1.0000 0.1109424421
H   H123      1.0  0.16130  0.12480  0.94990  1.0000 0.1109424421
H   H124      1.0  0.17490  0.21140  0.05010  1.0000 0.1109424421
H   H125      1.0  0.87480  0.41130  0.44990  1.0000 0.1109424421
H   H126      1.0  0.96141  0.42490  0.55010  1.0000 0.1109424421
H   H127      1.0  0.66131  0.71140  0.03650  1.0000 0.1109424421
H   H128      1.0  0.67490  0.62480  0.96349  1.0000 0.1109424421
H   H129      1.0  0.45230  0.02660  0.56610  1.0000 0.1109424421
H   H130      1.0  0.46051  0.88621  0.43390  1.0000 0.1109424421
H   H131      1.0  0.13620  0.20230  0.92570  1.0000 0.1109424421
H   H132      1.0  0.27660  0.21050  0.07430  1.0000 0.1109424421
H   H133      1.0  0.95230  0.38620  0.42570  1.0000 0.1109424421
H   H134      1.0  0.96051  0.52660  0.57430  1.0000 0.1109424421
H   H135      1.0  0.63621  0.71051  0.93390  1.0000 0.1109424421
H   H136      1.0  0.77660  0.70230  0.06610  1.0000 0.1109424421
H   H137      1.0  0.37950  0.04230  0.61299  1.0000 0.1214762171
H   H138      1.0  0.42931  0.76650  0.38700  1.0000 0.1214762171
H   H139      1.0  0.01651  0.12950  0.83720  1.0000 0.1214762171
H   H140      1.0  0.29230  0.17930  0.16280  1.0000 0.1214762171
H   H141      1.0  0.87950  0.26650  0.33720  1.0000 0.1214762171
H   H142      1.0  0.92930  0.54230  0.66280  1.0000 0.1214762171
H   H143      1.0  0.51650  0.67930  0.88700  1.0000 0.1214762171
H   H144      1.0  0.79230  0.62950  0.11299  1.0000 0.1214762171
C   C1        1.0  0.18960  0.16620  0.75899  1.0000 -0.0496420734
C   C2        1.0  0.40720  0.43061  0.24100  1.0000 -0.0496420734
C   C3        1.0  0.68061  0.93960  0.52340  1.0000 -0.0496420734
C   C4        1.0  0.41620  0.15720  0.47660  1.0000 -0.0496420734
C   C5        1.0  0.68960  0.93061  0.02340  1.0000 -0.0496420734
C   C6        1.0  0.90721  0.66620  0.97660  1.0000 -0.0496420734
C   C7        1.0  0.18060  0.65721  0.74101  1.0000 -0.0496420734
C   C8        1.0  0.91620  0.43960  0.25899  1.0000 -0.0496420734
C   C9        1.0  0.12440  0.14010  0.71209  1.0000 -0.1029234242
C   C10       1.0  0.42801  0.41230  0.28790  1.0000 -0.1029234242
C   C11       1.0  0.66231  0.87440  0.48430  1.0000 -0.1029234242
C   C12       1.0  0.39010  0.17800  0.51570  1.0000 -0.1029234242
C   C13       1.0  0.62440  0.91231  0.98430  1.0000 -0.1029234242
C   C14       1.0  0.92801  0.64010  0.01570  1.0000 -0.1029234242
C   C15       1.0  0.16231  0.67800  0.78790  1.0000 -0.1029234242
C   C16       1.0  0.89010  0.37440  0.21209  1.0000 -0.1029234242
C   C17       1.0  0.11700  0.19640  0.71559  1.0000 -0.0784395115
C   C18       1.0  0.48081  0.40141  0.28441  1.0000 -0.0784395115
C   C19       1.0  0.65141  0.86700  0.42060  1.0000 -0.0784395115
C   C20       1.0  0.44640  0.23081  0.57940  1.0000 -0.0784395115
C   C21       1.0  0.61700  0.90140  0.92060  1.0000 -0.0784395115
C   C22       1.0  0.98081  0.69640  0.07940  1.0000 -0.0784395115
C   C23       1.0  0.15140  0.73081  0.78441  1.0000 -0.0784395115
C   C24       1.0  0.94640  0.36700  0.21559  1.0000 -0.0784395115
C   C25       1.0  0.17280  0.27570  0.76469  1.0000 -0.0706290908
C   C26       1.0  0.51101  0.40810  0.23530  1.0000 -0.0706290908
C   C27       1.0  0.65811  0.92280  0.39710  1.0000 -0.0706290908
C   C28       1.0  0.52570  0.26100  0.60290  1.0000 -0.0706290908
C   C29       1.0  0.67280  0.90811  0.89710  1.0000 -0.0706290908
C   C30       1.0  0.01101  0.77570  0.10290  1.0000 -0.0706290908
C   C31       1.0  0.15811  0.76101  0.73530  1.0000 -0.0706290908
C   C32       1.0  0.02570  0.42280  0.26470  1.0000 -0.0706290908
C   C33       1.0  0.24340  0.30640  0.81439  1.0000 0.0698858281
C   C34       1.0  0.49201  0.42901  0.18560  1.0000 0.0698858281
C   C35       1.0  0.67901  0.99340  0.43700  1.0000 0.0698858281
C   C36       1.0  0.55640  0.24200  0.56300  1.0000 0.0698858281
C   C37       1.0  0.74340  0.92900  0.93700  1.0000 0.0698858281
C   C38       1.0  0.99201  0.80640  0.06300  1.0000 0.0698858281
C   C39       1.0  0.17900  0.74200  0.68561  1.0000 0.0698858281
C   C40       1.0  0.05640  0.49340  0.31439  1.0000 0.0698858281
C   C41       1.0  0.30900  0.39160  0.86659  1.0000 -0.1304769372
C   C42       1.0  0.52500  0.44240  0.13340  1.0000 -0.1304769372
C   C43       1.0  0.69241  0.05900  0.41740  1.0000 -0.1304769372
C   C44       1.0  0.64160  0.27500  0.58260  1.0000 -0.1304769372
C   C45       1.0  0.80900  0.94241  0.91740  1.0000 -0.1304769372
C   C46       1.0  0.02500  0.89160  0.08260  1.0000 -0.1304769372
C   C47       1.0  0.19241  0.77501  0.63340  1.0000 -0.1304769372
C   C48       1.0  0.14160  0.55900  0.36660  1.0000 -0.1304769372
C   C49       1.0  0.37510  0.41740  0.91309  1.0000 -0.1088977478
C   C50       1.0  0.50431  0.46200  0.08690  1.0000 -0.1029234242
C   C51       1.0  0.71201  0.12510  0.45770  1.0000 -0.1029234242
C   C52       1.0  0.66740  0.25430  0.54230  1.0000 -0.1029234242
C   C53       1.0  0.87510  0.96200  0.95770  1.0000 -0.1088977478
C   C54       1.0  0.00431  0.91740  0.04230  1.0000 -0.1088977478
C   C55       1.0  0.21200  0.75431  0.58691  1.0000 -0.1088977478
C   C56       1.0  0.16740  0.62510  0.41309  1.0000 -0.1029234242
C   C57       1.0  0.37780  0.35850  0.91070  1.0000 -0.0875437683
C   C58       1.0  0.44781  0.46710  0.08930  1.0000 -0.0875437683
C   C59       1.0  0.71711  0.12780  0.51930  1.0000 -0.0875437683
C   C60       1.0  0.60850  0.19780  0.48070  1.0000 -0.0875437683
C   C61       1.0  0.87780  0.96710  0.01930  1.0000 -0.0875437683
C   C62       1.0  0.94781  0.85850  0.98070  1.0000 -0.0875437683
C   C63       1.0  0.21710  0.69780  0.58930  1.0000 -0.0875437683
C   C64       1.0  0.10850  0.62780  0.41069  1.0000 -0.0875437683
C   C65       1.0  0.31840  0.27750  0.86229  1.0000 -0.1088977478
C   C66       1.0  0.41521  0.45610  0.13770  1.0000 -0.1088977478
C   C67       1.0  0.70611  0.06840  0.54090  1.0000 -0.1088977478
C   C68       1.0  0.52750  0.16520  0.45910  1.0000 -0.1088977478
C   C69       1.0  0.81840  0.95610  0.04090  1.0000 -0.1088977478
C   C70       1.0  0.91521  0.77750  0.95910  1.0000 -0.1088977478
C   C71       1.0  0.20611  0.66521  0.63770  1.0000 -0.1088977478
C   C72       1.0  0.02750  0.56840  0.36229  1.0000 -0.1088977478
C   C73       1.0  0.25030  0.24860  0.81149  1.0000 0.0504153011
C   C74       1.0  0.43710  0.43880  0.18851  1.0000 0.0504153011
C   C75       1.0  0.68881  0.00030  0.50170  1.0000 0.0504153011
C   C76       1.0  0.49860  0.18710  0.49830  1.0000 0.0504153011
C   C77       1.0  0.75030  0.93881  0.00170  1.0000 0.0504153011
C   C78       1.0  0.93711  0.74860  0.99830  1.0000 0.0504153011
C   C79       1.0  0.18881  0.68710  0.68851  1.0000 0.0504153011
C   C80       1.0  0.99860  0.50030  0.31150  1.0000 0.0504153011
C   C81       1.0  0.18710  0.09830  0.75279  1.0000 0.5987681075
C   C82       1.0  0.34551  0.43430  0.24720  1.0000 0.5987681075
C   C83       1.0  0.68431  0.93710  0.58880  1.0000 0.5987681075
C   C84       1.0  0.34830  0.09551  0.41120  1.0000 0.5987681075
C   C85       1.0  0.68710  0.93431  0.08880  1.0000 0.5987681075
C   C86       1.0  0.84550  0.59830  0.91120  1.0000 0.5987681075
C   C87       1.0  0.18430  0.59550  0.74721  1.0000 0.5987681075
C   C88       1.0  0.84830  0.43710  0.25279  1.0000 0.5987681075
C   C89       1.0  0.15900  0.32930  0.76349  1.0000 0.5987681075
C   C90       1.0  0.56581  0.39550  0.23650  1.0000 0.5987681075
C   C91       1.0  0.64550  0.90900  0.32970  1.0000 0.5987681075
C   C92       1.0  0.57930  0.31581  0.67030  1.0000 0.5987681075
C   C93       1.0  0.65900  0.89550  0.82970  1.0000 0.5987681075
C   C94       1.0  0.06581  0.82930  0.17030  1.0000 0.5987681075
C   C95       1.0  0.14551  0.81581  0.73650  1.0000 0.5987681075
C   C96       1.0  0.07930  0.40900  0.26349  1.0000 0.5987681075
C   C97       1.0  0.41740  0.91190  0.78609  1.0000 -0.0706290908
C   C98       1.0  0.12580  0.63130  0.21391  1.0000 -0.0706290908
C   C99       1.0  0.88131  0.16740  0.00550  1.0000 -0.0706290908
C   C100      1.0  0.16190  0.87580  0.99450  1.0000 -0.0706290908
C   C101      1.0  0.91740  0.13131  0.50550  1.0000 -0.0706290908
C   C102      1.0  0.62580  0.41190  0.49450  1.0000 -0.0706290908
C   C103      1.0  0.38131  0.37581  0.71391  1.0000 -0.0706290908
C   C104      1.0  0.66190  0.66740  0.28609  1.0000 -0.0706290908
C   C105      1.0  0.42940  0.94750  0.73750  1.0000 -0.1029234242
C   C106      1.0  0.21001  0.69190  0.26250  1.0000 -0.1029234242
C   C107      1.0  0.94191  0.17940  0.98190  1.0000 -0.1029234242
C   C108      1.0  0.19750  0.96000  0.01810  1.0000 -0.1029234242
C   C109      1.0  0.92940  0.19190  0.48190  1.0000 -0.1029234242
C   C110      1.0  0.71001  0.44750  0.51810  1.0000 -0.1029234242
C   C111      1.0  0.44190  0.46000  0.76250  1.0000 -0.1029234242
C   C112      1.0  0.69750  0.67940  0.23749  1.0000 -0.1029234242
C   C113      1.0  0.42500  0.00480  0.73740  1.0000 -0.122037563
C   C114      1.0  0.26741  0.68761  0.26260  1.0000 -0.122037563
C   C115      1.0  0.93761  0.17500  0.92020  1.0000 -0.1088977478
C   C116      1.0  0.25480  0.01741  0.07980  1.0000 -0.122037563
C   C117      1.0  0.92500  0.18760  0.42020  1.0000 -0.1088977478
C   C118      1.0  0.76741  0.50480  0.57980  1.0000 -0.1088977478
C   C119      1.0  0.43761  0.51741  0.76260  1.0000 -0.122037563
C   C120      1.0  0.75480  0.67500  0.23739  1.0000 -0.122037563
C   C121      1.0  0.40400  0.02440  0.78399  1.0000 -0.0496420734
C   C122      1.0  0.24040  0.62000  0.21601  1.0000 -0.0496420734
C   C123      1.0  0.87001  0.15400  0.87960  1.0000 -0.0496420734
C   C124      1.0  0.27440  0.99040  0.12040  1.0000 -0.0496420734
C   C125      1.0  0.90400  0.12001  0.37960  1.0000 -0.0496420734
C   C126      1.0  0.74041  0.52440  0.62040  1.0000 -0.0496420734
C   C127      1.0  0.37000  0.49040  0.71601  1.0000 -0.0496420734
C   C128      1.0  0.77440  0.65400  0.28399  1.0000 -0.0496420734
C   C129      1.0  0.39290  0.99140  0.83429  1.0000 0.0504153011
C   C130      1.0  0.15711  0.55861  0.16570  1.0000 0.0504153011
C   C131      1.0  0.80860  0.14290  0.90150  1.0000 0.0504153011
C   C132      1.0  0.24140  0.90711  0.09850  1.0000 0.0504153011
C   C133      1.0  0.89290  0.05860  0.40150  1.0000 0.0504153011
C   C134      1.0  0.65711  0.49140  0.59850  1.0000 0.0504153011
C   C135      1.0  0.30861  0.40710  0.66570  1.0000 0.0504153011
C   C136      1.0  0.74140  0.64290  0.33430  1.0000 0.0504153011
C   C137      1.0  0.37420  0.01170  0.88289  1.0000 -0.122037563
C   C138      1.0  0.12881  0.49130  0.11711  1.0000 -0.122037563
C   C139      1.0  0.74131  0.12420  0.86250  1.0000 -0.122037563
C   C140      1.0  0.26170  0.87880  0.13750  1.0000 -0.122037563
C   C141      1.0  0.87420  0.99130  0.36250  1.0000 -0.122037563
C   C142      1.0  0.62880  0.51170  0.63750  1.0000 -0.122037563
C   C143      1.0  0.24131  0.37881  0.61711  1.0000 -0.122037563
C   C144      1.0  0.76170  0.62420  0.38289  1.0000 -0.122037563
C   C145      1.0  0.36340  0.97890  0.93110  1.0000 -0.0784395115
C   C146      1.0  0.04780  0.43230  0.06890  1.0000 -0.0784395115
C   C147      1.0  0.68231  0.11340  0.88450  1.0000 -0.0784395115
C   C148      1.0  0.22890  0.79780  0.11550  1.0000 -0.0784395115
C   C149      1.0  0.86340  0.93231  0.38450  1.0000 -0.0784395115
C   C150      1.0  0.54781  0.47890  0.61550  1.0000 -0.0784395115
C   C151      1.0  0.18230  0.29780  0.56890  1.0000 -0.0784395115
C   C152      1.0  0.72890  0.61340  0.43110  1.0000 -0.0784395115
C   C153      1.0  0.37250  0.92610  0.93599  1.0000 -0.1029234242
C   C154      1.0  0.99011  0.43650  0.06400  1.0000 -0.1029234242
C   C155      1.0  0.68650  0.12250  0.94640  1.0000 -0.1029234242
C   C156      1.0  0.17610  0.74011  0.05360  1.0000 -0.1029234242
C   C157      1.0  0.87250  0.93651  0.44640  1.0000 -0.1029234242
C   C158      1.0  0.49011  0.42610  0.55360  1.0000 -0.1029234242
C   C159      1.0  0.18651  0.24010  0.56400  1.0000 -0.1029234242
C   C160      1.0  0.67610  0.62250  0.43600  1.0000 -0.1029234242
C   C161      1.0  0.39010  0.90370  0.88840  1.0000 -0.1356352694
C   C162      1.0  0.01530  0.50170  0.11160  1.0000 -0.1356352694
C   C163      1.0  0.75171  0.14010  0.98640  1.0000 -0.1356352694
C   C164      1.0  0.15370  0.76530  0.01360  1.0000 -0.1304769372
C   C165      1.0  0.89010  0.00170  0.48640  1.0000 -0.1304769372
C   C166      1.0  0.51531  0.40370  0.51360  1.0000 -0.1304769372
C   C167      1.0  0.25171  0.26531  0.61160  1.0000 -0.1304769372
C   C168      1.0  0.65370  0.64010  0.38839  1.0000 -0.1356352694
C   C169      1.0  0.40090  0.93460  0.83630  1.0000 0.060201853
C   C170      1.0  0.09831  0.56461  0.16370  1.0000 0.060201853
C   C171      1.0  0.81461  0.15090  0.96630  1.0000 0.060201853
C   C172      1.0  0.18460  0.84830  0.03370  1.0000 0.060201853
C   C173      1.0  0.90090  0.06460  0.46630  1.0000 0.060201853
C   C174      1.0  0.59830  0.43460  0.53370  1.0000 0.060201853
C   C175      1.0  0.31461  0.34830  0.66370  1.0000 0.060201853
C   C176      1.0  0.68460  0.65090  0.33629  1.0000 0.060201853
C   C177      1.0  0.42280  0.84990  0.77929  1.0000 0.5579838031
C   C178      1.0  0.07061  0.64350  0.22070  1.0000 0.5579838031
C   C179      1.0  0.89350  0.17280  0.07290  1.0000 0.5579838031
C   C180      1.0  0.09990  0.82061  0.92710  1.0000 0.5579838031
C   C181      1.0  0.92280  0.14351  0.57290  1.0000 0.5579838031
C   C182      1.0  0.57061  0.34990  0.42710  1.0000 0.5579838031
C   C183      1.0  0.39351  0.32060  0.72070  1.0000 0.5579838031
C   C184      1.0  0.59990  0.67280  0.27929  1.0000 0.5579838031
C   C185      1.0  0.40000  0.08620  0.77799  1.0000 0.5987681075
C   C186      1.0  0.30820  0.62201  0.22201  1.0000 0.5987681075
C   C187      1.0  0.87200  0.15000  0.81380  1.0000 0.5987681075
C   C188      1.0  0.33620  0.05820  0.18620  1.0000 0.5987681075
C   C189      1.0  0.90000  0.12200  0.31380  1.0000 0.5987681075
C   C190      1.0  0.80820  0.58620  0.68620  1.0000 0.5987681075
C   C191      1.0  0.37201  0.55820  0.72200  1.0000 0.5987681075
C   C192      1.0  0.83620  0.65000  0.27799  1.0000 0.5987681075
C   C193      1.0  0.21360  0.96550  0.56590  1.0000 -0.0784395115
C   C194      1.0  0.39961  0.64770  0.43410  1.0000 -0.0784395115
C   C195      1.0  0.89771  0.96360  0.74810  1.0000 -0.0784395115
C   C196      1.0  0.21550  0.14960  0.25190  1.0000 -0.0784395115
C   C197      1.0  0.71360  0.14771  0.24810  1.0000 -0.0784395115
C   C198      1.0  0.89961  0.46550  0.75190  1.0000 -0.0784395115
C   C199      1.0  0.39770  0.64960  0.93410  1.0000 -0.0784395115
C   C200      1.0  0.71550  0.46360  0.06589  1.0000 -0.0784395115
C   C201      1.0  0.12700  0.91620  0.53099  1.0000 -0.1029234242
C   C202      1.0  0.38521  0.59601  0.46901  1.0000 -0.1029234242
C   C203      1.0  0.84601  0.87700  0.71080  1.0000 -0.1029234242
C   C204      1.0  0.16620  0.13520  0.28920  1.0000 -0.1029234242
C   C205      1.0  0.62700  0.09600  0.21080  1.0000 -0.1029234242
C   C206      1.0  0.88521  0.41620  0.78920  1.0000 -0.1029234242
C   C207      1.0  0.34601  0.63521  0.96900  1.0000 -0.1029234242
C   C208      1.0  0.66620  0.37700  0.03099  1.0000 -0.1029234242
C   C209      1.0  0.08260  0.85970  0.46929  1.0000 -0.1029234242
C   C210      1.0  0.39041  0.61330  0.53070  1.0000 -0.1029234242
C   C211      1.0  0.86330  0.83260  0.72290  1.0000 -0.1029234242
C   C212      1.0  0.10970  0.14041  0.27710  1.0000 -0.1029234242
C   C213      1.0  0.58260  0.11330  0.22290  1.0000 -0.1029234242
C   C214      1.0  0.89041  0.35970  0.77710  1.0000 -0.1029234242
C   C215      1.0  0.36331  0.64041  0.03070  1.0000 -0.1029234242
C   C216      1.0  0.60970  0.33260  0.96929  1.0000 -0.1029234242
C   C217      1.0  0.12590  0.84900  0.44189  1.0000 -0.0706290908
C   C218      1.0  0.40711  0.68400  0.55810  1.0000 -0.0706290908
C   C219      1.0  0.93400  0.87590  0.77690  1.0000 -0.0706290908
C   C220      1.0  0.09900  0.15710  0.22310  1.0000 -0.0706290908
C   C221      1.0  0.62590  0.18401  0.27690  1.0000 -0.0706290908
C   C222      1.0  0.90711  0.34900  0.72310  1.0000 -0.0706290908
C   C223      1.0  0.43401  0.65711  0.05810  1.0000 -0.0706290908
C   C224      1.0  0.59900  0.37590  0.94189  1.0000 -0.0706290908
C   C225      1.0  0.21550  0.89690  0.47719  1.0000 0.0504153011
C   C226      1.0  0.41971  0.73830  0.52280  1.0000 0.0504153011
C   C227      1.0  0.98831  0.96550  0.81860  1.0000 0.0504153011
C   C228      1.0  0.14690  0.16970  0.18140  1.0000 0.0504153011
C   C229      1.0  0.71550  0.23830  0.31860  1.0000 0.0504153011
C   C230      1.0  0.91971  0.39690  0.68140  1.0000 0.0504153011
C   C231      1.0  0.48831  0.66970  0.02280  1.0000 0.0504153011
C   C232      1.0  0.64690  0.46550  0.97720  1.0000 0.0504153011
C   C233      1.0  0.26040  0.88710  0.44989  1.0000 -0.1304769372
C   C234      1.0  0.43721  0.81051  0.55010  1.0000 -0.1304769372
C   C235      1.0  0.06051  0.01040  0.87330  1.0000 -0.1304769372
C   C236      1.0  0.13710  0.18721  0.12670  1.0000 -0.1304769372
C   C237      1.0  0.76040  0.31050  0.37330  1.0000 -0.1304769372
C   C238      1.0  0.93720  0.38710  0.62670  1.0000 -0.1304769372
C   C239      1.0  0.56051  0.68720  0.05010  1.0000 -0.1304769372
C   C240      1.0  0.63710  0.51040  0.94989  1.0000 -0.1304769372
C   C241      1.0  0.34650  0.93300  0.48190  1.0000 -0.1029234242
C   C242      1.0  0.45110  0.86460  0.51811  1.0000 -0.1029234242
C   C243      1.0  0.11461  0.09650  0.91350  1.0000 -0.1029234242
C   C244      1.0  0.18300  0.20111  0.08650  1.0000 -0.1029234242
C   C245      1.0  0.84650  0.36460  0.41350  1.0000 -0.1029234242
C   C246      1.0  0.95110  0.43300  0.58650  1.0000 -0.1029234242
C   C247      1.0  0.61460  0.70110  0.01810  1.0000 -0.1029234242
C   C248      1.0  0.68300  0.59650  0.98189  1.0000 -0.1029234242
C   C249      1.0  0.39260  0.99350  0.54390  1.0000 -0.1029234242
C   C250      1.0  0.44960  0.84870  0.45610  1.0000 -0.1029234242
C   C251      1.0  0.09870  0.14260  0.89910  1.0000 -0.1029234242
C   C252      1.0  0.24350  0.19960  0.10090  1.0000 -0.1029234242
C   C253      1.0  0.89260  0.34870  0.39910  1.0000 -0.1029234242
C   C254      1.0  0.94961  0.49350  0.60090  1.0000 -0.1029234242
C   C255      1.0  0.59871  0.69960  0.95610  1.0000 -0.1029234242
C   C256      1.0  0.74350  0.64260  0.04390  1.0000 -0.1029234242
C   C257      1.0  0.34910  0.00360  0.57169  1.0000 -0.122037563
C   C258      1.0  0.43191  0.77740  0.42830  1.0000 -0.122037563
C   C259      1.0  0.02741  0.09910  0.84550  1.0000 -0.1304769372
C   C260      1.0  0.25360  0.18190  0.15450  1.0000 -0.122037563
C   C261      1.0  0.84910  0.27741  0.34550  1.0000 -0.122037563
C   C262      1.0  0.93190  0.50360  0.65450  1.0000 -0.122037563
C   C263      1.0  0.52741  0.68190  0.92831  1.0000 -0.122037563
C   C264      1.0  0.75360  0.59910  0.07169  1.0000 -0.122037563
C   C265      1.0  0.26000  0.95670  0.53890  1.0000 0.060201853
C   C266      1.0  0.41780  0.72110  0.46110  1.0000 0.060201853
C   C267      1.0  0.97110  0.01000  0.80330  1.0000 0.060201853
C   C268      1.0  0.20670  0.16781  0.19670  1.0000 0.060201853
C   C269      1.0  0.76000  0.22110  0.30330  1.0000 0.060201853
C   C270      1.0  0.91781  0.45670  0.69670  1.0000 0.060201853
C   C271      1.0  0.47111  0.66780  0.96110  1.0000 0.060201853
C   C272      1.0  0.70670  0.51000  0.03889  1.0000 0.060201853
C   C273      1.0  0.25470  0.02630  0.63139  1.0000 0.6278093779
C   C274      1.0  0.39491  0.62330  0.36861  1.0000 0.6278093779
C   C275      1.0  0.87331  0.00470  0.72840  1.0000 0.6278093779
C   C276      1.0  0.27630  0.14491  0.27160  1.0000 0.6278093779
C   C277      1.0  0.75470  0.12330  0.22840  1.0000 0.6278093779
C   C278      1.0  0.89491  0.52630  0.77160  1.0000 0.6278093779
C   C279      1.0  0.37330  0.64490  0.86860  1.0000 0.6278093779
C   C280      1.0  0.77630  0.50470  0.13140  1.0000 0.6278093779
C   C281      1.0  0.07692  0.78710  0.37681  1.0000 0.5882049897
C   C282      1.0  0.41029  0.70010  0.62319  1.0000 0.5882049897
C   C283      1.0  0.95011  0.82692  0.78982  1.0000 0.5882049897
C   C284      1.0  0.03710  0.16029  0.21018  1.0000 0.5882049897
C   C285      1.0  0.57692  0.20011  0.28982  1.0000 0.5882049897
C   C286      1.0  0.91029  0.28710  0.71018  1.0000 0.5882049897
C   C287      1.0  0.45010  0.66029  0.12319  1.0000 0.5882049897
C   C288      1.0  0.53710  0.32692  0.87681  1.0000 0.5882049897
O   O1        1.0  0.26426  0.12904  0.77109  1.0000 -0.6921774722
O   O2        1.0  0.35795  0.49317  0.22890  1.0000 -0.6921774722
O   O3        1.0  0.74317  0.01426  0.63522  1.0000 -0.6921774722
O   O4        1.0  0.37904  0.10794  0.36478  1.0000 -0.6921774722
O   O5        1.0  0.76426  0.99316  0.13522  1.0000 -0.6921774722
O   O6        1.0  0.85795  0.62904  0.86478  1.0000 -0.6921774722
O   O7        1.0  0.24317  0.60794  0.72890  1.0000 -0.6921774722
O   O8        1.0  0.87904  0.51426  0.27109  1.0000 -0.6921774722
O   O9        1.0  0.10939  0.01174  0.73033  1.0000 -0.5413676738
O   O10       1.0  0.28142  0.37906  0.26967  1.0000 -0.5413676738
O   O11       1.0  0.62906  0.85939  0.59765  1.0000 -0.5413676738
O   O12       1.0  0.26174  0.03141  0.40235  1.0000 -0.5413676738
O   O13       1.0  0.60939  0.87906  0.09765  1.0000 -0.5413676738
O   O14       1.0  0.78142  0.51174  0.90235  1.0000 -0.5413676738
O   O15       1.0  0.12906  0.53141  0.76967  1.0000 -0.5413676738
O   O16       1.0  0.76174  0.35939  0.23032  1.0000 -0.5413676738
O   O17       1.0  0.08249  0.28896  0.72604  1.0000 -0.6824510571
O   O18       1.0  0.56292  0.35644  0.27395  1.0000 -0.6824510571
O   O19       1.0  0.60645  0.83249  0.29353  1.0000 -0.6824510571
O   O20       1.0  0.53896  0.31291  0.70647  1.0000 -0.6824510571
O   O21       1.0  0.58249  0.85645  0.79353  1.0000 -0.6824510571
O   O22       1.0  0.06291  0.78896  0.20647  1.0000 -0.6824510571
O   O23       1.0  0.10645  0.81292  0.77395  1.0000 -0.6824510571
O   O24       1.0  0.03896  0.33249  0.22604  1.0000 -0.6824510571
O   O25       1.0  0.22134  0.41323  0.79976  1.0000 -0.5712507716
O   O26       1.0  0.61347  0.42157  0.20023  1.0000 -0.5712507716
O   O27       1.0  0.67158  0.97134  0.30811  1.0000 -0.5712507716
O   O28       1.0  0.66323  0.36346  0.69189  1.0000 -0.5712507716
O   O29       1.0  0.72134  0.92158  0.80811  1.0000 -0.5712507716
O   O30       1.0  0.11346  0.91323  0.19189  1.0000 -0.5712507716
O   O31       1.0  0.17158  0.86347  0.70024  1.0000 -0.5712507716
O   O32       1.0  0.16323  0.47134  0.29977  1.0000 -0.5712507716
O   O33       1.0  0.41171  0.81057  0.81887  1.0000 -0.6067067734
O   O34       1.0  0.99170  0.59284  0.18113  1.0000 -0.6067067734
O   O35       1.0  0.84284  0.16171  0.10114  1.0000 -0.6067067734
O   O36       1.0  0.06057  0.74169  0.89886  1.0000 -0.6067067734
O   O37       1.0  0.91171  0.09283  0.60114  1.0000 -0.6067067734
O   O38       1.0  0.49170  0.31057  0.39886  1.0000 -0.6067067734
O   O39       1.0  0.34284  0.24170  0.68112  1.0000 -0.6067067734
O   O40       1.0  0.56057  0.66171  0.31888  1.0000 -0.6067067734
O   O41       1.0  0.43586  0.83349  0.73035  1.0000 -0.5508655137
O   O42       1.0  0.10314  0.70552  0.26965  1.0000 -0.5508655137
O   O43       1.0  0.95552  0.18586  0.10237  1.0000 -0.5508655137
O   O44       1.0  0.08349  0.85314  0.89763  1.0000 -0.5508655137
O   O45       1.0  0.93586  0.20552  0.60237  1.0000 -0.5508655137
O   O46       1.0  0.60315  0.33349  0.39763  1.0000 -0.5508655137
O   O47       1.0  0.45552  0.35314  0.76965  1.0000 -0.5508655137
O   O48       1.0  0.58349  0.68586  0.23034  1.0000 -0.5508655137
O   O49       1.0  0.32671  0.05883  0.77833  1.0000 -0.6744674123
O   O50       1.0  0.28050  0.54837  0.22166  1.0000 -0.6824510571
O   O51       1.0  0.79837  0.07671  0.76788  1.0000 -0.6744674123
O   O52       1.0  0.30883  0.03049  0.23212  1.0000 -0.6744674123
O   O53       1.0  0.82671  0.04837  0.26788  1.0000 -0.6744674123
O   O54       1.0  0.78050  0.55883  0.73212  1.0000 -0.6744674123
O   O55       1.0  0.29838  0.53050  0.72167  1.0000 -0.6744674123
O   O56       1.0  0.80883  0.57671  0.27833  1.0000 -0.6744674123
O   O57       1.0  0.47012  0.16435  0.77087  1.0000 -0.5230527497
O   O58       1.0  0.39349  0.69925  0.22913  1.0000 -0.5230527497
O   O59       1.0  0.94926  0.22012  0.80577  1.0000 -0.5230527497
O   O60       1.0  0.41435  0.14348  0.19423  1.0000 -0.5230527497
O   O61       1.0  0.97012  0.19925  0.30577  1.0000 -0.5230527497
O   O62       1.0  0.89348  0.66435  0.69423  1.0000 -0.5230527497
O   O63       1.0  0.44925  0.64348  0.72913  1.0000 -0.5230527497
O   O64       1.0  0.91435  0.72012  0.27087  1.0000 -0.5230527497
O   O65       1.0  0.19560  0.99500  0.65919  1.0000 -0.6292171753
O   O66       1.0  0.33580  0.53640  0.34080  1.0000 -0.6292171753
O   O67       1.0  0.78641  0.94560  0.70060  1.0000 -0.6292171753
O   O68       1.0  0.24500  0.08581  0.29940  1.0000 -0.6292171753
O   O69       1.0  0.69560  0.03641  0.20060  1.0000 -0.6292171753
O   O70       1.0  0.83581  0.49500  0.79940  1.0000 -0.6292171753
O   O71       1.0  0.28641  0.58581  0.84080  1.0000 -0.6292171753
O   O72       1.0  0.74500  0.44560  0.15919  1.0000 -0.6292171753
O   O73       1.0  0.34110  0.10250  0.65560  1.0000 -0.6002258337
O   O74       1.0  0.44691  0.68551  0.34441  1.0000 -0.6002258337
O   O75       1.0  0.93551  0.09110  0.73860  1.0000 -0.6002258337
O   O76       1.0  0.35250  0.19690  0.26140  1.0000 -0.6002258337
O   O77       1.0  0.84110  0.18550  0.23860  1.0000 -0.6002258337
O   O78       1.0  0.94691  0.60250  0.76140  1.0000 -0.6002258337
O   O79       1.0  0.43550  0.69690  0.84440  1.0000 -0.6002258337
O   O80       1.0  0.85250  0.59110  0.15560  1.0000 -0.6002258337
O   O81       1.0  0.00304  0.69914  0.36318  1.0000 -0.5413676738
O   O82       1.0  0.33597  0.63987  0.63682  1.0000 -0.5413676738
O   O83       1.0  0.88987  0.75304  0.80390  1.0000 -0.5413676738
O   O84       1.0  0.94914  0.08596  0.19610  1.0000 -0.5413676738
O   O85       1.0  0.50304  0.13986  0.30390  1.0000 -0.5413676738
O   O86       1.0  0.83596  0.19914  0.69610  1.0000 -0.5413676738
O   O87       1.0  0.38987  0.58596  0.13683  1.0000 -0.5413676738
O   O88       1.0  0.44914  0.25304  0.86317  1.0000 -0.5413676738
O   O89       1.0  0.10494  0.82209  0.33322  1.0000 -0.6292171753
O   O90       1.0  0.48887  0.77172  0.66677  1.0000 -0.6292171753
O   O91       1.0  0.02171  0.85494  0.78285  1.0000 -0.6292171753
O   O92       1.0  0.07209  0.23886  0.21715  1.0000 -0.6292171753
O   O93       1.0  0.60494  0.27171  0.28285  1.0000 -0.6292171753
O   O94       1.0  0.98887  0.32209  0.71715  1.0000 -0.6292171753
O   O95       1.0  0.52172  0.73886  0.16678  1.0000 -0.6292171753
O   O96       1.0  0.57209  0.35494  0.83322  1.0000 -0.6292171753
O   O97       1.0  0.20997  0.00678  0.85794  1.0000 -0.3576315916
O   O98       1.0  0.14883  0.35202  0.14205  1.0000 -0.3529500384
O   O99       1.0  0.60203  0.95997  0.70319  1.0000 -0.3529500384
O   O100      1.0  0.25678  0.89884  0.29681  1.0000 -0.3529500384
O   O101      1.0  0.70997  0.85203  0.20319  1.0000 -0.3529500384
O   O102      1.0  0.64884  0.50678  0.79681  1.0000 -0.3529500384
O   O103      1.0  0.10202  0.39883  0.64205  1.0000 -0.3529500384
O   O104      1.0  0.75678  0.45997  0.35795  1.0000 -0.3529500384
O   O105      1.0  0.00870  0.81780  0.65590  1.0000 -0.1783710136
O   O106      1.0  0.16190  0.35280  0.34410  1.0000 -0.1783710136
O   O107      1.0  0.60281  0.75870  0.69090  1.0000 -0.1783710136
O   O108      1.0  0.06780  0.91190  0.30910  1.0000 -0.1783710136
O   O109      1.0  0.50870  0.85281  0.19090  1.0000 -0.1783710136
O   O110      1.0  0.66190  0.31780  0.80910  1.0000 -0.1783710136
O   O111      1.0  0.10280  0.41190  0.84410  1.0000 -0.1783710136
O   O112      1.0  0.56780  0.25870  0.15589  1.0000 -0.1783710136
