# DDEC6 charges by PACMAN v1.1 (https://github.com/mtap-research/PACMAN-charge/)
data_2005[Pr][nan]3[FSR]2
_chemical_formula_sum              "Pr4 H32 C24 O36"
_cell_length_a       6.1008
_cell_length_b       7.5802
_cell_length_c       28.044
_cell_angle_alpha    90
_cell_angle_beta     90
_cell_angle_gamma    90

_symmetry_space_group_name_H-M    "P 1"
_symmetry_Int_Tables_number       1

loop_
  _symmetry_equiv_pos_as_xyz
  'x, y, z'

loop_
  _atom_site_type_symbol
  _atom_site_label
  _atom_site_symmetry_multiplicity
  _atom_site_fract_x
  _atom_site_fract_y
  _atom_site_fract_z
  _atom_site_occupancy
  _atom_site_charge
Pr  Pr1       1.0  0.43178  0.09815  0.33111  1.0000 1.993705488
Pr  Pr2       1.0  0.43178  0.90185  0.66889  1.0000 1.993705488
Pr  Pr3       1.0  0.56822  0.40185  0.83111  1.0000 1.993705488
Pr  Pr4       1.0  0.56822  0.59815  0.16889  1.0000 1.993705488
H   H1        1.0  0.02330  0.90280  0.33760  1.0000 0.3697145797
H   H2        1.0  0.02330  0.09720  0.66240  1.0000 0.3697145797
H   H3        1.0  0.97670  0.59720  0.83760  1.0000 0.3697145797
H   H4        1.0  0.97670  0.40280  0.16240  1.0000 0.3697145797
H   H5        1.0  0.08920  0.91830  0.38420  1.0000 0.3697145797
H   H6        1.0  0.08920  0.08170  0.61580  1.0000 0.3697145797
H   H7        1.0  0.91080  0.58170  0.88420  1.0000 0.3697145797
H   H8        1.0  0.91080  0.41830  0.11580  1.0000 0.3697145797
H   H9        1.0  0.52840  0.46180  0.36430  1.0000 0.3879837014
H   H10       1.0  0.52840  0.53820  0.63570  1.0000 0.3879837014
H   H11       1.0  0.47160  0.03820  0.86430  1.0000 0.3879837014
H   H12       1.0  0.47160  0.96180  0.13570  1.0000 0.3879837014
H   H13       1.0  0.85410  0.53300  0.35480  1.0000 0.1314800734
H   H14       1.0  0.85410  0.46700  0.64520  1.0000 0.1314800734
H   H15       1.0  0.14590  0.96700  0.85480  1.0000 0.1314800734
H   H16       1.0  0.14590  0.03300  0.14520  1.0000 0.1314800734
H   H17       1.0  0.71490  0.37280  0.24890  1.0000 0.3420060716
H   H18       1.0  0.71490  0.62720  0.75110  1.0000 0.3420060716
H   H19       1.0  0.28510  0.12720  0.74890  1.0000 0.3420060716
H   H20       1.0  0.28510  0.87280  0.25110  1.0000 0.3420060716
H   H21       1.0  0.95410  0.62900  0.28100  1.0000 0.1314800734
H   H22       1.0  0.95410  0.37100  0.71900  1.0000 0.1314800734
H   H23       1.0  0.04590  0.87100  0.78100  1.0000 0.1314800734
H   H24       1.0  0.04590  0.12900  0.21900  1.0000 0.1314800734
H   H25       1.0  0.29670  0.15590  0.50010  1.0000 0.1314800734
H   H26       1.0  0.29670  0.84410  0.49990  1.0000 0.1314800734
H   H27       1.0  0.70330  0.34410  0.00010  1.0000 0.1314800734
H   H28       1.0  0.70330  0.65590  0.99990  1.0000 0.1314800734
H   H29       1.0  0.55880  0.15700  0.50080  1.0000 0.138464085
H   H30       1.0  0.55880  0.84300  0.49920  1.0000 0.138464085
H   H31       1.0  0.44120  0.34300  0.00080  1.0000 0.138464085
H   H32       1.0  0.44120  0.65700  0.99920  1.0000 0.138464085
C   C1        1.0  0.92830  0.28940  0.32480  1.0000 0.6229893632
C   C2        1.0  0.92830  0.71060  0.67520  1.0000 0.6229893632
C   C3        1.0  0.07170  0.21060  0.82480  1.0000 0.6229893632
C   C4        1.0  0.07170  0.78940  0.17520  1.0000 0.6229893632
C   C5        1.0  0.79500  0.46000  0.32800  1.0000 -0.012370278
C   C6        1.0  0.79500  0.54000  0.67200  1.0000 -0.012370278
C   C7        1.0  0.20500  0.04000  0.82800  1.0000 -0.012370278
C   C8        1.0  0.20500  0.96000  0.17200  1.0000 -0.012370278
C   C9        1.0  0.80910  0.56750  0.28190  1.0000 0.0039977835
C   C10       1.0  0.80910  0.43250  0.71810  1.0000 0.0039977835
C   C11       1.0  0.19090  0.93250  0.78190  1.0000 0.0039977835
C   C12       1.0  0.19090  0.06750  0.21810  1.0000 0.0039977835
C   C13       1.0  0.62720  0.70680  0.28320  1.0000 0.6229893632
C   C14       1.0  0.62720  0.29320  0.71680  1.0000 0.6229893632
C   C15       1.0  0.37280  0.79320  0.78320  1.0000 0.6229893632
C   C16       1.0  0.37280  0.20680  0.21680  1.0000 0.6229893632
C   C17       1.0  0.43180  0.09000  0.43540  1.0000 0.6282652981
C   C18       1.0  0.43180  0.91000  0.56460  1.0000 0.6282652981
C   C19       1.0  0.56820  0.41000  0.93540  1.0000 0.6282652981
C   C20       1.0  0.56820  0.59000  0.06460  1.0000 0.6282652981
C   C21       1.0  0.42900  0.09190  0.48920  1.0000 -0.2791605897
C   C22       1.0  0.42900  0.90810  0.51080  1.0000 -0.2791605897
C   C23       1.0  0.57100  0.40810  0.98920  1.0000 -0.2791605897
C   C24       1.0  0.57100  0.59190  0.01080  1.0000 -0.2791605897
O   O1        1.0  0.13150  0.88920  0.35640  1.0000 -0.7350235217
O   O2        1.0  0.13150  0.11080  0.64360  1.0000 -0.734822356
O   O3        1.0  0.86850  0.61080  0.85640  1.0000 -0.734822356
O   O4        1.0  0.86850  0.38920  0.14360  1.0000 -0.734822356
O   O5        1.0  0.82760  0.14600  0.32840  1.0000 -0.6224354737
O   O6        1.0  0.82760  0.85400  0.67160  1.0000 -0.6224354737
O   O7        1.0  0.17240  0.35400  0.82840  1.0000 -0.6224354737
O   O8        1.0  0.17240  0.64600  0.17160  1.0000 -0.6224354737
O   O9        1.0  0.13260  0.30470  0.31910  1.0000 -0.6299042337
O   O10       1.0  0.13260  0.69530  0.68090  1.0000 -0.6299042337
O   O11       1.0  0.86740  0.19530  0.81910  1.0000 -0.6299042337
O   O12       1.0  0.86740  0.80470  0.18090  1.0000 -0.6299042337
O   O13       1.0  0.57320  0.41240  0.33889  1.0000 -0.5222274892
O   O14       1.0  0.57320  0.58760  0.66111  1.0000 -0.5222274892
O   O15       1.0  0.42680  0.08760  0.83889  1.0000 -0.5222274892
O   O16       1.0  0.42680  0.91240  0.16111  1.0000 -0.5222274892
O   O17       1.0  0.78750  0.46300  0.24028  1.0000 -0.5351115697
O   O18       1.0  0.78750  0.53700  0.75972  1.0000 -0.5347135298
O   O19       1.0  0.21250  0.03700  0.74028  1.0000 -0.5347135298
O   O20       1.0  0.21250  0.96300  0.25972  1.0000 -0.5351115697
O   O21       1.0  0.62550  0.81400  0.31716  1.0000 -0.6110230915
O   O22       1.0  0.62550  0.18600  0.68284  1.0000 -0.6110230915
O   O23       1.0  0.37450  0.68600  0.81716  1.0000 -0.6110230915
O   O24       1.0  0.37450  0.31400  0.18284  1.0000 -0.6110230915
O   O25       1.0  0.49100  0.70600  0.24940  1.0000 -0.6224354737
O   O26       1.0  0.49100  0.29400  0.75060  1.0000 -0.6224354737
O   O27       1.0  0.50900  0.79400  0.74940  1.0000 -0.6224354737
O   O28       1.0  0.50900  0.20600  0.25060  1.0000 -0.6224354737
O   O29       1.0  0.32130  0.20420  0.41380  1.0000 -0.6625273459
O   O30       1.0  0.32130  0.79580  0.58620  1.0000 -0.6625273459
O   O31       1.0  0.67870  0.29580  0.91380  1.0000 -0.6625273459
O   O32       1.0  0.67870  0.70420  0.08620  1.0000 -0.6625273459
O   O33       1.0  0.54700  0.97750  0.41340  1.0000 -0.6424013608
O   O34       1.0  0.54700  0.02250  0.58660  1.0000 -0.6424013608
O   O35       1.0  0.45300  0.52250  0.91340  1.0000 -0.6424013608
O   O36       1.0  0.45300  0.47750  0.08660  1.0000 -0.6424013608
