# DDEC6 charges by PACMAN v1.1 (https://github.com/mtap-research/PACMAN-charge/)
data_2005[Mn][lvt]2[FSR]4
_chemical_formula_sum              "Mn24 H512 C432 N72 O80"
_cell_length_a       30.2135
_cell_length_b       30.2135
_cell_length_c       30.2135
_cell_angle_alpha    94.7877
_cell_angle_beta     94.7877
_cell_angle_gamma    146.416

_symmetry_space_group_name_H-M    "P 1"
_symmetry_Int_Tables_number       1

loop_
  _symmetry_equiv_pos_as_xyz
  'x, y, z'

loop_
  _atom_site_type_symbol
  _atom_site_label
  _atom_site_symmetry_multiplicity
  _atom_site_fract_x
  _atom_site_fract_y
  _atom_site_fract_z
  _atom_site_occupancy
  _atom_site_charge
Mn  Mn1       1.0  0.88573  0.09930  0.36681  1.0000 0.8963426982
Mn  Mn2       1.0  0.76892  0.63573  0.28643  1.0000 0.8963426982
Mn  Mn3       1.0  0.34930  0.48249  0.71357  1.0000 0.8929770772
Mn  Mn4       1.0  0.73249  0.51892  0.63319  1.0000 0.8929770772
Mn  Mn5       1.0  0.36427  0.65070  0.13319  1.0000 0.8963426982
Mn  Mn6       1.0  0.48108  0.11427  0.21357  1.0000 0.8963426982
Mn  Mn7       1.0  0.90070  0.26751  0.78643  1.0000 0.8929770772
Mn  Mn8       1.0  0.51751  0.23108  0.86681  1.0000 0.8929770772
Mn  Mn9       1.0  0.83024  0.15792  0.24802  1.0000 0.7459486161
Mn  Mn10      1.0  0.83222  0.58024  0.17232  1.0000 0.7459486161
Mn  Mn11      1.0  0.40792  0.65990  0.82768  1.0000 0.7416523253
Mn  Mn12      1.0  0.90990  0.58222  0.75198  1.0000 0.7416523253
Mn  Mn13      1.0  0.41976  0.59208  0.25198  1.0000 0.7459486161
Mn  Mn14      1.0  0.41778  0.16976  0.32768  1.0000 0.7416523253
Mn  Mn15      1.0  0.84208  0.09010  0.67232  1.0000 0.7416523253
Mn  Mn16      1.0  0.34010  0.16778  0.74802  1.0000 0.7416523253
Mn  Mn17      1.0  0.71204  0.81917  0.33289  1.0000 0.7753686939
Mn  Mn18      1.0  0.62915  0.46204  0.39287  1.0000 0.7704775368
Mn  Mn19      1.0  0.06917  0.23628  0.60713  1.0000 0.7704775368
Mn  Mn20      1.0  0.48628  0.37915  0.66711  1.0000 0.7704775368
Mn  Mn21      1.0  0.53796  0.93083  0.16711  1.0000 0.7753686939
Mn  Mn22      1.0  0.62085  0.28796  0.10713  1.0000 0.7753686939
Mn  Mn23      1.0  0.18083  0.51372  0.89287  1.0000 0.7704775368
Mn  Mn24      1.0  0.76372  0.37085  0.83289  1.0000 0.7704775368
H   H1        1.0  0.10000  0.20350  0.34770  1.0000 0.1288197045
H   H2        1.0  0.00230  0.85000  0.39650  1.0000 0.1288197045
H   H3        1.0  0.45350  0.60580  0.60350  1.0000 0.1288197045
H   H4        1.0  0.85580  0.75230  0.65230  1.0000 0.1288197045
H   H5        1.0  0.15000  0.54650  0.15230  1.0000 0.1288197045
H   H6        1.0  0.24770  0.90000  0.10350  1.0000 0.1288197045
H   H7        1.0  0.79650  0.14420  0.89650  1.0000 0.1288197045
H   H8        1.0  0.39420  0.99770  0.84770  1.0000 0.1288197045
H   H9        1.0  0.19270  0.29400  0.30550  1.0000 0.1105675634
H   H10       1.0  0.13720  0.94270  0.39870  1.0000 0.1105675634
H   H11       1.0  0.54400  0.73850  0.60130  1.0000 0.1105675634
H   H12       1.0  0.98850  0.88720  0.69450  1.0000 0.1105675634
H   H13       1.0  0.05730  0.45600  0.19450  1.0000 0.1105675634
H   H14       1.0  0.11280  0.80730  0.10130  1.0000 0.1105675634
H   H15       1.0  0.70600  0.01150  0.89870  1.0000 0.1105675634
H   H16       1.0  0.26150  0.86280  0.80550  1.0000 0.1105675634
H   H17       1.0  0.18160  0.34760  0.26420  1.0000 0.1206209165
H   H18       1.0  0.16740  0.93160  0.33400  1.0000 0.1206209165
H   H19       1.0  0.59760  0.83340  0.66600  1.0000 0.1206209165
H   H20       1.0  0.08340  0.91740  0.73580  1.0000 0.1206209165
H   H21       1.0  0.06840  0.40240  0.23580  1.0000 0.1206209165
H   H22       1.0  0.08260  0.81840  0.16600  1.0000 0.1206209165
H   H23       1.0  0.65240  0.91660  0.83400  1.0000 0.1206209165
H   H24       1.0  0.16660  0.83260  0.76420  1.0000 0.1206209165
H   H25       1.0  0.06890  0.30030  0.26140  1.0000 0.1105675634
H   H26       1.0  0.05750  0.81890  0.26860  1.0000 0.1105675634
H   H27       1.0  0.55030  0.78890  0.73140  1.0000 0.1105675634
H   H28       1.0  0.03890  0.80750  0.73860  1.0000 0.1105675634
H   H29       1.0  0.18110  0.44970  0.23860  1.0000 0.1105675634
H   H30       1.0  0.19250  0.93110  0.23140  1.0000 0.1105675634
H   H31       1.0  0.69970  0.96110  0.76860  1.0000 0.1105675634
H   H32       1.0  0.21110  0.94250  0.76140  1.0000 0.1105675634
H   H33       1.0  0.69080  0.04660  0.30540  1.0000 0.138250507
H   H34       1.0  0.63540  0.44080  0.14420  1.0000 0.138250507
H   H35       1.0  0.29660  0.49120  0.85580  1.0000 0.138250507
H   H36       1.0  0.74120  0.38540  0.69460  1.0000 0.138250507
H   H37       1.0  0.55920  0.70340  0.19460  1.0000 0.138250507
H   H38       1.0  0.61460  0.30920  0.35580  1.0000 0.138250507
H   H39       1.0  0.95340  0.25880  0.64420  1.0000 0.138250507
H   H40       1.0  0.50880  0.36460  0.80540  1.0000 0.138250507
H   H41       1.0  0.64690  0.97010  0.32220  1.0000 0.138250507
H   H42       1.0  0.57470  0.39690  0.17680  1.0000 0.138250507
H   H43       1.0  0.22010  0.39790  0.82320  1.0000 0.138250507
H   H44       1.0  0.64790  0.32470  0.67780  1.0000 0.138250507
H   H45       1.0  0.60310  0.77990  0.17780  1.0000 0.138250507
H   H46       1.0  0.67530  0.35310  0.32320  1.0000 0.138250507
H   H47       1.0  0.02990  0.35210  0.67680  1.0000 0.138250507
H   H48       1.0  0.60210  0.42530  0.82220  1.0000 0.138250507
H   H49       1.0  0.64120  0.02860  0.37020  1.0000 0.0908033925
H   H50       1.0  0.52100  0.39120  0.11260  1.0000 0.0908033925
H   H51       1.0  0.27860  0.40840  0.88740  1.0000 0.0908033925
H   H52       1.0  0.65840  0.27100  0.62980  1.0000 0.0908033925
H   H53       1.0  0.60880  0.72140  0.12980  1.0000 0.0908033925
H   H54       1.0  0.72900  0.35880  0.38740  1.0000 0.0908033925
H   H55       1.0  0.97140  0.34160  0.61260  1.0000 0.0908033925
H   H56       1.0  0.59160  0.47900  0.87020  1.0000 0.0908033925
H   H57       1.0  0.70320  0.04670  0.40030  1.0000 0.0908033925
H   H58       1.0  0.55290  0.45320  0.15650  1.0000 0.0908033925
H   H59       1.0  0.29670  0.39640  0.84350  1.0000 0.0908033925
H   H60       1.0  0.64640  0.30290  0.59970  1.0000 0.0908033925
H   H61       1.0  0.54680  0.70330  0.09970  1.0000 0.0908033925
H   H62       1.0  0.69710  0.29680  0.34350  1.0000 0.0908033925
H   H63       1.0  0.95330  0.35360  0.65650  1.0000 0.0908033925
H   H64       1.0  0.60360  0.44710  0.90030  1.0000 0.0908033925
H   H65       1.0  0.81970  0.18470  0.39360  1.0000 0.1023729985
H   H66       1.0  0.67610  0.56970  0.13500  1.0000 0.1023729985
H   H67       1.0  0.43470  0.54110  0.86500  1.0000 0.1023729985
H   H68       1.0  0.79110  0.42610  0.60640  1.0000 0.1023729985
H   H69       1.0  0.43030  0.56530  0.10640  1.0000 0.1023729985
H   H70       1.0  0.57390  0.18030  0.36500  1.0000 0.1023729985
H   H71       1.0  0.81530  0.20890  0.63500  1.0000 0.1023729985
H   H72       1.0  0.45890  0.32390  0.89360  1.0000 0.1023729985
H   H73       1.0  0.75920  0.16700  0.36140  1.0000 0.1023729985
H   H74       1.0  0.64780  0.50920  0.09220  1.0000 0.1023729985
H   H75       1.0  0.41700  0.55560  0.90780  1.0000 0.1023729985
H   H76       1.0  0.80560  0.39780  0.63860  1.0000 0.1023729985
H   H77       1.0  0.49080  0.58300  0.13860  1.0000 0.1023729985
H   H78       1.0  0.60220  0.24080  0.40780  1.0000 0.1023729985
H   H79       1.0  0.83300  0.19440  0.59220  1.0000 0.1023729985
H   H80       1.0  0.44440  0.35220  0.86140  1.0000 0.1023729985
H   H81       1.0  0.70830  0.15110  0.42520  1.0000 0.0908033925
H   H82       1.0  0.53310  0.45830  0.05720  1.0000 0.0908033925
H   H83       1.0  0.40110  0.47590  0.94280  1.0000 0.0908033925
H   H84       1.0  0.72590  0.28310  0.57480  1.0000 0.0908033925
H   H85       1.0  0.54170  0.59890  0.07480  1.0000 0.0908033925
H   H86       1.0  0.71690  0.29170  0.44280  1.0000 0.0908033925
H   H87       1.0  0.84890  0.27410  0.55720  1.0000 0.0908033925
H   H88       1.0  0.52410  0.46690  0.92520  1.0000 0.0908033925
H   H89       1.0  0.77000  0.17020  0.45740  1.0000 0.0908033925
H   H90       1.0  0.56260  0.52000  0.09980  1.0000 0.0908033925
H   H91       1.0  0.42020  0.46280  0.90020  1.0000 0.0908033925
H   H92       1.0  0.71280  0.31260  0.54260  1.0000 0.0908033925
H   H93       1.0  0.48000  0.57980  0.04260  1.0000 0.0908033925
H   H94       1.0  0.68740  0.23000  0.40020  1.0000 0.0908033925
H   H95       1.0  0.82980  0.28720  0.59980  1.0000 0.0908033925
H   H96       1.0  0.53720  0.43740  0.95740  1.0000 0.0908033925
H   H97       1.0  0.83090  0.29040  0.41470  1.0000 0.1288197045
H   H98       1.0  0.66620  0.58090  0.04050  1.0000 0.1288197045
H   H99       1.0  0.54040  0.62570  0.95950  1.0000 0.1288197045
H   H100      1.0  0.87570  0.41620  0.58530  1.0000 0.1288197045
H   H101      1.0  0.41910  0.45960  0.08530  1.0000 0.1288197045
H   H102      1.0  0.58380  0.16910  0.45950  1.0000 0.1288197045
H   H103      1.0  0.70960  0.12430  0.54050  1.0000 0.1288197045
H   H104      1.0  0.37430  0.33380  0.91470  1.0000 0.1288197045
H   H105      1.0  0.82500  0.29180  0.46680  1.0000 0.1206209165
H   H106      1.0  0.60820  0.57500  0.03320  1.0000 0.1206209165
H   H107      1.0  0.54180  0.57500  0.96680  1.0000 0.1206209165
H   H108      1.0  0.82500  0.35820  0.53320  1.0000 0.1206209165
H   H109      1.0  0.42500  0.45820  0.03320  1.0000 0.1206209165
H   H110      1.0  0.64180  0.17500  0.46680  1.0000 0.1206209165
H   H111      1.0  0.70820  0.17500  0.53320  1.0000 0.1206209165
H   H112      1.0  0.42500  0.39180  0.96680  1.0000 0.1206209165
H   H113      1.0  0.88730  0.30840  0.45310  1.0000 0.1288197045
H   H114      1.0  0.68420  0.63730  0.07890  1.0000 0.1288197045
H   H115      1.0  0.55840  0.60530  0.92110  1.0000 0.1288197045
H   H116      1.0  0.85530  0.43420  0.54690  1.0000 0.1288197045
H   H117      1.0  0.36270  0.44160  0.04690  1.0000 0.1288197045
H   H118      1.0  0.56580  0.11270  0.42110  1.0000 0.1288197045
H   H119      1.0  0.69160  0.14470  0.57890  1.0000 0.1288197045
H   H120      1.0  0.39470  0.31580  0.95310  1.0000 0.1288197045
H   H121      1.0  0.87680  0.15980  0.44620  1.0000 0.1023729985
H   H122      1.0  0.68060  0.62680  0.21700  1.0000 0.1023729985
H   H123      1.0  0.40980  0.46360  0.78300  1.0000 0.1023729985
H   H124      1.0  0.71360  0.43060  0.55380  1.0000 0.1023729985
H   H125      1.0  0.37320  0.59020  0.05380  1.0000 0.1023729985
H   H126      1.0  0.56940  0.12320  0.28300  1.0000 0.1023729985
H   H127      1.0  0.84020  0.28640  0.71700  1.0000 0.1023729985
H   H128      1.0  0.53640  0.31940  0.94620  1.0000 0.1023729985
H   H129      1.0  0.08720  0.34750  0.47570  1.0000 0.138250507
H   H130      1.0  0.86150  0.83720  0.23970  1.0000 0.138250507
H   H131      1.0  0.59750  0.62180  0.76030  1.0000 0.138250507
H   H132      1.0  0.87180  0.61150  0.52430  1.0000 0.138250507
H   H133      1.0  0.16280  0.40250  0.02430  1.0000 0.138250507
H   H134      1.0  0.38850  0.91280  0.26030  1.0000 0.138250507
H   H135      1.0  0.65250  0.12820  0.73970  1.0000 0.138250507
H   H136      1.0  0.37820  0.13850  0.97570  1.0000 0.138250507
H   H137      1.0  0.08630  0.39440  0.50290  1.0000 0.138250507
H   H138      1.0  0.83340  0.83630  0.19190  1.0000 0.138250507
H   H139      1.0  0.64440  0.64150  0.80810  1.0000 0.138250507
H   H140      1.0  0.89150  0.58340  0.49710  1.0000 0.138250507
H   H141      1.0  0.16370  0.35560  0.99710  1.0000 0.138250507
H   H142      1.0  0.41660  0.91370  0.30810  1.0000 0.138250507
H   H143      1.0  0.60560  0.10850  0.69190  1.0000 0.138250507
H   H144      1.0  0.35850  0.16660  0.00290  1.0000 0.138250507
H   H145      1.0  0.09150  0.35470  0.52940  1.0000 0.138250507
H   H146      1.0  0.81210  0.84150  0.23680  1.0000 0.138250507
H   H147      1.0  0.60470  0.57530  0.76320  1.0000 0.138250507
H   H148      1.0  0.82530  0.56210  0.47060  1.0000 0.138250507
H   H149      1.0  0.15850  0.39530  0.97060  1.0000 0.138250507
H   H150      1.0  0.43790  0.90850  0.26320  1.0000 0.1288197045
H   H151      1.0  0.64530  0.17470  0.73680  1.0000 0.138250507
H   H152      1.0  0.42470  0.18790  0.02940  1.0000 0.1288197045
H   H153      1.0  0.88300  0.20740  0.51220  1.0000 0.138250507
H   H154      1.0  0.62080  0.63300  0.17560  1.0000 0.138250507
H   H155      1.0  0.45740  0.44520  0.82440  1.0000 0.138250507
H   H156      1.0  0.69520  0.37080  0.48780  1.0000 0.138250507
H   H157      1.0  0.36700  0.54260  0.98780  1.0000 0.138250507
H   H158      1.0  0.62920  0.11700  0.32440  1.0000 0.138250507
H   H159      1.0  0.79260  0.30480  0.67560  1.0000 0.138250507
H   H160      1.0  0.55480  0.37920  0.01220  1.0000 0.138250507
H   H161      1.0  0.96810  0.27470  0.55200  1.0000 0.1488660238
H   H162      1.0  0.66610  0.71810  0.19340  1.0000 0.1488660238
H   H163      1.0  0.52470  0.47270  0.80660  1.0000 0.1488660238
H   H164      1.0  0.72270  0.41610  0.44800  1.0000 0.1488660238
H   H165      1.0  0.28190  0.47530  0.94800  1.0000 0.1488660238
H   H166      1.0  0.58390  0.03190  0.30660  1.0000 0.1488660238
H   H167      1.0  0.72530  0.27730  0.69340  1.0000 0.1488660238
H   H168      1.0  0.52730  0.33390  0.05200  1.0000 0.1488660238
H   H169      1.0  0.95300  0.30430  0.52230  1.0000 0.1488660238
H   H170      1.0  0.68070  0.70300  0.14870  1.0000 0.1488660238
H   H171      1.0  0.55430  0.53200  0.85130  1.0000 0.1488660238
H   H172      1.0  0.78200  0.43070  0.47770  1.0000 0.1488660238
H   H173      1.0  0.29700  0.44570  0.97770  1.0000 0.1488660238
H   H174      1.0  0.56930  0.04700  0.35130  1.0000 0.1488660238
H   H175      1.0  0.69570  0.21800  0.64870  1.0000 0.1488660238
H   H176      1.0  0.46800  0.31930  0.02230  1.0000 0.1488660238
H   H177      1.0  0.92020  0.36140  0.32180  1.0000 0.138250507
H   H178      1.0  0.84840  0.67020  0.05880  1.0000 0.138250507
H   H179      1.0  0.61140  0.78960  0.94120  1.0000 0.138250507
H   H180      1.0  0.03960  0.59840  0.67820  1.0000 0.138250507
H   H181      1.0  0.32980  0.38860  0.17820  1.0000 0.138250507
H   H182      1.0  0.40160  0.07980  0.44120  1.0000 0.138250507
H   H183      1.0  0.63860  0.96040  0.55880  1.0000 0.138250507
H   H184      1.0  0.21040  0.15160  0.82180  1.0000 0.138250507
H   H185      1.0  0.85830  0.37850  0.31900  1.0000 0.1105675634
H   H186      1.0  0.78930  0.60830  0.97980  1.0000 0.1105675634
H   H187      1.0  0.62850  0.80950  0.02020  1.0000 0.1105675634
H   H188      1.0  0.05950  0.53930  0.68100  1.0000 0.1105675634
H   H189      1.0  0.39170  0.37150  0.18100  1.0000 0.1105675634
H   H190      1.0  0.46070  0.14170  0.52020  1.0000 0.1105675634
H   H191      1.0  0.62150  0.94050  0.47980  1.0000 0.1105675634
H   H192      1.0  0.19050  0.21070  0.81900  1.0000 0.1105675634
H   H193      1.0  0.72310  0.27390  0.27360  1.0000 0.1288197045
H   H194      1.0  0.69950  0.47310  0.94920  1.0000 0.1288197045
H   H195      1.0  0.52390  0.75030  0.05080  1.0000 0.1288197045
H   H196      1.0  0.00030  0.44950  0.72640  1.0000 0.1288197045
H   H197      1.0  0.52690  0.47610  0.22640  1.0000 0.1288197045
H   H198      1.0  0.55050  0.27690  0.55080  1.0000 0.1288197045
H   H199      1.0  0.72610  0.99970  0.44920  1.0000 0.1288197045
H   H200      1.0  0.24970  0.30050  0.77360  1.0000 0.1288197045
H   H201      1.0  0.64730  0.14880  0.23310  1.0000 0.1105675634
H   H202      1.0  0.66420  0.39730  0.99850  1.0000 0.1105675634
H   H203      1.0  0.39880  0.66570  0.00150  1.0000 0.1105675634
H   H204      1.0  0.91570  0.41420  0.76690  1.0000 0.1105675634
H   H205      1.0  0.60270  0.60120  0.26690  1.0000 0.1105675634
H   H206      1.0  0.58580  0.35270  0.50150  1.0000 0.1105675634
H   H207      1.0  0.85120  0.08430  0.49850  1.0000 0.1105675634
H   H208      1.0  0.33430  0.33580  0.73310  1.0000 0.1105675634
H   H209      1.0  0.66990  0.91130  0.16540  1.0000 0.1288197045
H   H210      1.0  0.75450  0.41990  0.25860  1.0000 0.1288197045
H   H211      1.0  0.16130  0.49590  0.74140  1.0000 0.1288197045
H   H212      1.0  0.74590  0.50450  0.83460  1.0000 0.1288197045
H   H213      1.0  0.58010  0.83870  0.33460  1.0000 0.1288197045
H   H214      1.0  0.49550  0.33010  0.24140  1.0000 0.1288197045
H   H215      1.0  0.08870  0.25410  0.75860  1.0000 0.1288197045
H   H216      1.0  0.50410  0.24550  0.66540  1.0000 0.1288197045
H   H217      1.0  0.60340  0.88960  0.13840  1.0000 0.138250507
H   H218      1.0  0.71500  0.35340  0.21380  1.0000 0.138250507
H   H219      1.0  0.13960  0.50120  0.78620  1.0000 0.138250507
H   H220      1.0  0.75120  0.46500  0.86160  1.0000 0.138250507
H   H221      1.0  0.64660  0.86040  0.36160  1.0000 0.138250507
H   H222      1.0  0.53500  0.39660  0.28620  1.0000 0.138250507
H   H223      1.0  0.11040  0.24880  0.71380  1.0000 0.138250507
H   H224      1.0  0.49880  0.28500  0.63840  1.0000 0.138250507
H   H225      1.0  0.68170  0.91680  0.09030  1.0000 0.0908033925
H   H226      1.0  0.84140  0.43170  0.26490  1.0000 0.0908033925
H   H227      1.0  0.16680  0.57650  0.73510  1.0000 0.0908033925
H   H228      1.0  0.82650  0.59140  0.90970  1.0000 0.0908033925
H   H229      1.0  0.56830  0.83320  0.40970  1.0000 0.0908033925
H   H230      1.0  0.40860  0.31830  0.23510  1.0000 0.0908033925
H   H231      1.0  0.08320  0.17350  0.76490  1.0000 0.0908033925
H   H232      1.0  0.42350  0.15860  0.59030  1.0000 0.0908033925
H   H233      1.0  0.76390  0.01090  0.12200  1.0000 0.0908033925
H   H234      1.0  0.89190  0.51390  0.25300  1.0000 0.0908033925
H   H235      1.0  0.26090  0.63890  0.74700  1.0000 0.0908033925
H   H236      1.0  0.88890  0.64190  0.87800  1.0000 0.0908033925
H   H237      1.0  0.48610  0.73910  0.37800  1.0000 0.0908033925
H   H238      1.0  0.35810  0.23610  0.24700  1.0000 0.0908033925
H   H239      1.0  0.98910  0.11110  0.75300  1.0000 0.0908033925
H   H240      1.0  0.36110  0.10810  0.62200  1.0000 0.0908033925
H   H241      1.0  0.62350  0.93700  0.06750  1.0000 0.1105675634
H   H242      1.0  0.80600  0.37350  0.18650  1.0000 0.1105675634
H   H243      1.0  0.18700  0.61950  0.81350  1.0000 0.1105675634
H   H244      1.0  0.86950  0.55600  0.93250  1.0000 0.1105675634
H   H245      1.0  0.62650  0.81300  0.43250  1.0000 0.1105675634
H   H246      1.0  0.44400  0.37650  0.31350  1.0000 0.1105675634
H   H247      1.0  0.06300  0.13050  0.68650  1.0000 0.1105675634
H   H248      1.0  0.38050  0.19400  0.56750  1.0000 0.1105675634
H   H249      1.0  0.70630  0.03140  0.09870  1.0000 0.1105675634
H   H250      1.0  0.85760  0.45630  0.17490  1.0000 0.1105675634
H   H251      1.0  0.28140  0.68270  0.82510  1.0000 0.1105675634
H   H252      1.0  0.93270  0.60760  0.90130  1.0000 0.1105675634
H   H253      1.0  0.54370  0.71860  0.40130  1.0000 0.1105675634
H   H254      1.0  0.39240  0.29370  0.32510  1.0000 0.1105675634
H   H255      1.0  0.96860  0.06730  0.67490  1.0000 0.1105675634
H   H256      1.0  0.31730  0.14240  0.59870  1.0000 0.1105675634
H   H257      1.0  0.78280  0.06000  0.05040  1.0000 0.0908033925
H   H258      1.0  0.98240  0.53280  0.22280  1.0000 0.0908033925
H   H259      1.0  0.31000  0.75960  0.77720  1.0000 0.0908033925
H   H260      1.0  0.00960  0.73240  0.94960  1.0000 0.0908033925
H   H261      1.0  0.46720  0.69000  0.44960  1.0000 0.0908033925
H   H262      1.0  0.26760  0.21720  0.27720  1.0000 0.0908033925
H   H263      1.0  0.94000  0.99040  0.72280  1.0000 0.0908033925
H   H264      1.0  0.24040  0.01760  0.55040  1.0000 0.0908033925
H   H265      1.0  0.69900  0.96580  0.01880  1.0000 0.0908033925
H   H266      1.0  0.93020  0.44900  0.23320  1.0000 0.0908033925
H   H267      1.0  0.21580  0.69700  0.76680  1.0000 0.0908033925
H   H268      1.0  0.94700  0.68020  0.98120  1.0000 0.0908033925
H   H269      1.0  0.55100  0.78420  0.48120  1.0000 0.0908033925
H   H270      1.0  0.31980  0.30100  0.26680  1.0000 0.0908033925
H   H271      1.0  0.03420  0.05300  0.73320  1.0000 0.0908033925
H   H272      1.0  0.30300  0.06980  0.51880  1.0000 0.0908033925
H   H273      1.0  0.71970  0.07800  0.02970  1.0000 0.1206209165
H   H274      1.0  0.94000  0.46970  0.14170  1.0000 0.1206209165
H   H275      1.0  0.32800  0.79830  0.85830  1.0000 0.1206209165
H   H276      1.0  0.04830  0.69000  0.97030  1.0000 0.1206209165
H   H277      1.0  0.53030  0.67200  0.47030  1.0000 0.1206209165
H   H278      1.0  0.31000  0.28030  0.35830  1.0000 0.1206209165
H   H279      1.0  0.92200  0.95170  0.64170  1.0000 0.1206209165
H   H280      1.0  0.20170  0.06000  0.52970  1.0000 0.1206209165
H   H281      1.0  0.73480  0.06070  0.98650  1.0000 0.1105675634
H   H282      1.0  0.99830  0.48480  0.17410  1.0000 0.1105675634
H   H283      1.0  0.31070  0.82420  0.82590  1.0000 0.1105675634
H   H284      1.0  0.07420  0.74830  0.01350  1.0000 0.1105675634
H   H285      1.0  0.51520  0.68930  0.51350  1.0000 0.1105675634
H   H286      1.0  0.25170  0.26520  0.32590  1.0000 0.1105675634
H   H287      1.0  0.93930  0.92580  0.67410  1.0000 0.1105675634
H   H288      1.0  0.17580  0.00170  0.48650  1.0000 0.1105675634
H   H289      1.0  0.64360  0.98740  0.99380  1.0000 0.1206209165
H   H290      1.0  0.89980  0.39360  0.15620  1.0000 0.1206209165
H   H291      1.0  0.23740  0.74360  0.84380  1.0000 0.1206209165
H   H292      1.0  0.99360  0.64980  0.00620  1.0000 0.1206209165
H   H293      1.0  0.60640  0.76260  0.50620  1.0000 0.1206209165
H   H294      1.0  0.35020  0.35640  0.34380  1.0000 0.1206209165
H   H295      1.0  0.01260  0.00640  0.65620  1.0000 0.1206209165
H   H296      1.0  0.25640  0.10020  0.49380  1.0000 0.1206209165
H   H297      1.0  0.84380  0.24690  0.18190  1.0000 0.1105675634
H   H298      1.0  0.91190  0.59380  0.09690  1.0000 0.1105675634
H   H299      1.0  0.49690  0.81500  0.90310  1.0000 0.1105675634
H   H300      1.0  0.06500  0.66190  0.81810  1.0000 0.1105675634
H   H301      1.0  0.40620  0.50310  0.31810  1.0000 0.1105675634
H   H302      1.0  0.33810  0.15620  0.40310  1.0000 0.1105675634
H   H303      1.0  0.75310  0.93500  0.59690  1.0000 0.1105675634
H   H304      1.0  0.18500  0.08810  0.68190  1.0000 0.1105675634
H   H305      1.0  0.87470  0.28170  0.11300  1.0000 0.138250507
H   H306      1.0  0.01170  0.62470  0.09300  1.0000 0.138250507
H   H307      1.0  0.53170  0.91870  0.90700  1.0000 0.138250507
H   H308      1.0  0.16870  0.76170  0.88700  1.0000 0.138250507
H   H309      1.0  0.37530  0.46830  0.38700  1.0000 0.138250507
H   H310      1.0  0.23830  0.12530  0.40700  1.0000 0.138250507
H   H311      1.0  0.71830  0.83130  0.59300  1.0000 0.138250507
H   H312      1.0  0.08130  0.98830  0.61300  1.0000 0.138250507
H   H313      1.0  0.95480  0.22390  0.11170  1.0000 0.138250507
H   H314      1.0  0.09310  0.70480  0.23090  1.0000 0.1488660238
H   H315      1.0  0.47390  0.86220  0.76910  1.0000 0.1488660238
H   H316      1.0  0.11220  0.84310  0.88830  1.0000 0.1488660238
H   H317      1.0  0.29520  0.52610  0.38830  1.0000 0.1488660238
H   H318      1.0  0.15690  0.04520  0.26910  1.0000 0.1488660238
H   H319      1.0  0.77610  0.88780  0.73090  1.0000 0.1488660238
H   H320      1.0  0.13780  0.90690  0.61170  1.0000 0.1488660238
H   H321      1.0  0.92300  0.19070  0.18030  1.0000 0.1105675634
H   H322      1.0  0.99270  0.67300  0.23230  1.0000 0.1105675634
H   H323      1.0  0.44070  0.76040  0.76770  1.0000 0.1105675634
H   H324      1.0  0.01040  0.74270  0.81970  1.0000 0.1105675634
H   H325      1.0  0.32700  0.55930  0.31970  1.0000 0.1105675634
H   H326      1.0  0.25730  0.07700  0.26770  1.0000 0.1105675634
H   H327      1.0  0.80930  0.98960  0.73230  1.0000 0.1105675634
H   H328      1.0  0.23960  0.00730  0.68030  1.0000 0.1105675634
H   H329      1.0  0.90510  0.27310  0.04260  1.0000 0.1206209165
H   H330      1.0  0.11250  0.65510  0.13200  1.0000 0.1206209165
H   H331      1.0  0.52310  0.98050  0.86800  1.0000 0.1206209165
H   H332      1.0  0.23050  0.86250  0.95740  1.0000 0.1206209165
H   H333      1.0  0.34490  0.47690  0.45740  1.0000 0.1206209165
H   H334      1.0  0.13750  0.09490  0.36800  1.0000 0.1206209165
H   H335      1.0  0.72690  0.76950  0.63200  1.0000 0.1206209165
H   H336      1.0  0.01950  0.88750  0.54260  1.0000 0.1206209165
H   H337      1.0  0.92660  0.23930  0.03970  1.0000 0.1206209165
H   H338      1.0  0.13690  0.67660  0.18730  1.0000 0.1206209165
H   H339      1.0  0.48930  0.94960  0.81270  1.0000 0.1206209165
H   H340      1.0  0.19960  0.88690  0.96030  1.0000 0.1206209165
H   H341      1.0  0.32340  0.51070  0.46030  1.0000 0.1206209165
H   H342      1.0  0.11310  0.07340  0.31270  1.0000 0.1206209165
H   H343      1.0  0.76070  0.80040  0.68730  1.0000 0.1206209165
H   H344      1.0  0.05040  0.86310  0.53970  1.0000 0.1206209165
H   H345      1.0  0.71270  0.77230  0.46440  1.0000 0.138250507
H   H346      1.0  0.49830  0.46270  0.44040  1.0000 0.138250507
H   H347      1.0  0.02230  0.05790  0.55960  1.0000 0.138250507
H   H348      1.0  0.30790  0.24830  0.53560  1.0000 0.138250507
H   H349      1.0  0.53730  0.97770  0.03560  1.0000 0.138250507
H   H350      1.0  0.75170  0.28730  0.05960  1.0000 0.138250507
H   H351      1.0  0.22770  0.69210  0.94040  1.0000 0.138250507
H   H352      1.0  0.94210  0.50170  0.96440  1.0000 0.138250507
H   H353      1.0  0.79130  0.86000  0.53890  1.0000 0.1023729985
H   H354      1.0  0.50240  0.54130  0.43130  1.0000 0.1023729985
H   H355      1.0  0.11000  0.07110  0.56870  1.0000 0.1023729985
H   H356      1.0  0.32110  0.25240  0.46110  1.0000 0.1023729985
H   H357      1.0  0.45870  0.89000  0.96110  1.0000 0.1023729985
H   H358      1.0  0.74760  0.20870  0.06870  1.0000 0.1023729985
H   H359      1.0  0.14000  0.67890  0.93130  1.0000 0.1023729985
H   H360      1.0  0.92890  0.49760  0.03890  1.0000 0.1023729985
H   H361      1.0  0.88250  0.99770  0.55380  1.0000 0.1206209165
H   H362      1.0  0.57870  0.63250  0.38480  1.0000 0.1206209165
H   H363      1.0  0.24770  0.19390  0.61520  1.0000 0.1206209165
H   H364      1.0  0.44390  0.32870  0.44620  1.0000 0.1206209165
H   H365      1.0  0.36750  0.75230  0.94620  1.0000 0.1206209165
H   H366      1.0  0.67130  0.11750  0.11520  1.0000 0.1206209165
H   H367      1.0  0.00230  0.55610  0.88480  1.0000 0.1206209165
H   H368      1.0  0.80610  0.42130  0.05380  1.0000 0.1206209165
H   H369      1.0  0.89260  0.04520  0.49260  1.0000 0.1206209165
H   H370      1.0  0.65000  0.64260  0.34740  1.0000 0.1206209165
H   H371      1.0  0.29520  0.30260  0.65260  1.0000 0.1206209165
H   H372      1.0  0.55260  0.40000  0.50740  1.0000 0.1206209165
H   H373      1.0  0.35740  0.70480  0.00740  1.0000 0.1206209165
H   H374      1.0  0.60000  0.10740  0.15260  1.0000 0.1206209165
H   H375      1.0  0.95480  0.44740  0.84740  1.0000 0.1206209165
H   H376      1.0  0.69740  0.35000  0.99260  1.0000 0.1206209165
H   H377      1.0  0.81260  0.01290  0.25610  1.0000 0.138250507
H   H378      1.0  0.80650  0.56260  0.29970  1.0000 0.138250507
H   H379      1.0  0.26290  0.50680  0.70030  1.0000 0.138250507
H   H380      1.0  0.75680  0.55650  0.74390  1.0000 0.138250507
H   H381      1.0  0.43740  0.73710  0.24390  1.0000 0.138250507
H   H382      1.0  0.44350  0.18740  0.20030  1.0000 0.138250507
H   H383      1.0  0.98710  0.24320  0.79970  1.0000 0.138250507
H   H384      1.0  0.49320  0.19350  0.75610  1.0000 0.138250507
H   H385      1.0  0.73660  0.92100  0.22140  1.0000 0.1288197045
H   H386      1.0  0.76520  0.48660  0.31560  1.0000 0.1288197045
H   H387      1.0  0.17100  0.44960  0.68440  1.0000 0.1288197045
H   H388      1.0  0.69960  0.51520  0.77860  1.0000 0.1288197045
H   H389      1.0  0.51340  0.82900  0.27860  1.0000 0.1288197045
H   H390      1.0  0.48480  0.26340  0.18440  1.0000 0.1288197045
H   H391      1.0  0.07900  0.30040  0.81560  1.0000 0.1288197045
H   H392      1.0  0.55040  0.23480  0.72140  1.0000 0.1288197045
H   H393      1.0  0.90550  0.03150  0.25160  1.0000 0.0908033925
H   H394      1.0  0.90390  0.65550  0.37400  1.0000 0.0908033925
H   H395      1.0  0.28150  0.52990  0.62600  1.0000 0.0908033925
H   H396      1.0  0.77990  0.65390  0.74840  1.0000 0.0908033925
H   H397      1.0  0.34450  0.71850  0.24840  1.0000 0.0908033925
H   H398      1.0  0.34610  0.09450  0.12600  1.0000 0.0908033925
H   H399      1.0  0.96850  0.22010  0.87400  1.0000 0.0908033925
H   H400      1.0  0.47010  0.09610  0.75160  1.0000 0.0908033925
H   H401      1.0  0.83040  0.93750  0.22070  1.0000 0.0908033925
H   H402      1.0  0.85970  0.58040  0.39290  1.0000 0.0908033925
H   H403      1.0  0.18750  0.46680  0.60710  1.0000 0.0908033925
H   H404      1.0  0.71680  0.60970  0.77930  1.0000 0.0908033925
H   H405      1.0  0.41960  0.81250  0.27930  1.0000 0.0908033925
H   H406      1.0  0.39030  0.16960  0.10710  1.0000 0.0908033925
H   H407      1.0  0.06250  0.28320  0.89290  1.0000 0.0908033925
H   H408      1.0  0.53320  0.14030  0.72070  1.0000 0.0908033925
H   H409      1.0  0.86270  0.98470  0.16220  1.0000 0.1105675634
H   H410      1.0  0.95050  0.61270  0.37800  1.0000 0.1105675634
H   H411      1.0  0.23470  0.57250  0.62200  1.0000 0.1105675634
H   H412      1.0  0.82250  0.70050  0.83780  1.0000 0.1105675634
H   H413      1.0  0.38730  0.76530  0.33780  1.0000 0.1105675634
H   H414      1.0  0.29950  0.13730  0.12200  1.0000 0.1105675634
H   H415      1.0  0.01530  0.17750  0.87800  1.0000 0.1105675634
H   H416      1.0  0.42750  0.04950  0.66220  1.0000 0.1105675634
H   H417      1.0  0.81860  0.99330  0.17050  1.0000 0.1288197045
H   H418      1.0  0.89810  0.56860  0.32530  1.0000 0.1288197045
H   H419      1.0  0.24330  0.57280  0.67470  1.0000 0.1288197045
H   H420      1.0  0.82280  0.64810  0.82950  1.0000 0.1288197045
H   H421      1.0  0.43140  0.75670  0.32950  1.0000 0.1288197045
H   H422      1.0  0.35190  0.18140  0.17470  1.0000 0.1206209165
H   H423      1.0  0.00670  0.17720  0.82530  1.0000 0.1288197045
H   H424      1.0  0.42720  0.10190  0.67050  1.0000 0.1288197045
H   H425      1.0  0.97480  0.10860  0.20160  1.0000 0.1206209165
H   H426      1.0  0.02320  0.72480  0.36620  1.0000 0.1206209165
H   H427      1.0  0.35860  0.65700  0.63380  1.0000 0.1206209165
H   H428      1.0  0.90700  0.77320  0.79840  1.0000 0.1206209165
H   H429      1.0  0.27520  0.64140  0.29840  1.0000 0.1206209165
H   H430      1.0  0.22680  0.02520  0.13380  1.0000 0.1206209165
H   H431      1.0  0.89140  0.09300  0.86620  1.0000 0.1206209165
H   H432      1.0  0.34300  0.97680  0.70160  1.0000 0.1206209165
H   H433      1.0  0.92600  0.11300  0.20180  1.0000 0.1206209165
H   H434      1.0  0.97420  0.67600  0.31300  1.0000 0.1206209165
H   H435      1.0  0.36300  0.66120  0.68700  1.0000 0.1206209165
H   H436      1.0  0.91120  0.72420  0.79820  1.0000 0.1206209165
H   H437      1.0  0.32400  0.63700  0.29820  1.0000 0.1206209165
H   H438      1.0  0.27580  0.07400  0.18700  1.0000 0.1206209165
H   H439      1.0  0.88700  0.08880  0.81300  1.0000 0.1206209165
H   H440      1.0  0.33880  0.02580  0.70180  1.0000 0.1206209165
H   H441      1.0  0.90850  0.05860  0.11270  1.0000 0.1105675634
H   H442      1.0  0.04580  0.65850  0.34990  1.0000 0.1105675634
H   H443      1.0  0.30860  0.69590  0.65010  1.0000 0.1105675634
H   H444      1.0  0.94590  0.79580  0.88730  1.0000 0.1105675634
H   H445      1.0  0.34150  0.69140  0.38730  1.0000 0.1105675634
H   H446      1.0  0.20420  0.09150  0.15010  1.0000 0.1105675634
H   H447      1.0  0.94140  0.05410  0.84990  1.0000 0.1105675634
H   H448      1.0  0.30410  0.95420  0.61270  1.0000 0.1105675634
H   H449      1.0  0.00170  0.15230  0.13980  1.0000 0.1206209165
H   H450      1.0  0.11190  0.75170  0.34940  1.0000 0.1206209165
H   H451      1.0  0.40230  0.76250  0.65060  1.0000 0.1206209165
H   H452      1.0  0.01250  0.86190  0.86020  1.0000 0.1206209165
H   H453      1.0  0.24830  0.59770  0.36020  1.0000 0.1206209165
H   H454      1.0  0.13810  0.99830  0.15060  1.0000 0.1206209165
H   H455      1.0  0.84770  0.98750  0.84940  1.0000 0.1206209165
H   H456      1.0  0.23750  0.88810  0.63980  1.0000 0.1206209165
H   H457      1.0  0.92840  0.12620  0.13140  1.0000 0.1105675634
H   H458      1.0  0.04700  0.67840  0.30220  1.0000 0.1105675634
H   H459      1.0  0.37620  0.74480  0.69780  1.0000 0.1105675634
H   H460      1.0  0.99480  0.79700  0.86860  1.0000 0.1105675634
H   H461      1.0  0.32160  0.62380  0.36860  1.0000 0.1105675634
H   H462      1.0  0.20300  0.07160  0.19780  1.0000 0.1105675634
H   H463      1.0  0.87380  0.00520  0.80220  1.0000 0.1105675634
H   H464      1.0  0.25520  0.95300  0.63140  1.0000 0.1105675634
H   H465      1.0  0.01610  0.34730  0.91600  1.0000 0.1105675634
H   H466      1.0  0.35010  0.76610  0.16880  1.0000 0.1105675634
H   H467      1.0  0.59730  0.18130  0.83120  1.0000 0.1105675634
H   H468      1.0  0.43130  0.10010  0.08400  1.0000 0.1105675634
H   H469      1.0  0.23390  0.40270  0.58400  1.0000 0.1105675634
H   H470      1.0  0.89990  0.98390  0.33120  1.0000 0.1105675634
H   H471      1.0  0.65270  0.56870  0.66880  1.0000 0.1105675634
H   H472      1.0  0.81870  0.64990  0.41600  1.0000 0.1105675634
H   H473      1.0  0.95800  0.28850  0.97570  1.0000 0.138250507
H   H474      1.0  0.23230  0.70800  0.16950  1.0000 0.138250507
H   H475      1.0  0.53850  0.06280  0.83050  1.0000 0.138250507
H   H476      1.0  0.31280  0.98230  0.02430  1.0000 0.138250507
H   H477      1.0  0.29200  0.46150  0.52430  1.0000 0.138250507
H   H478      1.0  0.01770  0.04200  0.33050  1.0000 0.138250507
H   H479      1.0  0.71150  0.68720  0.66950  1.0000 0.138250507
H   H480      1.0  0.93720  0.76770  0.47570  1.0000 0.138250507
H   H481      1.0  0.17240  0.51570  0.06510  1.0000 0.1488660238
H   H482      1.0  0.35730  0.92240  0.15670  1.0000 0.1488660238
H   H483      1.0  0.76570  0.20060  0.84330  1.0000 0.1488660238
H   H484      1.0  0.45060  0.10730  0.93490  1.0000 0.1488660238
H   H485      1.0  0.07760  0.23430  0.43490  1.0000 0.1488660238
H   H486      1.0  0.89270  0.82760  0.34330  1.0000 0.1488660238
H   H487      1.0  0.48430  0.54940  0.65670  1.0000 0.1488660238
H   H488      1.0  0.79940  0.64270  0.56510  1.0000 0.1488660238
H   H489      1.0  0.22430  0.56660  0.00270  1.0000 0.1206209165
H   H490      1.0  0.47160  0.97430  0.15770  1.0000 0.1206209165
H   H491      1.0  0.81660  0.31390  0.84230  1.0000 0.1206209165
H   H492      1.0  0.56390  0.22160  0.99730  1.0000 0.1206209165
H   H493      1.0  0.02570  0.18340  0.49730  1.0000 0.1206209165
H   H494      1.0  0.77840  0.77570  0.34230  1.0000 0.1206209165
H   H495      1.0  0.43340  0.43610  0.65770  1.0000 0.1206209165
H   H496      1.0  0.68610  0.52840  0.50270  1.0000 0.1206209165
H   H497      1.0  0.03680  0.39910  0.08870  1.0000 0.1206209165
H   H498      1.0  0.19810  0.78680  0.13770  1.0000 0.1206209165
H   H499      1.0  0.64910  0.06040  0.86230  1.0000 0.1206209165
H   H500      1.0  0.31040  0.94810  0.91130  1.0000 0.1206209165
H   H501      1.0  0.21320  0.35090  0.41130  1.0000 0.1206209165
H   H502      1.0  0.05190  0.96320  0.36230  1.0000 0.1206209165
H   H503      1.0  0.60090  0.68960  0.63770  1.0000 0.1206209165
H   H504      1.0  0.93960  0.80190  0.58870  1.0000 0.1206209165
H   H505      1.0  0.05820  0.36550  0.08610  1.0000 0.1288197045
H   H506      1.0  0.22210  0.80820  0.19270  1.0000 0.1288197045
H   H507      1.0  0.61550  0.02940  0.80730  1.0000 0.1288197045
H   H508      1.0  0.27940  0.97210  0.91390  1.0000 0.1288197045
H   H509      1.0  0.19180  0.38450  0.41390  1.0000 0.1288197045
H   H510      1.0  0.02790  0.94180  0.30730  1.0000 0.1288197045
H   H511      1.0  0.63450  0.72060  0.69270  1.0000 0.1288197045
H   H512      1.0  0.97060  0.77790  0.58610  1.0000 0.1288197045
C   C1        1.0  0.02788  0.19729  0.33091  1.0000 0.2888668413
C   C2        1.0  0.94697  0.77788  0.33059  1.0000 0.2888668413
C   C3        1.0  0.44729  0.61638  0.66941  1.0000 0.2888668413
C   C4        1.0  0.86638  0.69697  0.66909  1.0000 0.2888668413
C   C5        1.0  0.22212  0.55271  0.16909  1.0000 0.2888668413
C   C6        1.0  0.30303  0.97212  0.16941  1.0000 0.2888668413
C   C7        1.0  0.80271  0.13362  0.83059  1.0000 0.2888668413
C   C8        1.0  0.38362  0.05303  0.83091  1.0000 0.2888668413
C   C9        1.0  0.09339  0.22331  0.33050  1.0000 -0.2453287712
C   C10       1.0  0.01289  0.84339  0.37008  1.0000 -0.2453287712
C   C11       1.0  0.47331  0.64281  0.62992  1.0000 -0.2453287712
C   C12       1.0  0.89281  0.76289  0.66950  1.0000 -0.2453287712
C   C13       1.0  0.15661  0.52669  0.16950  1.0000 -0.2453287712
C   C14       1.0  0.23711  0.90661  0.12992  1.0000 -0.2453287712
C   C15       1.0  0.77669  0.10719  0.87008  1.0000 -0.2453287712
C   C16       1.0  0.35719  0.98711  0.83050  1.0000 -0.2453287712
C   C17       1.0  0.14890  0.27758  0.30548  1.0000 -0.0792930152
C   C18       1.0  0.09342  0.89890  0.37132  1.0000 -0.0792930152
C   C19       1.0  0.52758  0.72210  0.62868  1.0000 -0.0792930152
C   C20       1.0  0.97210  0.84342  0.69452  1.0000 -0.0792930152
C   C21       1.0  0.10110  0.47242  0.19452  1.0000 -0.0792930152
C   C22       1.0  0.15658  0.85110  0.12868  1.0000 -0.0792930152
C   C23       1.0  0.72242  0.02790  0.87132  1.0000 -0.0792930152
C   C24       1.0  0.27790  0.90658  0.80548  1.0000 -0.0792930152
C   C25       1.0  0.14199  0.30853  0.28032  1.0000 -0.1532545012
C   C26       1.0  0.11167  0.89199  0.33346  1.0000 -0.1532545012
C   C27       1.0  0.55853  0.77821  0.66654  1.0000 -0.1532545012
C   C28       1.0  0.02821  0.86167  0.71968  1.0000 -0.1532545012
C   C29       1.0  0.10801  0.44147  0.21968  1.0000 -0.1532545012
C   C30       1.0  0.13833  0.85801  0.16654  1.0000 -0.1532545012
C   C31       1.0  0.69147  0.97179  0.83346  1.0000 -0.1532545012
C   C32       1.0  0.22179  0.88833  0.78032  1.0000 -0.1532545012
C   C33       1.0  0.07525  0.28074  0.27919  1.0000 -0.1125570343
C   C34       1.0  0.04606  0.82525  0.29451  1.0000 -0.1125570343
C   C35       1.0  0.53074  0.75155  0.70549  1.0000 -0.1125570343
C   C36       1.0  0.00155  0.79606  0.72081  1.0000 -0.1125570343
C   C37       1.0  0.17475  0.46926  0.22081  1.0000 -0.1125570343
C   C38       1.0  0.20394  0.92475  0.20549  1.0000 -0.1125570343
C   C39       1.0  0.71926  0.99845  0.79451  1.0000 -0.1125570343
C   C40       1.0  0.24845  0.95394  0.77919  1.0000 -0.1125570343
C   C41       1.0  0.01717  0.22463  0.30368  1.0000 -0.1576256364
C   C42       1.0  0.96349  0.76717  0.29254  1.0000 -0.1576256364
C   C43       1.0  0.47463  0.67095  0.70746  1.0000 -0.1576256364
C   C44       1.0  0.92095  0.71349  0.69632  1.0000 -0.1576256364
C   C45       1.0  0.23283  0.52537  0.19632  1.0000 -0.1576256364
C   C46       1.0  0.28651  0.98283  0.20746  1.0000 -0.1576256364
C   C47       1.0  0.77537  0.07905  0.79254  1.0000 -0.1576256364
C   C48       1.0  0.32905  0.03651  0.80368  1.0000 -0.1576256364
C   C49       1.0  0.94601  0.19482  0.29761  1.0000 0.4279567634
C   C50       1.0  0.89840  0.69601  0.25119  1.0000 0.4279567634
C   C51       1.0  0.44482  0.64721  0.74881  1.0000 0.4279567634
C   C52       1.0  0.89721  0.64840  0.70239  1.0000 0.4279567634
C   C53       1.0  0.30399  0.55518  0.20239  1.0000 0.4279567634
C   C54       1.0  0.35160  0.05399  0.24881  1.0000 0.4279567634
C   C55       1.0  0.80518  0.10279  0.75119  1.0000 0.4279567634
C   C56       1.0  0.35279  0.10160  0.79761  1.0000 0.4279567634
C   C57       1.0  0.77318  0.06921  0.33585  1.0000 0.4610014965
C   C58       1.0  0.68733  0.52318  0.20397  1.0000 0.4610014965
C   C59       1.0  0.31921  0.48336  0.79603  1.0000 0.4610014965
C   C60       1.0  0.73336  0.43733  0.66415  1.0000 0.4610014965
C   C61       1.0  0.47682  0.68079  0.16415  1.0000 0.4610014965
C   C62       1.0  0.56267  0.22682  0.29603  1.0000 0.4610014965
C   C63       1.0  0.93079  0.26664  0.70397  1.0000 0.4610014965
C   C64       1.0  0.51664  0.31267  0.83585  1.0000 0.4610014965
C   C65       1.0  0.69596  0.03146  0.33076  1.0000 -0.3210669073
C   C66       1.0  0.61520  0.44596  0.16450  1.0000 -0.3210669073
C   C67       1.0  0.28146  0.45070  0.83550  1.0000 -0.3210669073
C   C68       1.0  0.70070  0.36520  0.66924  1.0000 -0.3210669073
C   C69       1.0  0.55404  0.71854  0.16924  1.0000 -0.3210669073
C   C70       1.0  0.63480  0.30404  0.33550  1.0000 -0.3210669073
C   C71       1.0  0.96854  0.29930  0.66450  1.0000 -0.3210669073
C   C72       1.0  0.54930  0.38480  0.83076  1.0000 -0.3210669073
C   C73       1.0  0.69583  0.05982  0.37465  1.0000 -0.135699563
C   C74       1.0  0.57118  0.44583  0.13601  1.0000 -0.135699563
C   C75       1.0  0.30982  0.43517  0.86399  1.0000 -0.135699563
C   C76       1.0  0.68517  0.32118  0.62535  1.0000 -0.135699563
C   C77       1.0  0.55417  0.69018  0.12535  1.0000 -0.135699563
C   C78       1.0  0.67882  0.30417  0.36399  1.0000 -0.135699563
C   C79       1.0  0.94018  0.31483  0.63601  1.0000 -0.135699563
C   C80       1.0  0.56483  0.42882  0.87465  1.0000 -0.135699563
C   C81       1.0  0.76502  0.15354  0.38776  1.0000 -0.1887230882
C   C82       1.0  0.62726  0.51502  0.11148  1.0000 -0.1887230882
C   C83       1.0  0.40354  0.51578  0.88852  1.0000 -0.1887230882
C   C84       1.0  0.76578  0.37726  0.61224  1.0000 -0.1887230882
C   C85       1.0  0.48498  0.59646  0.11224  1.0000 -0.1887230882
C   C86       1.0  0.62274  0.23498  0.38852  1.0000 -0.1887230882
C   C87       1.0  0.84646  0.23422  0.61148  1.0000 -0.1887230882
C   C88       1.0  0.48422  0.37274  0.88776  1.0000 -0.1887230882
C   C89       1.0  0.76311  0.18244  0.43075  1.0000 -0.1125570343
C   C90       1.0  0.58236  0.51311  0.08067  1.0000 -0.1125570343
C   C91       1.0  0.43244  0.50169  0.91933  1.0000 -0.1125570343
C   C92       1.0  0.75169  0.33236  0.56925  1.0000 -0.1125570343
C   C93       1.0  0.48689  0.56756  0.06925  1.0000 -0.1125570343
C   C94       1.0  0.66764  0.23689  0.41933  1.0000 -0.1125570343
C   C95       1.0  0.81756  0.24831  0.58067  1.0000 -0.1125570343
C   C96       1.0  0.49831  0.41764  0.93075  1.0000 -0.1125570343
C   C97       1.0  0.83291  0.27689  0.44240  1.0000 -0.395085946
C   C98       1.0  0.64051  0.58291  0.05602  1.0000 -0.395085946
C   C99       1.0  0.52689  0.58449  0.94398  1.0000 -0.395085946
C   C100      1.0  0.83449  0.39051  0.55760  1.0000 -0.395085946
C   C101      1.0  0.41709  0.47311  0.05760  1.0000 -0.395085946
C   C102      1.0  0.60949  0.16709  0.44398  1.0000 -0.395085946
C   C103      1.0  0.72311  0.16551  0.55602  1.0000 -0.395085946
C   C104      1.0  0.41551  0.35949  0.94240  1.0000 -0.395085946
C   C105      1.0  0.93548  0.20975  0.45143  1.0000 0.2673662861
C   C106      1.0  0.73405  0.68548  0.22573  1.0000 0.2673662861
C   C107      1.0  0.45975  0.50832  0.77427  1.0000 0.2673662861
C   C108      1.0  0.75832  0.48405  0.54857  1.0000 0.2673662861
C   C109      1.0  0.31452  0.54025  0.04857  1.0000 0.2673662861
C   C110      1.0  0.51595  0.06452  0.27427  1.0000 0.2673662861
C   C111      1.0  0.79025  0.24168  0.72573  1.0000 0.2673662861
C   C112      1.0  0.49168  0.26595  0.95143  1.0000 0.2673662861
C   C113      1.0  0.06804  0.34799  0.50003  1.0000 -0.3363032009
C   C114      1.0  0.81801  0.81804  0.22005  1.0000 -0.3363032009
C   C115      1.0  0.59799  0.59796  0.77995  1.0000 -0.3363032009
C   C116      1.0  0.84796  0.56801  0.49997  1.0000 -0.3363032009
C   C117      1.0  0.18196  0.40201  0.99997  1.0000 -0.3363032009
C   C118      1.0  0.43199  0.93196  0.27995  1.0000 -0.3363032009
C   C119      1.0  0.65201  0.15204  0.72005  1.0000 -0.3363032009
C   C120      1.0  0.40204  0.18199  0.00003  1.0000 -0.3363032009
C   C121      1.0  0.94302  0.26390  0.52132  1.0000 -0.3527404632
C   C122      1.0  0.67170  0.69302  0.17912  1.0000 -0.3527404632
C   C123      1.0  0.51390  0.49258  0.82088  1.0000 -0.3527404632
C   C124      1.0  0.74258  0.42170  0.47868  1.0000 -0.3527404632
C   C125      1.0  0.30698  0.48610  0.97868  1.0000 -0.3527404632
C   C126      1.0  0.57830  0.05698  0.32088  1.0000 -0.3527404632
C   C127      1.0  0.73610  0.25742  0.67912  1.0000 -0.3527404632
C   C128      1.0  0.50742  0.32830  0.02132  1.0000 -0.3527404632
C   C129      1.0  0.82093  0.24327  0.27782  1.0000 0.2888668413
C   C130      1.0  0.79311  0.57093  0.07766  1.0000 0.2888668413
C   C131      1.0  0.49327  0.71545  0.92234  1.0000 0.2888668413
C   C132      1.0  0.96545  0.54311  0.72218  1.0000 0.2888668413
C   C133      1.0  0.42907  0.50673  0.22218  1.0000 0.2888668413
C   C134      1.0  0.45689  0.17907  0.42234  1.0000 0.2888668413
C   C135      1.0  0.75673  0.03455  0.57766  1.0000 0.2888668413
C   C136      1.0  0.28455  0.20689  0.77782  1.0000 0.2888668413
C   C137      1.0  0.86463  0.31761  0.30324  1.0000 -0.2196615509
C   C138      1.0  0.81139  0.61463  0.04702  1.0000 -0.2196615509
C   C139      1.0  0.56761  0.76437  0.95298  1.0000 -0.2196615509
C   C140      1.0  0.01437  0.56139  0.69676  1.0000 -0.2196615509
C   C141      1.0  0.38537  0.43239  0.19676  1.0000 -0.2196615509
C   C142      1.0  0.43861  0.13537  0.45298  1.0000 -0.2196615509
C   C143      1.0  0.68239  0.98563  0.54702  1.0000 -0.2196615509
C   C144      1.0  0.23563  0.18861  0.80324  1.0000 -0.2196615509
C   C145      1.0  0.82774  0.32782  0.30156  1.0000 -0.0672987852
C   C146      1.0  0.77618  0.57774  0.99992  1.0000 -0.0672987852
C   C147      1.0  0.57782  0.77626  0.00008  1.0000 -0.0672987852
C   C148      1.0  0.02626  0.52618  0.69844  1.0000 -0.0672987852
C   C149      1.0  0.42226  0.42218  0.19844  1.0000 -0.0672987852
C   C150      1.0  0.47382  0.17226  0.50008  1.0000 -0.0672987852
C   C151      1.0  0.67218  0.97374  0.49992  1.0000 -0.0672987852
C   C152      1.0  0.22374  0.22382  0.80156  1.0000 -0.0672987852
C   C153      1.0  0.74763  0.26589  0.27512  1.0000 -0.1532545012
C   C154      1.0  0.72251  0.49763  0.98174  1.0000 -0.1532545012
C   C155      1.0  0.51589  0.74077  0.01826  1.0000 -0.1532545012
C   C156      1.0  0.99077  0.47251  0.72488  1.0000 -0.1532545012
C   C157      1.0  0.50237  0.48411  0.22488  1.0000 -0.1532545012
C   C158      1.0  0.52749  0.25237  0.51826  1.0000 -0.1532545012
C   C159      1.0  0.73411  0.00923  0.48174  1.0000 -0.1532545012
C   C160      1.0  0.25923  0.27749  0.77512  1.0000 -0.1532545012
C   C161      1.0  0.70316  0.19207  0.25081  1.0000 -0.1010281316
C   C162      1.0  0.70235  0.45316  0.01109  1.0000 -0.1010281316
C   C163      1.0  0.44207  0.69126  0.98891  1.0000 -0.1010281316
C   C164      1.0  0.94126  0.45235  0.74919  1.0000 -0.1010281316
C   C165      1.0  0.54684  0.55793  0.24919  1.0000 -0.1010281316
C   C166      1.0  0.54765  0.29684  0.48891  1.0000 -0.1010281316
C   C167      1.0  0.80793  0.05874  0.51109  1.0000 -0.1010281316
C   C168      1.0  0.30874  0.29765  0.75081  1.0000 -0.1010281316
C   C169      1.0  0.73816  0.17899  0.25149  1.0000 -0.1532545012
C   C170      1.0  0.73667  0.48816  0.05917  1.0000 -0.1532545012
C   C171      1.0  0.42899  0.67750  0.94083  1.0000 -0.1532545012
C   C172      1.0  0.92750  0.48667  0.74851  1.0000 -0.1532545012
C   C173      1.0  0.51184  0.57101  0.24851  1.0000 -0.1532545012
C   C174      1.0  0.51333  0.26184  0.44083  1.0000 -0.1532545012
C   C175      1.0  0.82101  0.07250  0.55917  1.0000 -0.1532545012
C   C176      1.0  0.32250  0.26333  0.75149  1.0000 -0.1532545012
C   C177      1.0  0.68626  0.09849  0.22319  1.0000 0.4229537507
C   C178      1.0  0.71307  0.43626  0.08777  1.0000 0.4229537507
C   C179      1.0  0.34849  0.62530  0.91223  1.0000 0.4229537507
C   C180      1.0  0.87530  0.46307  0.77681  1.0000 0.4229537507
C   C181      1.0  0.56374  0.65151  0.27681  1.0000 0.4229537507
C   C182      1.0  0.53693  0.31374  0.41223  1.0000 0.4229537507
C   C183      1.0  0.90151  0.12470  0.58777  1.0000 0.4229537507
C   C184      1.0  0.37470  0.28693  0.72319  1.0000 0.4229537507
C   C185      1.0  0.70503  0.00619  0.18478  1.0000 0.4610014965
C   C186      1.0  0.77025  0.45503  0.19884  1.0000 0.4610014965
C   C187      1.0  0.25619  0.57141  0.80116  1.0000 0.4610014965
C   C188      1.0  0.82141  0.52025  0.81522  1.0000 0.4610014965
C   C189      1.0  0.54497  0.74381  0.31522  1.0000 0.4610014965
C   C190      1.0  0.47975  0.29497  0.30116  1.0000 0.4610014965
C   C191      1.0  0.99381  0.17859  0.69884  1.0000 0.4610014965
C   C192      1.0  0.42859  0.22975  0.68478  1.0000 0.4610014965
C   C193      1.0  0.66364  0.93412  0.15016  1.0000 -0.3210669073
C   C194      1.0  0.76348  0.41364  0.22952  1.0000 -0.3210669073
C   C195      1.0  0.18412  0.53396  0.77048  1.0000 -0.3210669073
C   C196      1.0  0.78396  0.51348  0.84984  1.0000 -0.3210669073
C   C197      1.0  0.58636  0.81588  0.34984  1.0000 -0.3210669073
C   C198      1.0  0.48652  0.33636  0.27048  1.0000 -0.3210669073
C   C199      1.0  0.06588  0.21604  0.72952  1.0000 -0.3210669073
C   C200      1.0  0.46604  0.23652  0.65016  1.0000 -0.3210669073
C   C201      1.0  0.70284  0.96231  0.10955  1.0000 -0.135699563
C   C202      1.0  0.84329  0.45284  0.24053  1.0000 -0.135699563
C   C203      1.0  0.21231  0.60276  0.75947  1.0000 -0.135699563
C   C204      1.0  0.85276  0.59329  0.89045  1.0000 -0.135699563
C   C205      1.0  0.54716  0.78769  0.39045  1.0000 -0.135699563
C   C206      1.0  0.40671  0.29716  0.25947  1.0000 -0.135699563
C   C207      1.0  0.03769  0.14724  0.74053  1.0000 -0.135699563
C   C208      1.0  0.39724  0.15671  0.60955  1.0000 -0.135699563
C   C209      1.0  0.68459  0.98541  0.07940  1.0000 -0.1887230882
C   C210      1.0  0.85519  0.43459  0.19918  1.0000 -0.1887230882
C   C211      1.0  0.23541  0.65601  0.80082  1.0000 -0.1887230882
C   C212      1.0  0.90601  0.60519  0.92060  1.0000 -0.1887230882
C   C213      1.0  0.56541  0.76459  0.42060  1.0000 -0.1887230882
C   C214      1.0  0.39481  0.31541  0.30082  1.0000 -0.1887230882
C   C215      1.0  0.01459  0.09399  0.69918  1.0000 -0.1887230882
C   C216      1.0  0.34399  0.14481  0.57940  1.0000 -0.1887230882
C   C217      1.0  0.72176  0.01215  0.03871  1.0000 -0.1010281316
C   C218      1.0  0.93305  0.47176  0.20961  1.0000 -0.1010281316
C   C219      1.0  0.26215  0.72344  0.79039  1.0000 -0.1010281316
C   C220      1.0  0.97344  0.68305  0.96129  1.0000 -0.1010281316
C   C221      1.0  0.52824  0.73785  0.46129  1.0000 -0.1010281316
C   C222      1.0  0.31695  0.27824  0.29039  1.0000 -0.1010281316
C   C223      1.0  0.98785  0.02656  0.70961  1.0000 -0.1010281316
C   C224      1.0  0.27656  0.06695  0.53871  1.0000 -0.1010281316
C   C225      1.0  0.70330  0.03682  0.00952  1.0000 -0.3919078375
C   C226      1.0  0.94378  0.45330  0.16648  1.0000 -0.3919078375
C   C227      1.0  0.28682  0.77730  0.83352  1.0000 -0.3919078375
C   C228      1.0  0.02730  0.69378  0.99048  1.0000 -0.3919078375
C   C229      1.0  0.54670  0.71318  0.49048  1.0000 -0.3919078375
C   C230      1.0  0.30622  0.29670  0.33352  1.0000 -0.3919078375
C   C231      1.0  0.96318  0.97270  0.66648  1.0000 -0.3919078375
C   C232      1.0  0.22270  0.05622  0.50952  1.0000 -0.3919078375
C   C233      1.0  0.86665  0.24184  0.16749  1.0000 0.0787656733
C   C234      1.0  0.94916  0.61665  0.12481  1.0000 0.0787656733
C   C235      1.0  0.49184  0.82435  0.87519  1.0000 0.0787656733
C   C236      1.0  0.07435  0.69916  0.83251  1.0000 0.0787656733
C   C237      1.0  0.38335  0.50816  0.33251  1.0000 0.0787656733
C   C238      1.0  0.30084  0.13335  0.37519  1.0000 0.0787656733
C   C239      1.0  0.75816  0.92565  0.62481  1.0000 0.0787656733
C   C240      1.0  0.17565  0.05084  0.66749  1.0000 0.0787656733
C   C241      1.0  0.88465  0.26233  0.12618  1.0000 -0.2196615509
C   C242      1.0  0.00847  0.63465  0.12232  1.0000 -0.2196615509
C   C243      1.0  0.51233  0.88615  0.87768  1.0000 -0.2196615509
C   C244      1.0  0.13615  0.75847  0.87382  1.0000 -0.2196615509
C   C245      1.0  0.36535  0.48767  0.37382  1.0000 -0.2196615509
C   C246      1.0  0.24153  0.11535  0.37768  1.0000 -0.2196615509
C   C247      1.0  0.73767  0.86385  0.62232  1.0000 -0.2196615509
C   C248      1.0  0.11385  0.99153  0.62618  1.0000 -0.2196615509
C   C249      1.0  0.91680  0.25479  0.10419  1.0000 0.1627204527
C   C250      1.0  0.06261  0.66680  0.16201  1.0000 0.1627204527
C   C251      1.0  0.50479  0.90060  0.83799  1.0000 0.1627204527
C   C252      1.0  0.15060  0.81261  0.89581  1.0000 0.1627204527
C   C253      1.0  0.33320  0.49521  0.39581  1.0000 0.1627204527
C   C254      1.0  0.18739  0.08320  0.33799  1.0000 0.1627204527
C   C255      1.0  0.74521  0.84940  0.66201  1.0000 0.1627204527
C   C256      1.0  0.09940  0.93739  0.60419  1.0000 0.1627204527
C   C257      1.0  0.93140  0.22877  0.12537  1.0000 -0.2003618122
C   C258      1.0  0.05603  0.68140  0.20263  1.0000 -0.2003618122
C   C259      1.0  0.47877  0.85340  0.79737  1.0000 -0.2003618122
C   C260      1.0  0.10340  0.80603  0.87463  1.0000 -0.210671177
C   C261      1.0  0.31860  0.52123  0.37463  1.0000 -0.210671177
C   C262      1.0  0.19397  0.06860  0.29737  1.0000 -0.210671177
C   C263      1.0  0.77123  0.89660  0.70263  1.0000 -0.2003618122
C   C264      1.0  0.14660  0.94397  0.62537  1.0000 -0.210671177
C   C265      1.0  0.91253  0.20931  0.16644  1.0000 0.0707308298
C   C266      1.0  0.99609  0.66253  0.20322  1.0000 0.0707308298
C   C267      1.0  0.45931  0.79287  0.79678  1.0000 0.0707308298
C   C268      1.0  0.04287  0.74609  0.83356  1.0000 0.0707308298
C   C269      1.0  0.33747  0.54069  0.33356  1.0000 0.0707308298
C   C270      1.0  0.25391  0.08747  0.29678  1.0000 0.0707308298
C   C271      1.0  0.79069  0.95713  0.70322  1.0000 0.0707308298
C   C272      1.0  0.20713  0.00391  0.66644  1.0000 0.0707308298
C   C273      1.0  0.93923  0.27818  0.05941  1.0000 -0.2382527146
C   C274      1.0  0.12982  0.68923  0.16105  1.0000 -0.2382527146
C   C275      1.0  0.52818  0.96877  0.83895  1.0000 -0.2382527146
C   C276      1.0  0.21877  0.87982  0.94059  1.0000 -0.2382527146
C   C277      1.0  0.31077  0.47182  0.44059  1.0000 -0.2382527146
C   C278      1.0  0.12018  0.06077  0.33895  1.0000 -0.2382527146
C   C279      1.0  0.72182  0.78123  0.66105  1.0000 -0.2382527146
C   C280      1.0  0.03123  0.87018  0.55941  1.0000 -0.2382527146
C   C281      1.0  0.75497  0.85579  0.43222  1.0000 0.2888668413
C   C282      1.0  0.57275  0.50497  0.39918  1.0000 0.2888668413
C   C283      1.0  0.10579  0.17357  0.60082  1.0000 0.2888668413
C   C284      1.0  0.42357  0.32275  0.56778  1.0000 0.2888668413
C   C285      1.0  0.49503  0.89421  0.06778  1.0000 0.2888668413
C   C286      1.0  0.67725  0.24503  0.10082  1.0000 0.2888668413
C   C287      1.0  0.14421  0.57643  0.89918  1.0000 0.2888668413
C   C288      1.0  0.82643  0.42725  0.93222  1.0000 0.2888668413
C   C289      1.0  0.74935  0.82799  0.46976  1.0000 -0.210671177
C   C290      1.0  0.52959  0.49935  0.42136  1.0000 -0.210671177
C   C291      1.0  0.07799  0.10823  0.57864  1.0000 -0.210671177
C   C292      1.0  0.35823  0.27959  0.53024  1.0000 -0.210671177
C   C293      1.0  0.50065  0.92201  0.03024  1.0000 -0.210671177
C   C294      1.0  0.72041  0.25065  0.07864  1.0000 -0.210671177
C   C295      1.0  0.17201  0.64177  0.92136  1.0000 -0.210671177
C   C296      1.0  0.89177  0.47041  0.96976  1.0000 -0.210671177
C   C297      1.0  0.79609  0.88021  0.51410  1.0000 -0.0792930152
C   C298      1.0  0.53199  0.54609  0.41588  1.0000 -0.0792930152
C   C299      1.0  0.13021  0.11611  0.58412  1.0000 -0.0792930152
C   C300      1.0  0.36611  0.28199  0.48590  1.0000 -0.0792930152
C   C301      1.0  0.45391  0.86979  0.98590  1.0000 -0.0792930152
C   C302      1.0  0.71801  0.20391  0.08412  1.0000 -0.0792930152
C   C303      1.0  0.11979  0.63389  0.91588  1.0000 -0.0792930152
C   C304      1.0  0.88389  0.46801  0.01410  1.0000 -0.0792930152
C   C305      1.0  0.85018  0.96182  0.52314  1.0000 -0.135699563
C   C306      1.0  0.57704  0.60018  0.38836  1.0000 -0.135699563
C   C307      1.0  0.21182  0.18868  0.61164  1.0000 -0.135699563
C   C308      1.0  0.43868  0.32704  0.47686  1.0000 -0.135699563
C   C309      1.0  0.39982  0.78818  0.97686  1.0000 -0.135699563
C   C310      1.0  0.67296  0.14982  0.11164  1.0000 -0.135699563
C   C311      1.0  0.03818  0.56132  0.88836  1.0000 -0.135699563
C   C312      1.0  0.81132  0.42296  0.02314  1.0000 -0.135699563
C   C313      1.0  0.85585  0.98946  0.48663  1.0000 -0.0859324078
C   C314      1.0  0.61922  0.60585  0.36639  1.0000 -0.0859324078
C   C315      1.0  0.23946  0.25283  0.63361  1.0000 -0.0859324078
C   C316      1.0  0.50283  0.36922  0.51337  1.0000 -0.0859324078
C   C317      1.0  0.39415  0.76054  0.01337  1.0000 -0.0859324078
C   C318      1.0  0.63078  0.14415  0.13361  1.0000 -0.0859324078
C   C319      1.0  0.01054  0.49717  0.86639  1.0000 -0.0859324078
C   C320      1.0  0.74717  0.38078  0.98663  1.0000 -0.0859324078
C   C321      1.0  0.80972  0.93887  0.44099  1.0000 -0.1576256364
C   C322      1.0  0.61873  0.55972  0.37085  1.0000 -0.1576256364
C   C323      1.0  0.18887  0.24788  0.62915  1.0000 -0.1576256364
C   C324      1.0  0.49788  0.36873  0.55901  1.0000 -0.1576256364
C   C325      1.0  0.44028  0.81113  0.05901  1.0000 -0.1576256364
C   C326      1.0  0.63127  0.19028  0.12915  1.0000 -0.1576256364
C   C327      1.0  0.06113  0.50212  0.87085  1.0000 -0.1576256364
C   C328      1.0  0.75212  0.38127  0.94099  1.0000 -0.1576256364
C   C329      1.0  0.82060  0.97399  0.40421  1.0000 0.4279567634
C   C330      1.0  0.66639  0.57060  0.34661  1.0000 0.4279567634
C   C331      1.0  0.22399  0.31978  0.65339  1.0000 0.4279567634
C   C332      1.0  0.56978  0.41639  0.59579  1.0000 0.4279567634
C   C333      1.0  0.42940  0.77601  0.09579  1.0000 0.4279567634
C   C334      1.0  0.58361  0.17940  0.15339  1.0000 0.4279567634
C   C335      1.0  0.02601  0.43022  0.84661  1.0000 0.4279567634
C   C336      1.0  0.68022  0.33361  0.90421  1.0000 0.4279567634
C   C337      1.0  0.77073  0.92790  0.28667  1.0000 0.4492752884
C   C338      1.0  0.73406  0.52073  0.34283  1.0000 0.4492752884
C   C339      1.0  0.17790  0.39123  0.65717  1.0000 0.4492752884
C   C340      1.0  0.64123  0.48406  0.71333  1.0000 0.4492752884
C   C341      1.0  0.47927  0.82210  0.21333  1.0000 0.4492752884
C   C342      1.0  0.51594  0.22927  0.15717  1.0000 0.4492752884
C   C343      1.0  0.07210  0.35877  0.84283  1.0000 0.4492752884
C   C344      1.0  0.60877  0.26594  0.78667  1.0000 0.4492752884
C   C345      1.0  0.78908  0.96282  0.24630  1.0000 -0.3210669073
C   C346      1.0  0.79278  0.53908  0.32626  1.0000 -0.3210669073
C   C347      1.0  0.21282  0.46652  0.67374  1.0000 -0.3210669073
C   C348      1.0  0.71652  0.54278  0.75370  1.0000 -0.3210669073
C   C349      1.0  0.46092  0.78718  0.25370  1.0000 -0.3210669073
C   C350      1.0  0.45722  0.21092  0.17374  1.0000 -0.3210669073
C   C351      1.0  0.03718  0.28348  0.82626  1.0000 -0.3210669073
C   C352      1.0  0.53348  0.20722  0.74630  1.0000 -0.3210669073
C   C353      1.0  0.85175  0.98642  0.22737  1.0000 -0.1312054958
C   C354      1.0  0.87438  0.60175  0.36533  1.0000 -0.1312054958
C   C355      1.0  0.23642  0.50905  0.63467  1.0000 -0.1312054958
C   C356      1.0  0.75905  0.62438  0.77263  1.0000 -0.1312054958
C   C357      1.0  0.39825  0.76358  0.27263  1.0000 -0.1312054958
C   C358      1.0  0.37562  0.14825  0.13467  1.0000 -0.1312054958
C   C359      1.0  0.01358  0.24095  0.86533  1.0000 -0.1312054958
C   C360      1.0  0.49095  0.12562  0.72737  1.0000 -0.1312054958
C   C361      1.0  0.86653  0.01460  0.18413  1.0000 -0.1660895164
C   C362      1.0  0.93240  0.61653  0.35193  1.0000 -0.1660895164
C   C363      1.0  0.26460  0.58047  0.64807  1.0000 -0.1660895164
C   C364      1.0  0.83047  0.68240  0.81587  1.0000 -0.1660895164
C   C365      1.0  0.38347  0.73540  0.31587  1.0000 -0.1660895164
C   C366      1.0  0.31760  0.13347  0.14807  1.0000 -0.1660895164
C   C367      1.0  0.98540  0.16953  0.85193  1.0000 -0.1660895164
C   C368      1.0  0.41953  0.06760  0.68413  1.0000 -0.1660895164
C   C369      1.0  0.92630  0.08430  0.18400  1.0000 -0.1010281316
C   C370      1.0  0.99230  0.67630  0.34200  1.0000 -0.1010281316
C   C371      1.0  0.33430  0.65030  0.65800  1.0000 -0.1010281316
C   C372      1.0  0.90030  0.74230  0.81600  1.0000 -0.1010281316
C   C373      1.0  0.32370  0.66570  0.31600  1.0000 -0.1010281316
C   C374      1.0  0.25770  0.07370  0.15800  1.0000 -0.1010281316
C   C375      1.0  0.91570  0.09970  0.84200  1.0000 -0.1010281316
C   C376      1.0  0.34970  0.00770  0.68400  1.0000 -0.1010281316
C   C377      1.0  0.94272  0.10740  0.13772  1.0000 -0.3707346398
C   C378      1.0  0.05500  0.69272  0.33532  1.0000 -0.3707346398
C   C379      1.0  0.35740  0.71968  0.66468  1.0000 -0.3707346398
C   C380      1.0  0.96968  0.80500  0.86228  1.0000 -0.3707346398
C   C381      1.0  0.30728  0.64260  0.36228  1.0000 -0.3707346398
C   C382      1.0  0.19500  0.05728  0.16468  1.0000 -0.3707346398
C   C383      1.0  0.89260  0.03032  0.83532  1.0000 -0.3707346398
C   C384      1.0  0.28032  0.94500  0.63772  1.0000 -0.3707346398
C   C385      1.0  0.04864  0.38190  0.94692  1.0000 0.0707308298
C   C386      1.0  0.35172  0.79864  0.16674  1.0000 0.0707308298
C   C387      1.0  0.63190  0.18498  0.83326  1.0000 0.0707308298
C   C388      1.0  0.43498  0.10172  0.05308  1.0000 0.0707308298
C   C389      1.0  0.20136  0.36810  0.55308  1.0000 0.0707308298
C   C390      1.0  0.89828  0.95136  0.33326  1.0000 0.0707308298
C   C391      1.0  0.61810  0.56502  0.66674  1.0000 0.0707308298
C   C392      1.0  0.81502  0.64828  0.44692  1.0000 0.0707308298
C   C393      1.0  0.01331  0.34624  0.98235  1.0000 -0.210671177
C   C394      1.0  0.28096  0.76331  0.16707  1.0000 -0.210671177
C   C395      1.0  0.59624  0.11389  0.83293  1.0000 -0.210671177
C   C396      1.0  0.36389  0.03096  0.01765  1.0000 -0.210671177
C   C397      1.0  0.23669  0.40376  0.51765  1.0000 -0.210671177
C   C398      1.0  0.96904  0.98669  0.33293  1.0000 -0.210671177
C   C399      1.0  0.65376  0.63611  0.66707  1.0000 -0.210671177
C   C400      1.0  0.88611  0.71904  0.48235  1.0000 -0.210671177
C   C401      1.0  0.05953  0.39569  0.02742  1.0000 0.1627204527
C   C402      1.0  0.28211  0.80953  0.16384  1.0000 0.1627204527
C   C403      1.0  0.64569  0.11827  0.83616  1.0000 0.1627204527
C   C404      1.0  0.36827  0.03211  0.97258  1.0000 0.1627204527
C   C405      1.0  0.19047  0.35431  0.47258  1.0000 0.1627204527
C   C406      1.0  0.96789  0.94047  0.33616  1.0000 0.1627204527
C   C407      1.0  0.60431  0.63173  0.66384  1.0000 0.1627204527
C   C408      1.0  0.88173  0.71789  0.52742  1.0000 0.1627204527
C   C409      1.0  0.13886  0.47909  0.03459  1.0000 -0.1887230882
C   C410      1.0  0.35427  0.88886  0.15977  1.0000 -0.1887230882
C   C411      1.0  0.72909  0.19450  0.84023  1.0000 -0.1887230882
C   C412      1.0  0.44450  0.10427  0.96541  1.0000 -0.1887230882
C   C413      1.0  0.11114  0.27091  0.46541  1.0000 -0.1887230882
C   C414      1.0  0.89573  0.86114  0.34023  1.0000 -0.1887230882
C   C415      1.0  0.52091  0.55550  0.65977  1.0000 -0.1887230882
C   C416      1.0  0.80550  0.64573  0.53459  1.0000 -0.1887230882
C   C417      1.0  0.16924  0.50910  0.99714  1.0000 0.1023729985
C   C418      1.0  0.42210  0.91924  0.16014  1.0000 0.1023729985
C   C419      1.0  0.75910  0.26196  0.83986  1.0000 0.1023729985
C   C420      1.0  0.51196  0.17210  0.00286  1.0000 0.1023729985
C   C421      1.0  0.08076  0.24090  0.50286  1.0000 0.1023729985
C   C422      1.0  0.82790  0.83076  0.33986  1.0000 0.1023729985
C   C423      1.0  0.49090  0.48804  0.66014  1.0000 0.1023729985
C   C424      1.0  0.73804  0.57790  0.49714  1.0000 0.1023729985
C   C425      1.0  0.02570  0.36169  0.06839  1.0000 -0.2262671779
C   C426      1.0  0.20731  0.77570  0.16401  1.0000 -0.2262671779
C   C427      1.0  0.61169  0.04330  0.83599  1.0000 -0.2262671779
C   C428      1.0  0.29330  0.95731  0.93161  1.0000 -0.2262671779
C   C429      1.0  0.22430  0.38831  0.43161  1.0000 -0.2262671779
C   C430      1.0  0.04269  0.97430  0.33599  1.0000 -0.2262671779
C   C431      1.0  0.63831  0.70670  0.66401  1.0000 -0.2262671779
C   C432      1.0  0.95670  0.79269  0.56839  1.0000 -0.2262671779
N   N1        1.0  0.88983  0.14195  0.32010  1.0000 -0.3210669073
N   N2        1.0  0.81973  0.63983  0.24788  1.0000 -0.3210669073
N   N3        1.0  0.39195  0.57185  0.75212  1.0000 -0.3210669073
N   N4        1.0  0.82185  0.56973  0.67990  1.0000 -0.3210669073
N   N5        1.0  0.36017  0.60805  0.17990  1.0000 -0.3210669073
N   N6        1.0  0.43027  0.11017  0.25212  1.0000 -0.3210669073
N   N7        1.0  0.85805  0.17815  0.74788  1.0000 -0.3210669073
N   N8        1.0  0.42815  0.18027  0.82010  1.0000 -0.3210669073
N   N9        1.0  0.82225  0.11527  0.30972  1.0000 -0.3006684845
N   N10       1.0  0.76253  0.57225  0.20698  1.0000 -0.3006684845
N   N11       1.0  0.36527  0.55555  0.79302  1.0000 -0.3006684845
N   N12       1.0  0.80555  0.51253  0.69028  1.0000 -0.3006684845
N   N13       1.0  0.42775  0.63473  0.19028  1.0000 -0.3006684845
N   N14       1.0  0.48747  0.17775  0.29302  1.0000 -0.3006684845
N   N15       1.0  0.88473  0.19445  0.70698  1.0000 -0.3006684845
N   N16       1.0  0.44445  0.23747  0.80972  1.0000 -0.3006684845
N   N17       1.0  0.97972  0.27171  0.48843  1.0000 0.0372605721
N   N18       1.0  0.74129  0.72972  0.20801  1.0000 0.0372605721
N   N19       1.0  0.52171  0.53328  0.79199  1.0000 0.0372605721
N   N20       1.0  0.78328  0.49129  0.51157  1.0000 0.0372605721
N   N21       1.0  0.27028  0.47829  0.01157  1.0000 0.0372605721
N   N22       1.0  0.50871  0.02028  0.29199  1.0000 0.0372605721
N   N23       1.0  0.72829  0.21672  0.70801  1.0000 0.0372605721
N   N24       1.0  0.46672  0.25871  0.98843  1.0000 0.0372605721
N   N25       1.0  0.71982  0.08721  0.21971  1.0000 -0.3006684845
N   N26       1.0  0.75011  0.46982  0.13261  1.0000 -0.3006684845
N   N27       1.0  0.33721  0.61750  0.86739  1.0000 -0.3006684845
N   N28       1.0  0.86750  0.50011  0.78029  1.0000 -0.3006684845
N   N29       1.0  0.53018  0.66279  0.28029  1.0000 -0.3006684845
N   N30       1.0  0.49989  0.28018  0.36739  1.0000 -0.3006684845
N   N31       1.0  0.91279  0.13250  0.63261  1.0000 -0.3006684845
N   N32       1.0  0.38250  0.24989  0.71971  1.0000 -0.3006684845
N   N33       1.0  0.66607  0.01069  0.18802  1.0000 -0.3006684845
N   N34       1.0  0.72805  0.41607  0.15538  1.0000 -0.3006684845
N   N35       1.0  0.26069  0.57267  0.84462  1.0000 -0.3006684845
N   N36       1.0  0.82267  0.47805  0.81198  1.0000 -0.3006684845
N   N37       1.0  0.58393  0.73931  0.31198  1.0000 -0.3006684845
N   N38       1.0  0.52195  0.33393  0.34462  1.0000 -0.3006684845
N   N39       1.0  0.98931  0.17733  0.65538  1.0000 -0.3006684845
N   N40       1.0  0.42733  0.27195  0.68802  1.0000 -0.3006684845
N   N41       1.0  0.87993  0.21534  0.18777  1.0000 -0.2003618122
N   N42       1.0  0.94216  0.62993  0.16459  1.0000 -0.2003618122
N   N43       1.0  0.46534  0.77757  0.83541  1.0000 -0.2003618122
N   N44       1.0  0.02757  0.69216  0.81223  1.0000 -0.2003618122
N   N45       1.0  0.37007  0.53466  0.31223  1.0000 -0.2003618122
N   N46       1.0  0.30784  0.12007  0.33541  1.0000 -0.2003618122
N   N47       1.0  0.78466  0.97243  0.66459  1.0000 -0.2003618122
N   N48       1.0  0.22243  0.05784  0.68777  1.0000 -0.2003618122
N   N49       1.0  0.78133  0.92943  0.36068  1.0000 -0.3210669073
N   N50       1.0  0.67065  0.53133  0.35190  1.0000 -0.3210669073
N   N51       1.0  0.17943  0.31875  0.64810  1.0000 -0.3210669073
N   N52       1.0  0.56875  0.42065  0.63932  1.0000 -0.3210669073
N   N53       1.0  0.46867  0.82057  0.13932  1.0000 -0.3210669073
N   N54       1.0  0.57935  0.21867  0.14810  1.0000 -0.3210669073
N   N55       1.0  0.07057  0.43125  0.85190  1.0000 -0.3210669073
N   N56       1.0  0.68125  0.32935  0.86068  1.0000 -0.3210669073
N   N57       1.0  0.80057  0.97177  0.32818  1.0000 -0.3282881755
N   N58       1.0  0.72239  0.55057  0.32880  1.0000 -0.3282881755
N   N59       1.0  0.22177  0.39359  0.67120  1.0000 -0.3282881755
N   N60       1.0  0.64359  0.47239  0.67182  1.0000 -0.3282881755
N   N61       1.0  0.44943  0.77823  0.17182  1.0000 -0.3282881755
N   N62       1.0  0.52761  0.19943  0.17120  1.0000 -0.3282881755
N   N63       1.0  0.02823  0.35641  0.82880  1.0000 -0.3282881755
N   N64       1.0  0.60641  0.27761  0.82818  1.0000 -0.3282881755
N   N65       1.0  0.12575  0.46200  0.95375  1.0000 -0.2196615509
N   N66       1.0  0.42200  0.87575  0.16375  1.0000 -0.2196615509
N   N67       1.0  0.71200  0.25825  0.83625  1.0000 -0.2196615509
N   N68       1.0  0.50825  0.17200  0.04625  1.0000 -0.2196615509
N   N69       1.0  0.12425  0.28800  0.54625  1.0000 -0.2196615509
N   N70       1.0  0.82800  0.87425  0.33625  1.0000 -0.2196615509
N   N71       1.0  0.53800  0.49175  0.66375  1.0000 -0.2196615509
N   N72       1.0  0.74175  0.57800  0.45375  1.0000 -0.2196615509
O   O1        1.0  0.97923  0.14772  0.35757  1.0000 -0.496941198
O   O2        1.0  0.87166  0.72923  0.33151  1.0000 -0.496941198
O   O3        1.0  0.39772  0.54015  0.66849  1.0000 -0.496941198
O   O4        1.0  0.79015  0.62166  0.64243  1.0000 -0.496941198
O   O5        1.0  0.27077  0.60228  0.14243  1.0000 -0.496941198
O   O6        1.0  0.37834  0.02077  0.16849  1.0000 -0.496941198
O   O7        1.0  0.85228  0.20985  0.83151  1.0000 -0.496941198
O   O8        1.0  0.45985  0.12834  0.85757  1.0000 -0.496941198
O   O9        1.0  0.93917  0.21986  0.26975  1.0000 -0.4610396869
O   O10       1.0  0.91942  0.68917  0.21931  1.0000 -0.4610396869
O   O11       1.0  0.46986  0.70011  0.78069  1.0000 -0.4610396869
O   O12       1.0  0.95011  0.66942  0.73025  1.0000 -0.4610396869
O   O13       1.0  0.31083  0.53014  0.23025  1.0000 -0.4610396869
O   O14       1.0  0.33058  0.06083  0.28069  1.0000 -0.4610396869
O   O15       1.0  0.78014  0.04989  0.71931  1.0000 -0.4610396869
O   O16       1.0  0.29989  0.08058  0.76975  1.0000 -0.4610396869
O   O17       1.0  0.78934  0.05443  0.36759  1.0000 -0.5097532238
O   O18       1.0  0.67175  0.53934  0.23491  1.0000 -0.5097532238
O   O19       1.0  0.30443  0.43684  0.76509  1.0000 -0.5097532238
O   O20       1.0  0.68684  0.42175  0.63241  1.0000 -0.5097532238
O   O21       1.0  0.46066  0.69557  0.13241  1.0000 -0.5097532238
O   O22       1.0  0.57825  0.21066  0.26509  1.0000 -0.5097532238
O   O23       1.0  0.94557  0.31316  0.73491  1.0000 -0.5097532238
O   O24       1.0  0.56316  0.32825  0.86759  1.0000 -0.5097532238
O   O25       1.0  0.96372  0.21152  0.42374  1.0000 -0.41816856
O   O26       1.0  0.78998  0.71372  0.25220  1.0000 -0.41816856
O   O27       1.0  0.46152  0.53778  0.74780  1.0000 -0.41816856
O   O28       1.0  0.78778  0.53998  0.57626  1.0000 -0.41816856
O   O29       1.0  0.28628  0.53848  0.07626  1.0000 -0.41816856
O   O30       1.0  0.46002  0.03628  0.24780  1.0000 -0.41816856
O   O31       1.0  0.78848  0.21222  0.75220  1.0000 -0.41816856
O   O32       1.0  0.46222  0.21002  0.92374  1.0000 -0.41816856
O   O33       1.0  0.86082  0.23838  0.28062  1.0000 -0.4492072987
O   O34       1.0  0.83020  0.61082  0.12244  1.0000 -0.4492072987
O   O35       1.0  0.48838  0.70776  0.87756  1.0000 -0.4492072987
O   O36       1.0  0.95776  0.58020  0.71938  1.0000 -0.4492072987
O   O37       1.0  0.38918  0.51162  0.21938  1.0000 -0.4492072987
O   O38       1.0  0.41980  0.13918  0.37756  1.0000 -0.4492072987
O   O39       1.0  0.76162  0.04224  0.62244  1.0000 -0.4492072987
O   O40       1.0  0.29224  0.16980  0.78062  1.0000 -0.4492072987
O   O41       1.0  0.60974  0.04166  0.20204  1.0000 -0.4610396869
O   O42       1.0  0.65770  0.35974  0.06808  1.0000 -0.4610396869
O   O43       1.0  0.29166  0.58962  0.93192  1.0000 -0.4610396869
O   O44       1.0  0.83962  0.40770  0.79796  1.0000 -0.4610396869
O   O45       1.0  0.64026  0.70834  0.29796  1.0000 -0.4610396869
O   O46       1.0  0.59230  0.39026  0.43192  1.0000 -0.4610396869
O   O47       1.0  0.95834  0.16038  0.56808  1.0000 -0.4610396869
O   O48       1.0  0.41038  0.34230  0.70204  1.0000 -0.4610396869
O   O49       1.0  0.78127  0.06432  0.20929  1.0000 -0.4797667827
O   O50       1.0  0.82198  0.53127  0.21695  1.0000 -0.4797667827
O   O51       1.0  0.31432  0.60503  0.78305  1.0000 -0.4797667827
O   O52       1.0  0.85503  0.57198  0.79071  1.0000 -0.4797667827
O   O53       1.0  0.46873  0.68568  0.29071  1.0000 -0.4797667827
O   O54       1.0  0.42802  0.21873  0.28305  1.0000 -0.4797667827
O   O55       1.0  0.93568  0.14497  0.71695  1.0000 -0.4797667827
O   O56       1.0  0.39497  0.17802  0.70929  1.0000 -0.4797667827
O   O57       1.0  0.70772  0.80100  0.39062  1.0000 -0.4722512628
O   O58       1.0  0.56710  0.45772  0.40672  1.0000 -0.4722512628
O   O59       1.0  0.05100  0.16038  0.59328  1.0000 -0.4722512628
O   O60       1.0  0.41038  0.31710  0.60938  1.0000 -0.4722512628
O   O61       1.0  0.54228  0.94900  0.10938  1.0000 -0.4722512628
O   O62       1.0  0.68290  0.29228  0.09328  1.0000 -0.4722512628
O   O63       1.0  0.19900  0.58962  0.90672  1.0000 -0.4722512628
O   O64       1.0  0.83962  0.43290  0.89062  1.0000 -0.4722512628
O   O65       1.0  0.87092  0.05025  0.41559  1.0000 -0.4797667827
O   O66       1.0  0.70533  0.62092  0.32067  1.0000 -0.4797667827
O   O67       1.0  0.30025  0.38466  0.67933  1.0000 -0.4797667827
O   O68       1.0  0.63466  0.45533  0.58441  1.0000 -0.4797667827
O   O69       1.0  0.37908  0.69975  0.08441  1.0000 -0.4797667827
O   O70       1.0  0.54467  0.12908  0.17933  1.0000 -0.4797667827
O   O71       1.0  0.94975  0.36534  0.82067  1.0000 -0.4797667827
O   O72       1.0  0.61534  0.29467  0.91559  1.0000 -0.4797667827
O   O73       1.0  0.72757  0.85464  0.27781  1.0000 -0.4909615631
O   O74       1.0  0.69976  0.47757  0.37293  1.0000 -0.4909615631
O   O75       1.0  0.10464  0.32683  0.62707  1.0000 -0.4909615631
O   O76       1.0  0.57683  0.44976  0.72219  1.0000 -0.4909615631
O   O77       1.0  0.52243  0.89536  0.22219  1.0000 -0.4909615631
O   O78       1.0  0.55024  0.27243  0.12707  1.0000 -0.4909615631
O   O79       1.0  0.14536  0.42317  0.87293  1.0000 -0.4909615631
O   O80       1.0  0.67317  0.30024  0.77781  1.0000 -0.4909615631
