# DDEC6 charges by PACMAN v1.1 (https://github.com/mtap-research/PACMAN-charge/)
data_2005[Zn][nan]3[FSR]3
_chemical_formula_sum              "Zn12 H96 C148 N8 O52"
_cell_length_a       14.5949
_cell_length_b       12.5583
_cell_length_c       27.2752
_cell_angle_alpha    90
_cell_angle_beta     111.698
_cell_angle_gamma    90

_symmetry_space_group_name_H-M    "P 1"
_symmetry_Int_Tables_number       1

loop_
  _symmetry_equiv_pos_as_xyz
  'x, y, z'

loop_
  _atom_site_type_symbol
  _atom_site_label
  _atom_site_symmetry_multiplicity
  _atom_site_fract_x
  _atom_site_fract_y
  _atom_site_fract_z
  _atom_site_occupancy
  _atom_site_charge
Zn  Zn1       1.0  0.99316  0.89521  0.87660  1.0000 0.9337056832
Zn  Zn2       1.0  0.00684  0.39521  0.62340  1.0000 0.9337056832
Zn  Zn3       1.0  0.00684  0.10479  0.12340  1.0000 0.9337056832
Zn  Zn4       1.0  0.99316  0.60479  0.37660  1.0000 0.9337056832
Zn  Zn5       1.0  0.17717  0.27861  0.19449  1.0000 0.8398428814
Zn  Zn6       1.0  0.82283  0.77861  0.30551  1.0000 0.8398428814
Zn  Zn7       1.0  0.82283  0.72139  0.80551  1.0000 0.8398428814
Zn  Zn8       1.0  0.17717  0.22139  0.69449  1.0000 0.8398428814
Zn  Zn9       1.0  0.54011  0.07522  0.47016  1.0000 0.8327995197
Zn  Zn10      1.0  0.45989  0.57522  0.02984  1.0000 0.8327995197
Zn  Zn11      1.0  0.45989  0.92478  0.52984  1.0000 0.8327995197
Zn  Zn12      1.0  0.54011  0.42478  0.97016  1.0000 0.8327995197
H   H1        1.0  0.61120  0.18060  0.31260  1.0000 0.1309398847
H   H2        1.0  0.38880  0.68060  0.18740  1.0000 0.1309398847
H   H3        1.0  0.38880  0.81940  0.68740  1.0000 0.1309398847
H   H4        1.0  0.61120  0.31940  0.81260  1.0000 0.1309398847
H   H5        1.0  0.94240  0.40970  0.45150  1.0000 0.1201246952
H   H6        1.0  0.05760  0.90970  0.04850  1.0000 0.1201246952
H   H7        1.0  0.05760  0.59030  0.54850  1.0000 0.1201246952
H   H8        1.0  0.94240  0.09030  0.95150  1.0000 0.1201246952
H   H9        1.0  0.69670  0.95290  0.68350  1.0000 0.1201246952
H   H10       1.0  0.30330  0.45290  0.81650  1.0000 0.1201246952
H   H11       1.0  0.30330  0.04710  0.31650  1.0000 0.1201246952
H   H12       1.0  0.69670  0.54710  0.18350  1.0000 0.1201246952
H   H13       1.0  0.11010  0.48190  0.17700  1.0000 0.3506335126
H   H14       1.0  0.88990  0.98190  0.32300  1.0000 0.3506335126
H   H15       1.0  0.88990  0.51810  0.82300  1.0000 0.3506335126
H   H16       1.0  0.11010  0.01810  0.67700  1.0000 0.3506335126
H   H17       1.0  0.70580  0.22600  0.49320  1.0000 0.1201246952
H   H18       1.0  0.29420  0.72600  0.00680  1.0000 0.1201246952
H   H19       1.0  0.29420  0.77400  0.50680  1.0000 0.1201246952
H   H20       1.0  0.70580  0.27400  0.99320  1.0000 0.1201246952
H   H21       1.0  0.36480  0.38820  0.20940  1.0000 0.1012172805
H   H22       1.0  0.63520  0.88820  0.29060  1.0000 0.1012172805
H   H23       1.0  0.63520  0.61180  0.79060  1.0000 0.1012172805
H   H24       1.0  0.36480  0.11180  0.70940  1.0000 0.1012172805
H   H25       1.0  0.25270  0.29010  0.31290  1.0000 0.1309398847
H   H26       1.0  0.74730  0.79010  0.18710  1.0000 0.1309398847
H   H27       1.0  0.74730  0.70990  0.68710  1.0000 0.1309398847
H   H28       1.0  0.25270  0.20990  0.81290  1.0000 0.1309398847
H   H29       1.0  0.52340  0.11030  0.35860  1.0000 0.1201246952
H   H30       1.0  0.47660  0.61030  0.14140  1.0000 0.1201246952
H   H31       1.0  0.47660  0.88970  0.64140  1.0000 0.1201246952
H   H32       1.0  0.52340  0.38970  0.85860  1.0000 0.1201246952
H   H33       1.0  0.52600  0.48210  0.23840  1.0000 0.1201246952
H   H34       1.0  0.47400  0.98210  0.26160  1.0000 0.1201246952
H   H35       1.0  0.47400  0.51790  0.76160  1.0000 0.1201246952
H   H36       1.0  0.52600  0.01790  0.73840  1.0000 0.1201246952
H   H37       1.0  0.76350  0.28280  0.31290  1.0000 0.1201246952
H   H38       1.0  0.23650  0.78280  0.18710  1.0000 0.1201246952
H   H39       1.0  0.23650  0.71720  0.68710  1.0000 0.1201246952
H   H40       1.0  0.76350  0.21720  0.81290  1.0000 0.1201246952
H   H41       1.0  0.66170  0.54850  0.30610  1.0000 0.1201246952
H   H42       1.0  0.33830  0.04850  0.19390  1.0000 0.1201246952
H   H43       1.0  0.33830  0.45150  0.69390  1.0000 0.1201246952
H   H44       1.0  0.66170  0.95150  0.80610  1.0000 0.1201246952
H   H45       1.0  0.90540  0.37320  0.36260  1.0000 0.1201246952
H   H46       1.0  0.09460  0.87320  0.13740  1.0000 0.1201246952
H   H47       1.0  0.09460  0.62680  0.63740  1.0000 0.1201246952
H   H48       1.0  0.90540  0.12680  0.86260  1.0000 0.1201246952
H   H49       1.0  0.38580  0.35170  0.38210  1.0000 0.1481796162
H   H50       1.0  0.61420  0.85170  0.11790  1.0000 0.1481796162
H   H51       1.0  0.61420  0.64830  0.61790  1.0000 0.1481796162
H   H52       1.0  0.38580  0.14830  0.88210  1.0000 0.1481796162
H   H53       1.0  0.84840  0.33780  0.49550  1.0000 0.1309398847
H   H54       1.0  0.15160  0.83780  0.00450  1.0000 0.1309398847
H   H55       1.0  0.15160  0.66220  0.50450  1.0000 0.1309398847
H   H56       1.0  0.84840  0.16220  0.99550  1.0000 0.1309398847
H   H57       1.0  0.67460  0.52850  0.39420  1.0000 0.1090870158
H   H58       1.0  0.32540  0.02850  0.10580  1.0000 0.1090870158
H   H59       1.0  0.32540  0.47150  0.60580  1.0000 0.1090870158
H   H60       1.0  0.67460  0.97150  0.89420  1.0000 0.1090870158
H   H61       1.0  0.55450  0.44350  0.41490  1.0000 0.1309398847
H   H62       1.0  0.44550  0.94350  0.08510  1.0000 0.1309398847
H   H63       1.0  0.44550  0.55650  0.58510  1.0000 0.1309398847
H   H64       1.0  0.55450  0.05650  0.91490  1.0000 0.1309398847
H   H65       1.0  0.12030  0.07220  0.00910  1.0000 0.1201246952
H   H66       1.0  0.87970  0.57220  0.49090  1.0000 0.1201246952
H   H67       1.0  0.87970  0.92780  0.99090  1.0000 0.1201246952
H   H68       1.0  0.12030  0.42780  0.50910  1.0000 0.1201246952
H   H69       1.0  0.96510  0.09070  0.75060  1.0000 0.1309398847
H   H70       1.0  0.03490  0.59070  0.74940  1.0000 0.1309398847
H   H71       1.0  0.03490  0.90930  0.24940  1.0000 0.1309398847
H   H72       1.0  0.96510  0.40930  0.25060  1.0000 0.1309398847
H   H73       1.0  0.30570  0.31530  0.07690  1.0000 0.1201246952
H   H74       1.0  0.69430  0.81530  0.42310  1.0000 0.1201246952
H   H75       1.0  0.69430  0.68470  0.92310  1.0000 0.1201246952
H   H76       1.0  0.30570  0.18470  0.57690  1.0000 0.1201246952
H   H77       1.0  0.78940  0.16860  0.60110  1.0000 0.1309398847
H   H78       1.0  0.21060  0.66860  0.89890  1.0000 0.1309398847
H   H79       1.0  0.21060  0.83140  0.39890  1.0000 0.1309398847
H   H80       1.0  0.78940  0.33140  0.10110  1.0000 0.1309398847
H   H81       1.0  0.29460  0.19470  0.93710  1.0000 0.1201246952
H   H82       1.0  0.70540  0.69470  0.56290  1.0000 0.1201246952
H   H83       1.0  0.70540  0.80530  0.06290  1.0000 0.1201246952
H   H84       1.0  0.29460  0.30530  0.43710  1.0000 0.1201246952
H   H85       1.0  0.24230  0.52220  0.15420  1.0000 0.1012172805
H   H86       1.0  0.75770  0.02220  0.34580  1.0000 0.1012172805
H   H87       1.0  0.75770  0.47780  0.84580  1.0000 0.1012172805
H   H88       1.0  0.24230  0.97780  0.65420  1.0000 0.1012172805
H   H89       1.0  0.13600  0.55190  0.11180  1.0000 0.1201246952
H   H90       1.0  0.86400  0.05190  0.38820  1.0000 0.1201246952
H   H91       1.0  0.86400  0.44810  0.88820  1.0000 0.1201246952
H   H92       1.0  0.13600  0.94810  0.61180  1.0000 0.1201246952
H   H93       1.0  0.19210  0.44780  0.10370  1.0000 0.1357462438
H   H94       1.0  0.80790  0.94780  0.39630  1.0000 0.1357462438
H   H95       1.0  0.80790  0.55220  0.89630  1.0000 0.1357462438
H   H96       1.0  0.19210  0.05220  0.60370  1.0000 0.1357462438
C   C1        1.0  0.45400  0.42350  0.28550  1.0000 0.0286682894
C   C2        1.0  0.54600  0.92350  0.21450  1.0000 0.0286682894
C   C3        1.0  0.54600  0.57650  0.71450  1.0000 0.0286682894
C   C4        1.0  0.45400  0.07650  0.78550  1.0000 0.0286682894
C   C5        1.0  0.63300  0.19070  0.34970  1.0000 -0.1935850574
C   C6        1.0  0.36700  0.69070  0.15030  1.0000 -0.1935850574
C   C7        1.0  0.36700  0.80930  0.65030  1.0000 -0.1935850574
C   C8        1.0  0.63300  0.30930  0.84970  1.0000 -0.1935850574
C   C9        1.0  0.85497  0.94540  0.77227  1.0000 0.5889627368
C   C10       1.0  0.14503  0.44540  0.72773  1.0000 0.5889627368
C   C11       1.0  0.14503  0.05460  0.22773  1.0000 0.5889627368
C   C12       1.0  0.85497  0.55460  0.27227  1.0000 0.5889627368
C   C13       1.0  0.88670  0.36700  0.43290  1.0000 -0.0672548804
C   C14       1.0  0.11330  0.86700  0.06710  1.0000 -0.0672548804
C   C15       1.0  0.11330  0.63300  0.56710  1.0000 -0.0672548804
C   C16       1.0  0.88670  0.13300  0.93290  1.0000 -0.0672548804
C   C17       1.0  0.31223  0.26620  0.00713  1.0000 -0.0203616606
C   C18       1.0  0.68777  0.76620  0.49287  1.0000 -0.0203616606
C   C19       1.0  0.68777  0.73380  0.99287  1.0000 -0.0203616606
C   C20       1.0  0.31223  0.23380  0.50713  1.0000 -0.0203616606
C   C21       1.0  0.63661  0.04350  0.58771  1.0000 0.5821865058
C   C22       1.0  0.36339  0.54350  0.91229  1.0000 0.5821865058
C   C23       1.0  0.36339  0.95650  0.41229  1.0000 0.5821865058
C   C24       1.0  0.63661  0.45650  0.08771  1.0000 0.5821865058
C   C25       1.0  0.38816  0.34560  0.00626  1.0000 0.5821865058
C   C26       1.0  0.61184  0.84560  0.49374  1.0000 0.5821865058
C   C27       1.0  0.61184  0.65440  0.99374  1.0000 0.5821865058
C   C28       1.0  0.38816  0.15440  0.50626  1.0000 0.5821865058
C   C29       1.0  0.83295  0.01400  0.72435  1.0000 -0.0311197701
C   C30       1.0  0.16705  0.51400  0.77565  1.0000 -0.0311197701
C   C31       1.0  0.16705  0.98600  0.27565  1.0000 -0.0311197701
C   C32       1.0  0.83295  0.48600  0.22435  1.0000 -0.0311197701
C   C33       1.0  0.74527  0.00120  0.68147  1.0000 -0.1149306043
C   C34       1.0  0.25473  0.50120  0.81853  1.0000 -0.1149306043
C   C35       1.0  0.25473  0.99880  0.31853  1.0000 -0.1149306043
C   C36       1.0  0.74527  0.49880  0.18147  1.0000 -0.1149306043
C   C37       1.0  0.72829  0.05940  0.63529  1.0000 -0.0311197701
C   C38       1.0  0.27171  0.55940  0.86471  1.0000 -0.0311197701
C   C39       1.0  0.27171  0.94060  0.36471  1.0000 -0.0311197701
C   C40       1.0  0.72829  0.44060  0.13529  1.0000 -0.0311197701
C   C41       1.0  0.71860  0.24840  0.37630  1.0000 0.0907868998
C   C42       1.0  0.28140  0.74840  0.12370  1.0000 0.0907868998
C   C43       1.0  0.28140  0.75160  0.62370  1.0000 0.0907868998
C   C44       1.0  0.71860  0.25160  0.87630  1.0000 0.0907868998
C   C45       1.0  0.68730  0.21640  0.45620  1.0000 0.0714530939
C   C46       1.0  0.31270  0.71640  0.04380  1.0000 0.0714530939
C   C47       1.0  0.31270  0.78360  0.54380  1.0000 0.0714530939
C   C48       1.0  0.68730  0.28360  0.95620  1.0000 0.0714530939
C   C49       1.0  0.36949  0.38200  0.24499  1.0000 0.0286682894
C   C50       1.0  0.63051  0.88200  0.25501  1.0000 0.0286682894
C   C51       1.0  0.63051  0.61800  0.75501  1.0000 0.0286682894
C   C52       1.0  0.36949  0.11800  0.74499  1.0000 0.0286682894
C   C53       1.0  0.30456  0.32430  0.30586  1.0000 0.0714530939
C   C54       1.0  0.69544  0.82430  0.19414  1.0000 0.0714530939
C   C55       1.0  0.69544  0.67570  0.69414  1.0000 0.0714530939
C   C56       1.0  0.30456  0.17570  0.80586  1.0000 0.0714530939
C   C57       1.0  0.58170  0.14930  0.37720  1.0000 0.0195678196
C   C58       1.0  0.41830  0.64930  0.12280  1.0000 0.0195678196
C   C59       1.0  0.41830  0.85070  0.62280  1.0000 0.0195678196
C   C60       1.0  0.58170  0.35070  0.87720  1.0000 0.0195678196
C   C61       1.0  0.53080  0.47490  0.27390  1.0000 -0.1594976323
C   C62       1.0  0.46920  0.97490  0.22610  1.0000 -0.1594976323
C   C63       1.0  0.46920  0.52510  0.72610  1.0000 -0.1594976323
C   C64       1.0  0.53080  0.02510  0.77390  1.0000 -0.1594976323
C   C65       1.0  0.78040  0.29230  0.34980  1.0000 -0.1594976323
C   C66       1.0  0.21960  0.79230  0.15020  1.0000 -0.1594976323
C   C67       1.0  0.21960  0.70770  0.65020  1.0000 -0.1594976323
C   C68       1.0  0.78040  0.20770  0.84980  1.0000 -0.1594976323
C   C69       1.0  0.74760  0.26510  0.43060  1.0000 0.0195678196
C   C70       1.0  0.25240  0.76510  0.06940  1.0000 0.0195678196
C   C71       1.0  0.25240  0.73490  0.56940  1.0000 0.0195678196
C   C72       1.0  0.74760  0.23490  0.93060  1.0000 0.0195678196
C   C73       1.0  0.61080  0.51350  0.31370  1.0000 -0.0803250882
C   C74       1.0  0.38920  0.01350  0.18630  1.0000 -0.0803250882
C   C75       1.0  0.38920  0.48650  0.68630  1.0000 -0.0803250882
C   C76       1.0  0.61080  0.98650  0.81370  1.0000 -0.0803250882
C   C77       1.0  0.86290  0.34740  0.37920  1.0000 -0.0672548804
C   C78       1.0  0.13710  0.84740  0.12080  1.0000 -0.0672548804
C   C79       1.0  0.13710  0.65260  0.62080  1.0000 -0.0672548804
C   C80       1.0  0.86290  0.15260  0.87920  1.0000 -0.0672548804
C   C81       1.0  0.38320  0.36070  0.34700  1.0000 -0.1714262186
C   C82       1.0  0.61680  0.86070  0.15300  1.0000 -0.1714262186
C   C83       1.0  0.61680  0.63930  0.65300  1.0000 -0.1714262186
C   C84       1.0  0.38320  0.13930  0.84700  1.0000 -0.1714262186
C   C85       1.0  0.46120  0.41180  0.33790  1.0000 0.1012172805
C   C86       1.0  0.53880  0.91180  0.16210  1.0000 0.1012172805
C   C87       1.0  0.53880  0.58820  0.66210  1.0000 0.1012172805
C   C88       1.0  0.46120  0.08820  0.83790  1.0000 0.1012172805
C   C89       1.0  0.83100  0.32570  0.45880  1.0000 -0.1302519037
C   C90       1.0  0.16900  0.82570  0.04120  1.0000 -0.1302519037
C   C91       1.0  0.16900  0.67430  0.54120  1.0000 -0.1302519037
C   C92       1.0  0.83100  0.17430  0.95880  1.0000 -0.1302519037
C   C93       1.0  0.61820  0.50120  0.36660  1.0000 -0.0672548804
C   C94       1.0  0.38180  0.00120  0.13340  1.0000 -0.0672548804
C   C95       1.0  0.38180  0.49880  0.63340  1.0000 -0.0672548804
C   C96       1.0  0.61820  0.99880  0.86660  1.0000 -0.0672548804
C   C97       1.0  0.54710  0.45170  0.37900  1.0000 -0.1525591804
C   C98       1.0  0.45290  0.95170  0.12100  1.0000 -0.1525591804
C   C99       1.0  0.45290  0.54830  0.62100  1.0000 -0.1525591804
C   C100      1.0  0.54710  0.04830  0.87900  1.0000 -0.1525591804
C   C101      1.0  0.16866  0.12210  0.00826  1.0000 -0.1183527733
C   C102      1.0  0.83134  0.62210  0.49174  1.0000 -0.1183527733
C   C103      1.0  0.83134  0.87790  0.99174  1.0000 -0.1183527733
C   C104      1.0  0.16866  0.37790  0.50826  1.0000 -0.1183527733
C   C105      1.0  0.90490  0.08280  0.72120  1.0000 -0.1014775193
C   C106      1.0  0.09510  0.58280  0.77880  1.0000 -0.1014775193
C   C107      1.0  0.09510  0.91720  0.27880  1.0000 -0.1014775193
C   C108      1.0  0.90490  0.41720  0.22120  1.0000 -0.1014775193
C   C109      1.0  0.19836  0.12290  0.96556  1.0000 -0.0203616606
C   C110      1.0  0.80164  0.62290  0.53444  1.0000 -0.0203616606
C   C111      1.0  0.80164  0.87710  0.03444  1.0000 -0.0203616606
C   C112      1.0  0.19836  0.37710  0.46556  1.0000 -0.0203616606
C   C113      1.0  0.20807  0.19260  0.04967  1.0000 -0.0421664717
C   C114      1.0  0.79193  0.69260  0.45033  1.0000 -0.0421664717
C   C115      1.0  0.79193  0.80740  0.95033  1.0000 -0.0421664717
C   C116      1.0  0.20807  0.30740  0.54967  1.0000 -0.0421664717
C   C117      1.0  0.27942  0.26570  0.04882  1.0000 -0.1183527733
C   C118      1.0  0.72058  0.76570  0.45118  1.0000 -0.1183527733
C   C119      1.0  0.72058  0.73430  0.95118  1.0000 -0.1183527733
C   C120      1.0  0.27942  0.23430  0.54882  1.0000 -0.1183527733
C   C121      1.0  0.88937  0.14040  0.67497  1.0000 -0.0421664717
C   C122      1.0  0.11063  0.64040  0.82503  1.0000 -0.0421664717
C   C123      1.0  0.11063  0.85960  0.32503  1.0000 -0.0421664717
C   C124      1.0  0.88937  0.35960  0.17497  1.0000 -0.0421664717
C   C125      1.0  0.80072  0.12890  0.63242  1.0000 -0.1014775193
C   C126      1.0  0.19928  0.62890  0.86758  1.0000 -0.1014775193
C   C127      1.0  0.19928  0.87110  0.36758  1.0000 -0.1014775193
C   C128      1.0  0.80072  0.37110  0.13242  1.0000 -0.1014775193
C   C129      1.0  0.27199  0.19470  0.96559  1.0000 -0.1183527733
C   C130      1.0  0.72801  0.69470  0.53441  1.0000 -0.1183527733
C   C131      1.0  0.72801  0.80530  0.03441  1.0000 -0.1183527733
C   C132      1.0  0.27199  0.30530  0.46559  1.0000 -0.1183527733
C   C133      1.0  0.15117  0.04870  0.91977  1.0000 0.5601569073
C   C134      1.0  0.84883  0.54870  0.58023  1.0000 0.5601569073
C   C135      1.0  0.84883  0.95130  0.08023  1.0000 0.5601569073
C   C136      1.0  0.15117  0.45130  0.41977  1.0000 0.5601569073
C   C137      1.0  0.17077  0.19040  0.09397  1.0000 0.5889627368
C   C138      1.0  0.82923  0.69040  0.40603  1.0000 0.5889627368
C   C139      1.0  0.82923  0.80960  0.90603  1.0000 0.5889627368
C   C140      1.0  0.17077  0.30960  0.59397  1.0000 0.5889627368
C   C141      1.0  0.96810  0.20840  0.66990  1.0000 0.5821865058
C   C142      1.0  0.03190  0.70840  0.83010  1.0000 0.5821865058
C   C143      1.0  0.03190  0.79160  0.33010  1.0000 0.5821865058
C   C144      1.0  0.96810  0.29160  0.16990  1.0000 0.5821865058
C   C145      1.0  0.17970  0.49320  0.12980  1.0000 -0.1935850574
C   C146      1.0  0.82030  0.99320  0.37020  1.0000 -0.1935850574
C   C147      1.0  0.82030  0.50680  0.87020  1.0000 -0.1935850574
C   C148      1.0  0.17970  0.00680  0.62980  1.0000 -0.1935850574
N   N1        1.0  0.29700  0.33490  0.25460  1.0000 -0.2355987771
N   N2        1.0  0.70300  0.83490  0.24540  1.0000 -0.2355987771
N   N3        1.0  0.70300  0.66510  0.74540  1.0000 -0.2355987771
N   N4        1.0  0.29700  0.16510  0.75460  1.0000 -0.2355987771
N   N5        1.0  0.60966  0.16050  0.43126  1.0000 -0.2120578481
N   N6        1.0  0.39034  0.66050  0.06874  1.0000 -0.2120578481
N   N7        1.0  0.39034  0.83950  0.56874  1.0000 -0.2120578481
N   N8        1.0  0.60966  0.33950  0.93126  1.0000 -0.2120578481
O   O1        1.0  0.21459  0.24670  0.13359  1.0000 -0.5379838142
O   O2        1.0  0.78541  0.74670  0.36641  1.0000 -0.5379838142
O   O3        1.0  0.78541  0.75330  0.86641  1.0000 -0.5379838142
O   O4        1.0  0.21459  0.25330  0.63359  1.0000 -0.5379838142
O   O5        1.0  0.05135  0.20950  0.70675  1.0000 -0.5604640885
O   O6        1.0  0.94865  0.70950  0.79325  1.0000 -0.5604640885
O   O7        1.0  0.94865  0.79050  0.29325  1.0000 -0.5604640885
O   O8        1.0  0.05135  0.29050  0.20675  1.0000 -0.5604640885
O   O9        1.0  0.08693  0.98670  0.92633  1.0000 -0.5770255072
O   O10       1.0  0.91307  0.48670  0.57367  1.0000 -0.5770255072
O   O11       1.0  0.91307  0.01330  0.07367  1.0000 -0.5770255072
O   O12       1.0  0.08693  0.51330  0.42633  1.0000 -0.5770255072
O   O13       1.0  0.93491  0.96820  0.80991  1.0000 -0.549939448
O   O14       1.0  0.06509  0.46820  0.69009  1.0000 -0.549939448
O   O15       1.0  0.06509  0.03180  0.19009  1.0000 -0.549939448
O   O16       1.0  0.93491  0.53180  0.30991  1.0000 -0.549939448
O   O17       1.0  0.79638  0.87260  0.77198  1.0000 -0.5604640885
O   O18       1.0  0.20362  0.37260  0.72802  1.0000 -0.5604640885
O   O19       1.0  0.20362  0.12740  0.22802  1.0000 -0.5604640885
O   O20       1.0  0.79638  0.62740  0.27198  1.0000 -0.5604640885
O   O21       1.0  0.63085  0.09040  0.54635  1.0000 -0.5379838142
O   O22       1.0  0.36915  0.59040  0.95365  1.0000 -0.5379838142
O   O23       1.0  0.36915  0.90960  0.45365  1.0000 -0.5379838142
O   O24       1.0  0.63085  0.40960  0.04635  1.0000 -0.5379838142
O   O25       1.0  0.39343  0.43000  0.03033  1.0000 -0.5297794087
O   O26       1.0  0.60657  0.93000  0.46967  1.0000 -0.5297794087
O   O27       1.0  0.60657  0.57000  0.96967  1.0000 -0.5297794087
O   O28       1.0  0.39343  0.07000  0.53033  1.0000 -0.5297794087
O   O29       1.0  0.57378  0.98220  0.59228  1.0000 -0.5297794087
O   O30       1.0  0.42622  0.48220  0.90772  1.0000 -0.5297794087
O   O31       1.0  0.42622  0.01780  0.40772  1.0000 -0.5297794087
O   O32       1.0  0.57378  0.51780  0.09228  1.0000 -0.5297794087
O   O33       1.0  0.44018  0.32390  0.98038  1.0000 -0.5297794087
O   O34       1.0  0.55982  0.82390  0.51962  1.0000 -0.5297794087
O   O35       1.0  0.55982  0.67610  0.01962  1.0000 -0.5297794087
O   O36       1.0  0.44018  0.17610  0.48038  1.0000 -0.5297794087
O   O37       1.0  0.13492  0.43260  0.15822  1.0000 -0.3941386683
O   O38       1.0  0.86508  0.93260  0.34178  1.0000 -0.3941386683
O   O39       1.0  0.86508  0.56740  0.84178  1.0000 -0.3941386683
O   O40       1.0  0.13492  0.06740  0.65822  1.0000 -0.3941386683
O   O41       1.0  0.94601  0.26080  0.62721  1.0000 -0.549939448
O   O42       1.0  0.05399  0.76080  0.87279  1.0000 -0.549939448
O   O43       1.0  0.05399  0.73920  0.37279  1.0000 -0.549939448
O   O44       1.0  0.94601  0.23920  0.12721  1.0000 -0.549939448
O   O45       1.0  0.09732  0.13190  0.08732  1.0000 -0.549939448
O   O46       1.0  0.90268  0.63190  0.41268  1.0000 -0.549939448
O   O47       1.0  0.90268  0.86810  0.91268  1.0000 -0.549939448
O   O48       1.0  0.09732  0.36810  0.58732  1.0000 -0.549939448
O   O49       1.0  0.17395  0.05240  0.88105  1.0000 -0.5379838142
O   O50       1.0  0.82605  0.55240  0.61895  1.0000 -0.5379838142
O   O51       1.0  0.82605  0.94760  0.11895  1.0000 -0.5379838142
O   O52       1.0  0.17395  0.44760  0.38105  1.0000 -0.5379838142
