# DDEC6 charges by PACMAN v1.1 (https://github.com/mtap-research/PACMAN-charge/)
data_2005[Ce][nan]3[FSR]1
_chemical_formula_sum              "Ce2 H18 C24 O16"
_cell_length_a       8.582
_cell_length_b       10.956
_cell_length_c       11.217
_cell_angle_alpha    64.17
_cell_angle_beta     79.98
_cell_angle_gamma    73.431

_symmetry_space_group_name_H-M    "P 1"
_symmetry_Int_Tables_number       1

loop_
  _symmetry_equiv_pos_as_xyz
  'x, y, z'

loop_
  _atom_site_type_symbol
  _atom_site_label
  _atom_site_symmetry_multiplicity
  _atom_site_fract_x
  _atom_site_fract_y
  _atom_site_fract_z
  _atom_site_occupancy
  _atom_site_charge
Ce  Ce1       1.0  0.25200  0.49734  0.99676  1.0000 2.0312579444
Ce  Ce2       1.0  0.74800  0.50266  0.00324  1.0000 2.0312579444
H   H1        1.0  0.90700  0.89090  0.48410  1.0000 0.1315789678
H   H2        1.0  0.09300  0.10910  0.51590  1.0000 0.1315789678
H   H3        1.0  0.23670  0.93150  0.17260  1.0000 0.1516780949
H   H4        1.0  0.76330  0.06850  0.82740  1.0000 0.1516780949
H   H5        1.0  0.24830  0.55190  0.47900  1.0000 0.1315789678
H   H6        1.0  0.75170  0.44810  0.52100  1.0000 0.1315789678
H   H7        1.0  0.88210  0.67180  0.64440  1.0000 0.1593444369
H   H8        1.0  0.11790  0.32820  0.35560  1.0000 0.1593444369
H   H9        1.0  0.98410  0.53400  0.62610  1.0000 0.1593444369
H   H10       1.0  0.01590  0.46600  0.37390  1.0000 0.1593444369
H   H11       1.0  0.94180  0.12510  0.32550  1.0000 0.1315789678
H   H12       1.0  0.05820  0.87490  0.67450  1.0000 0.1315789678
H   H13       1.0  0.06690  0.14330  0.19880  1.0000 0.1516780949
H   H14       1.0  0.93310  0.85670  0.80120  1.0000 0.1516780949
H   H15       1.0  0.48220  0.58880  0.31810  1.0000 0.1593444369
H   H16       1.0  0.51780  0.41120  0.68190  1.0000 0.1593444369
H   H17       1.0  0.47230  0.73380  0.19090  1.0000 0.1593444369
H   H18       1.0  0.52770  0.26620  0.80910  1.0000 0.1593444369
C   C1        1.0  0.06630  0.70850  0.49820  1.0000 0.1593444369
C   C2        1.0  0.93370  0.29150  0.50180  1.0000 0.1593444369
C   C3        1.0  0.99860  0.85000  0.44140  1.0000 -0.1993118752
C   C4        1.0  0.00140  0.15000  0.55860  1.0000 -0.1993118752
C   C5        1.0  0.06700  0.93400  0.31840  1.0000 0.1681709013
C   C6        1.0  0.93300  0.06600  0.68160  1.0000 0.1681709013
C   C7        1.0  0.19530  0.87500  0.25700  1.0000 -0.1993118752
C   C8        1.0  0.80470  0.12500  0.74300  1.0000 -0.1993118752
C   C9        1.0  0.26890  0.73160  0.31550  1.0000 0.1824862233
C   C10       1.0  0.73110  0.26840  0.68450  1.0000 0.1824862233
C   C11       1.0  0.20100  0.64920  0.43780  1.0000 -0.1993118752
C   C12       1.0  0.79900  0.35080  0.56220  1.0000 -0.1993118752
C   C13       1.0  0.99380  0.61930  0.63160  1.0000 -0.3967528769
C   C14       1.0  0.00620  0.38070  0.36840  1.0000 -0.3967528769
C   C15       1.0  0.08360  0.57460  0.75400  1.0000 0.6744604281
C   C16       1.0  0.91640  0.42540  0.24600  1.0000 0.6776621313
C   C17       1.0  0.98410  0.09180  0.25430  1.0000 -0.3644458034
C   C18       1.0  0.01590  0.90820  0.74570  1.0000 -0.3644458034
C   C19       1.0  0.84200  0.12570  0.16770  1.0000 0.6776621313
C   C20       1.0  0.15800  0.87430  0.83230  1.0000 0.6776621313
C   C21       1.0  0.40960  0.66390  0.24950  1.0000 -0.3927261659
C   C22       1.0  0.59040  0.33610  0.75050  1.0000 -0.3927261659
C   C23       1.0  0.35980  0.60210  0.16740  1.0000 0.6861258319
C   C24       1.0  0.64020  0.39790  0.83260  1.0000 0.6861258319
O   O1        1.0  0.24590  0.55250  0.75060  1.0000 -0.6040133664
O   O2        1.0  0.75410  0.44750  0.24940  1.0000 -0.6053850481
O   O3        1.0  0.00810  0.54310  0.86940  1.0000 -0.691740764
O   O4        1.0  0.99190  0.45690  0.13060  1.0000 -0.691740764
O   O5        1.0  0.77840  0.25650  0.11590  1.0000 -0.6347123214
O   O6        1.0  0.22160  0.74350  0.88410  1.0000 -0.6357668468
O   O7        1.0  0.80660  0.03940  0.14610  1.0000 -0.4228434095
O   O8        1.0  0.19340  0.96060  0.85390  1.0000 -0.4228434095
O   O9        1.0  0.21740  0.58440  0.17750  1.0000 -0.5682815441
O   O10       1.0  0.78260  0.41560  0.82250  1.0000 -0.5682815441
O   O11       1.0  0.47120  0.55680  0.09230  1.0000 -0.6662564704
O   O12       1.0  0.52880  0.44320  0.90770  1.0000 -0.6662564704
O   O13       1.0  0.38400  0.28330  0.19610  1.0000 -0.2837771007
O   O14       1.0  0.61600  0.71670  0.80390  1.0000 -0.2891797253
O   O15       1.0  0.24720  0.27290  0.98510  1.0000 -0.2891797253
O   O16       1.0  0.75280  0.72710  0.01490  1.0000 -0.2891797253
