# DDEC6 charges by PACMAN v1.1 (https://github.com/mtap-research/PACMAN-charge/)
data_2005[Mn][lvt]3[FSR]3
_chemical_formula_sum              "Mn24 H512 C432 N72 O80"
_cell_length_a       30.1899
_cell_length_b       30.1899
_cell_length_c       30.1899
_cell_angle_alpha    94.7062
_cell_angle_beta     94.7062
_cell_angle_gamma    146.71

_symmetry_space_group_name_H-M    "P 1"
_symmetry_Int_Tables_number       1

loop_
  _symmetry_equiv_pos_as_xyz
  'x, y, z'

loop_
  _atom_site_type_symbol
  _atom_site_label
  _atom_site_symmetry_multiplicity
  _atom_site_fract_x
  _atom_site_fract_y
  _atom_site_fract_z
  _atom_site_occupancy
  _atom_site_charge
Mn  Mn1       1.0  0.38330  0.59799  0.36761  1.0000 0.8502051416
Mn  Mn2       1.0  0.26569  0.13330  0.28531  1.0000 0.8502051416
Mn  Mn3       1.0  0.84799  0.98038  0.71469  1.0000 0.8502051416
Mn  Mn4       1.0  0.23038  0.01569  0.63239  1.0000 0.8502051416
Mn  Mn5       1.0  0.86670  0.15201  0.13239  1.0000 0.8502051416
Mn  Mn6       1.0  0.98431  0.61670  0.21469  1.0000 0.8502051416
Mn  Mn7       1.0  0.40201  0.76962  0.78531  1.0000 0.8502051416
Mn  Mn8       1.0  0.01962  0.73431  0.86761  1.0000 0.8502051416
Mn  Mn9       1.0  0.33230  0.65977  0.24867  1.0000 0.7112711701
Mn  Mn10      1.0  0.33363  0.08230  0.17253  1.0000 0.7112711701
Mn  Mn11      1.0  0.90977  0.16110  0.82747  1.0000 0.7112711701
Mn  Mn12      1.0  0.41110  0.08363  0.75133  1.0000 0.7112711701
Mn  Mn13      1.0  0.91770  0.09023  0.25133  1.0000 0.7112711701
Mn  Mn14      1.0  0.91637  0.66770  0.32747  1.0000 0.7112711701
Mn  Mn15      1.0  0.34023  0.58890  0.67253  1.0000 0.7112711701
Mn  Mn16      1.0  0.83890  0.66637  0.74867  1.0000 0.7112711701
Mn  Mn17      1.0  0.21065  0.31788  0.33303  1.0000 0.741731781
Mn  Mn18      1.0  0.12762  0.96065  0.39277  1.0000 0.741731781
Mn  Mn19      1.0  0.56788  0.73485  0.60723  1.0000 0.741731781
Mn  Mn20      1.0  0.98485  0.87762  0.66697  1.0000 0.741731781
Mn  Mn21      1.0  0.03935  0.43212  0.16697  1.0000 0.741731781
Mn  Mn22      1.0  0.12238  0.78935  0.10723  1.0000 0.741731781
Mn  Mn23      1.0  0.68212  0.01515  0.89277  1.0000 0.741731781
Mn  Mn24      1.0  0.26515  0.87238  0.83303  1.0000 0.741731781
H   H1        1.0  0.59690  0.69880  0.34870  1.0000 0.1307187875
H   H2        1.0  0.49820  0.34690  0.39810  1.0000 0.1307187875
H   H3        1.0  0.94880  0.10010  0.60190  1.0000 0.1307187875
H   H4        1.0  0.35010  0.24820  0.65130  1.0000 0.1307187875
H   H5        1.0  0.65310  0.05120  0.15130  1.0000 0.1307187875
H   H6        1.0  0.75180  0.40310  0.10190  1.0000 0.1307187875
H   H7        1.0  0.30120  0.64990  0.89810  1.0000 0.1307187875
H   H8        1.0  0.89990  0.50180  0.84870  1.0000 0.1307187875
H   H9        1.0  0.69180  0.79160  0.30820  1.0000 0.1096223872
H   H10       1.0  0.63360  0.44180  0.40020  1.0000 0.1096223872
H   H11       1.0  0.04160  0.23340  0.59980  1.0000 0.1096223872
H   H12       1.0  0.48340  0.38360  0.69180  1.0000 0.1096223872
H   H13       1.0  0.55820  0.95840  0.19180  1.0000 0.1096223872
H   H14       1.0  0.61640  0.30820  0.09980  1.0000 0.1096223872
H   H15       1.0  0.20840  0.51660  0.90020  1.0000 0.1096223872
H   H16       1.0  0.76660  0.36640  0.80820  1.0000 0.1096223872
H   H17       1.0  0.68170  0.84420  0.26530  1.0000 0.1195925732
H   H18       1.0  0.66640  0.43170  0.33750  1.0000 0.1195925732
H   H19       1.0  0.09420  0.32890  0.66250  1.0000 0.1195925732
H   H20       1.0  0.57890  0.41640  0.73470  1.0000 0.1195925732
H   H21       1.0  0.56830  0.90580  0.23470  1.0000 0.1195925732
H   H22       1.0  0.58360  0.31830  0.16250  1.0000 0.1195925732
H   H23       1.0  0.15580  0.42110  0.83750  1.0000 0.1195925732
H   H24       1.0  0.67110  0.33360  0.76530  1.0000 0.1195925732
H   H25       1.0  0.57070  0.80000  0.26250  1.0000 0.1195925732
H   H26       1.0  0.55820  0.32070  0.27070  1.0000 0.1195925732
H   H27       1.0  0.05000  0.28750  0.72930  1.0000 0.1195925732
H   H28       1.0  0.53750  0.30820  0.73750  1.0000 0.1195925732
H   H29       1.0  0.67930  0.95000  0.23750  1.0000 0.1195925732
H   H30       1.0  0.69180  0.42930  0.22930  1.0000 0.1195925732
H   H31       1.0  0.20000  0.46250  0.77070  1.0000 0.1195925732
H   H32       1.0  0.71250  0.44180  0.76250  1.0000 0.1195925732
H   H33       1.0  0.19370  0.55190  0.30620  1.0000 0.1378969913
H   H34       1.0  0.13750  0.94370  0.14180  1.0000 0.1378969913
H   H35       1.0  0.80190  0.99570  0.85820  1.0000 0.1378969913
H   H36       1.0  0.24570  0.88750  0.69380  1.0000 0.1378969913
H   H37       1.0  0.05630  0.19810  0.19380  1.0000 0.1378969913
H   H38       1.0  0.11250  0.80630  0.35820  1.0000 0.1378969913
H   H39       1.0  0.44810  0.75430  0.64180  1.0000 0.1378969913
H   H40       1.0  0.00430  0.86250  0.80620  1.0000 0.1378969913
H   H41       1.0  0.14570  0.47230  0.32160  1.0000 0.1378969913
H   H42       1.0  0.07410  0.89570  0.17340  1.0000 0.1378969913
H   H43       1.0  0.72230  0.90070  0.82660  1.0000 0.1378969913
H   H44       1.0  0.15070  0.82410  0.67840  1.0000 0.1378969913
H   H45       1.0  0.10430  0.27770  0.17840  1.0000 0.1378969913
H   H46       1.0  0.17590  0.85430  0.32660  1.0000 0.1378969913
H   H47       1.0  0.52770  0.84930  0.67340  1.0000 0.1378969913
H   H48       1.0  0.09930  0.92590  0.82160  1.0000 0.1378969913
H   H49       1.0  0.14300  0.53210  0.37130  1.0000 0.0904135552
H   H50       1.0  0.02170  0.89300  0.11090  1.0000 0.0904135552
H   H51       1.0  0.78210  0.91080  0.88910  1.0000 0.0904135552
H   H52       1.0  0.16080  0.77170  0.62870  1.0000 0.0904135552
H   H53       1.0  0.10700  0.21790  0.12870  1.0000 0.0904135552
H   H54       1.0  0.22830  0.85700  0.38910  1.0000 0.0904135552
H   H55       1.0  0.46790  0.83920  0.61090  1.0000 0.0904135552
H   H56       1.0  0.08920  0.97830  0.87130  1.0000 0.0904135552
H   H57       1.0  0.20450  0.54900  0.40050  1.0000 0.0904135552
H   H58       1.0  0.05400  0.95450  0.15550  1.0000 0.0904135552
H   H59       1.0  0.79900  0.89850  0.84450  1.0000 0.0904135552
H   H60       1.0  0.14850  0.80400  0.59950  1.0000 0.0904135552
H   H61       1.0  0.04550  0.20100  0.09950  1.0000 0.0904135552
H   H62       1.0  0.19600  0.79550  0.34450  1.0000 0.0904135552
H   H63       1.0  0.45100  0.85150  0.65550  1.0000 0.0904135552
H   H64       1.0  0.10150  0.94600  0.90050  1.0000 0.0904135552
H   H65       1.0  0.26400  0.67140  0.36160  1.0000 0.1096223872
H   H66       1.0  0.15240  0.01400  0.09260  1.0000 0.1096223872
H   H67       1.0  0.92140  0.05980  0.90740  1.0000 0.1096223872
H   H68       1.0  0.30980  0.90240  0.63840  1.0000 0.1096223872
H   H69       1.0  0.98600  0.07860  0.13840  1.0000 0.1096223872
H   H70       1.0  0.09760  0.73600  0.40740  1.0000 0.1096223872
H   H71       1.0  0.32860  0.69020  0.59260  1.0000 0.1096223872
H   H72       1.0  0.94020  0.84760  0.86160  1.0000 0.1096223872
H   H73       1.0  0.32270  0.68750  0.39460  1.0000 0.0995476925
H   H74       1.0  0.17810  0.07270  0.13520  1.0000 0.0995476925
H   H75       1.0  0.93750  0.04290  0.86480  1.0000 0.0995476925
H   H76       1.0  0.29290  0.92810  0.60540  1.0000 0.0995476925
H   H77       1.0  0.92730  0.06250  0.10540  1.0000 0.0995476925
H   H78       1.0  0.07190  0.67730  0.36480  1.0000 0.0995476925
H   H79       1.0  0.31250  0.70710  0.63520  1.0000 0.0995476925
H   H80       1.0  0.95710  0.82190  0.89460  1.0000 0.0995476925
H   H81       1.0  0.27120  0.67250  0.45670  1.0000 0.0904135552
H   H82       1.0  0.06450  0.02120  0.09870  1.0000 0.0904135552
H   H83       1.0  0.92250  0.96580  0.90130  1.0000 0.0904135552
H   H84       1.0  0.21580  0.81450  0.54330  1.0000 0.0904135552
H   H85       1.0  0.97880  0.07750  0.04330  1.0000 0.0904135552
H   H86       1.0  0.18550  0.72880  0.40130  1.0000 0.0904135552
H   H87       1.0  0.32750  0.78420  0.59870  1.0000 0.0904135552
H   H88       1.0  0.03420  0.93550  0.95670  1.0000 0.0904135552
H   H89       1.0  0.21070  0.65420  0.42370  1.0000 0.0995476925
H   H90       1.0  0.03700  0.96070  0.05650  1.0000 0.0995476925
H   H91       1.0  0.90420  0.98050  0.94350  1.0000 0.0995476925
H   H92       1.0  0.23050  0.78700  0.57630  1.0000 0.0995476925
H   H93       1.0  0.03930  0.09580  0.07630  1.0000 0.0995476925
H   H94       1.0  0.21300  0.78930  0.44350  1.0000 0.0995476925
H   H95       1.0  0.34580  0.76950  0.55650  1.0000 0.0995476925
H   H96       1.0  0.01950  0.96300  0.92370  1.0000 0.0995476925
H   H97       1.0  0.31430  0.78710  0.42480  1.0000 0.1195925732
H   H98       1.0  0.13950  0.06430  0.02720  1.0000 0.1195925732
H   H99       1.0  0.03710  0.11230  0.97280  1.0000 0.1195925732
H   H100      1.0  0.36230  0.88950  0.57520  1.0000 0.1195925732
H   H101      1.0  0.93570  0.96290  0.07520  1.0000 0.1195925732
H   H102      1.0  0.11050  0.68570  0.47280  1.0000 0.1195925732
H   H103      1.0  0.21290  0.63770  0.52720  1.0000 0.1195925732
H   H104      1.0  0.88770  0.86050  0.92480  1.0000 0.1195925732
H   H105      1.0  0.34760  0.79800  0.47540  1.0000 0.1195925732
H   H106      1.0  0.12220  0.09760  0.04960  1.0000 0.1195925732
H   H107      1.0  0.04800  0.07260  0.95040  1.0000 0.1195925732
H   H108      1.0  0.32260  0.87220  0.52460  1.0000 0.1195925732
H   H109      1.0  0.90240  0.95200  0.02460  1.0000 0.1195925732
H   H110      1.0  0.12780  0.65240  0.45040  1.0000 0.1195925732
H   H111      1.0  0.20200  0.67740  0.54960  1.0000 0.1195925732
H   H112      1.0  0.92740  0.87780  0.97540  1.0000 0.1195925732
H   H113      1.0  0.38350  0.80720  0.43430  1.0000 0.1307187875
H   H114      1.0  0.19920  0.13350  0.07630  1.0000 0.1307187875
H   H115      1.0  0.05720  0.12290  0.92370  1.0000 0.1307187875
H   H116      1.0  0.37290  0.94920  0.56570  1.0000 0.1307187875
H   H117      1.0  0.86650  0.94280  0.06570  1.0000 0.1307187875
H   H118      1.0  0.05080  0.61650  0.42370  1.0000 0.1307187875
H   H119      1.0  0.19280  0.62710  0.57630  1.0000 0.1307187875
H   H120      1.0  0.87710  0.80080  0.93430  1.0000 0.1307187875
H   H121      1.0  0.37710  0.66120  0.44690  1.0000 0.1096223872
H   H122      1.0  0.18020  0.12710  0.21590  1.0000 0.1096223872
H   H123      1.0  0.91120  0.96430  0.78410  1.0000 0.1096223872
H   H124      1.0  0.21430  0.93020  0.55310  1.0000 0.1096223872
H   H125      1.0  0.87290  0.08880  0.05310  1.0000 0.1096223872
H   H126      1.0  0.06980  0.62290  0.28410  1.0000 0.1096223872
H   H127      1.0  0.33880  0.78570  0.71590  1.0000 0.1096223872
H   H128      1.0  0.03570  0.81980  0.94690  1.0000 0.1096223872
H   H129      1.0  0.38500  0.71090  0.51190  1.0000 0.1378969913
H   H130      1.0  0.12310  0.13500  0.17410  1.0000 0.1378969913
H   H131      1.0  0.96090  0.94900  0.82590  1.0000 0.1378969913
H   H132      1.0  0.19900  0.87310  0.48810  1.0000 0.1378969913
H   H133      1.0  0.86500  0.03910  0.98810  1.0000 0.1378969913
H   H134      1.0  0.12690  0.61500  0.32590  1.0000 0.1378969913
H   H135      1.0  0.28910  0.80100  0.67410  1.0000 0.1378969913
H   H136      1.0  0.05100  0.87690  0.01190  1.0000 0.1378969913
H   H137      1.0  0.46710  0.76960  0.55190  1.0000 0.1600521538
H   H138      1.0  0.16520  0.21710  0.19750  1.0000 0.1600521538
H   H139      1.0  0.01960  0.96770  0.80250  1.0000 0.1600521538
H   H140      1.0  0.21770  0.91520  0.44810  1.0000 0.1600521538
H   H141      1.0  0.78290  0.98040  0.94810  1.0000 0.1600521538
H   H142      1.0  0.08480  0.53290  0.30250  1.0000 0.1600521538
H   H143      1.0  0.23040  0.78230  0.69750  1.0000 0.1600521538
H   H144      1.0  0.03230  0.83480  0.05190  1.0000 0.1600521538
H   H145      1.0  0.46210  0.81050  0.52700  1.0000 0.1471610394
H   H146      1.0  0.18510  0.21210  0.15160  1.0000 0.1471610394
H   H147      1.0  0.06050  0.03350  0.84840  1.0000 0.1471610394
H   H148      1.0  0.28350  0.93510  0.47300  1.0000 0.1471610394
H   H149      1.0  0.78790  0.93950  0.97300  1.0000 0.1471610394
H   H150      1.0  0.06490  0.53790  0.34840  1.0000 0.1471610394
H   H151      1.0  0.18950  0.71650  0.65160  1.0000 0.1471610394
H   H152      1.0  0.96650  0.81490  0.02700  1.0000 0.1471610394
H   H153      1.0  0.58730  0.89490  0.49800  1.0000 0.1378969913
H   H154      1.0  0.33930  0.33730  0.19240  1.0000 0.1378969913
H   H155      1.0  0.14490  0.14690  0.80760  1.0000 0.1378969913
H   H156      1.0  0.39690  0.08930  0.50200  1.0000 0.1378969913
H   H157      1.0  0.66270  0.85510  0.00200  1.0000 0.1378969913
H   H158      1.0  0.91070  0.41270  0.30760  1.0000 0.1378969913
H   H159      1.0  0.10510  0.60310  0.69240  1.0000 0.1378969913
H   H160      1.0  0.85310  0.66070  0.99800  1.0000 0.1378969913
H   H161      1.0  0.59260  0.86060  0.53180  1.0000 0.1378969913
H   H162      1.0  0.31080  0.34260  0.23200  1.0000 0.1378969913
H   H163      1.0  0.11060  0.07880  0.76800  1.0000 0.1378969913
H   H164      1.0  0.32880  0.06080  0.46820  1.0000 0.1378969913
H   H165      1.0  0.65740  0.88940  0.96820  1.0000 0.1378969913
H   H166      1.0  0.93920  0.40740  0.26800  1.0000 0.1378969913
H   H167      1.0  0.13940  0.67120  0.73200  1.0000 0.1378969913
H   H168      1.0  0.92120  0.68920  0.03180  1.0000 0.1378969913
H   H169      1.0  0.58910  0.84550  0.47880  1.0000 0.1307187875
H   H170      1.0  0.36030  0.33910  0.24360  1.0000 0.1307187875
H   H171      1.0  0.09550  0.11670  0.75640  1.0000 0.1307187875
H   H172      1.0  0.36670  0.11030  0.52120  1.0000 0.1307187875
H   H173      1.0  0.66090  0.90450  0.02120  1.0000 0.1307187875
H   H174      1.0  0.88970  0.41090  0.25640  1.0000 0.1307187875
H   H175      1.0  0.15450  0.63330  0.74360  1.0000 0.1307187875
H   H176      1.0  0.88330  0.63970  0.97880  1.0000 0.1307187875
H   H177      1.0  0.42260  0.86300  0.32400  1.0000 0.1378969913
H   H178      1.0  0.34860  0.17260  0.05960  1.0000 0.1378969913
H   H179      1.0  0.11300  0.28900  0.94040  1.0000 0.1378969913
H   H180      1.0  0.53900  0.09860  0.67600  1.0000 0.1378969913
H   H181      1.0  0.82740  0.88700  0.17600  1.0000 0.1378969913
H   H182      1.0  0.90140  0.57740  0.44040  1.0000 0.1378969913
H   H183      1.0  0.13700  0.46100  0.55960  1.0000 0.1378969913
H   H184      1.0  0.71100  0.65140  0.82400  1.0000 0.1378969913
H   H185      1.0  0.36030  0.88020  0.32030  1.0000 0.1096223872
H   H186      1.0  0.29000  0.11030  0.98010  1.0000 0.1096223872
H   H187      1.0  0.13020  0.30990  0.01990  1.0000 0.1096223872
H   H188      1.0  0.55990  0.04000  0.67970  1.0000 0.1096223872
H   H189      1.0  0.88970  0.86980  0.17970  1.0000 0.1096223872
H   H190      1.0  0.96000  0.63970  0.51990  1.0000 0.1096223872
H   H191      1.0  0.11980  0.44010  0.48010  1.0000 0.1096223872
H   H192      1.0  0.69010  0.71000  0.82030  1.0000 0.1096223872
H   H193      1.0  0.22400  0.77440  0.27440  1.0000 0.1195925732
H   H194      1.0  0.19960  0.97400  0.94960  1.0000 0.1195925732
H   H195      1.0  0.02440  0.25000  0.05040  1.0000 0.1195925732
H   H196      1.0  0.50000  0.94960  0.72560  1.0000 0.1195925732
H   H197      1.0  0.02600  0.97560  0.22560  1.0000 0.1195925732
H   H198      1.0  0.05040  0.77600  0.55040  1.0000 0.1195925732
H   H199      1.0  0.22560  0.50000  0.44960  1.0000 0.1195925732
H   H200      1.0  0.75000  0.80040  0.77440  1.0000 0.1195925732
H   H201      1.0  0.14970  0.65070  0.23340  1.0000 0.1096223872
H   H202      1.0  0.16630  0.89970  0.99900  1.0000 0.1096223872
H   H203      1.0  0.90070  0.16730  0.00100  1.0000 0.1096223872
H   H204      1.0  0.41730  0.91630  0.76660  1.0000 0.1096223872
H   H205      1.0  0.10030  0.09930  0.26660  1.0000 0.1096223872
H   H206      1.0  0.08370  0.85030  0.50100  1.0000 0.1096223872
H   H207      1.0  0.34930  0.58270  0.49900  1.0000 0.1096223872
H   H208      1.0  0.83270  0.83370  0.73340  1.0000 0.1096223872
H   H209      1.0  0.17140  0.41310  0.16390  1.0000 0.1378969913
H   H210      1.0  0.25750  0.92140  0.25830  1.0000 0.1378969913
H   H211      1.0  0.66310  0.99920  0.74170  1.0000 0.1378969913
H   H212      1.0  0.24920  0.00750  0.83610  1.0000 0.1378969913
H   H213      1.0  0.07860  0.33690  0.33610  1.0000 0.1378969913
H   H214      1.0  0.99250  0.82860  0.24170  1.0000 0.1378969913
H   H215      1.0  0.58690  0.75080  0.75830  1.0000 0.1378969913
H   H216      1.0  0.00080  0.74250  0.66390  1.0000 0.1378969913
H   H217      1.0  0.10550  0.39250  0.13740  1.0000 0.1378969913
H   H218      1.0  0.21810  0.85550  0.21300  1.0000 0.1378969913
H   H219      1.0  0.64250  0.00510  0.78700  1.0000 0.1378969913
H   H220      1.0  0.25510  0.96810  0.86260  1.0000 0.1378969913
H   H221      1.0  0.14450  0.35750  0.36260  1.0000 0.1378969913
H   H222      1.0  0.03190  0.89450  0.28700  1.0000 0.1378969913
H   H223      1.0  0.60750  0.74490  0.71300  1.0000 0.1378969913
H   H224      1.0  0.99490  0.78190  0.63740  1.0000 0.1378969913
H   H225      1.0  0.18410  0.42030  0.08920  1.0000 0.0904135552
H   H226      1.0  0.34490  0.93410  0.26380  1.0000 0.0904135552
H   H227      1.0  0.67030  0.08110  0.73620  1.0000 0.0904135552
H   H228      1.0  0.33110  0.09490  0.91080  1.0000 0.0904135552
H   H229      1.0  0.06590  0.32970  0.41080  1.0000 0.0904135552
H   H230      1.0  0.90510  0.81590  0.23620  1.0000 0.0904135552
H   H231      1.0  0.57970  0.66890  0.76380  1.0000 0.0904135552
H   H232      1.0  0.91890  0.65510  0.58920  1.0000 0.0904135552
H   H233      1.0  0.26710  0.51510  0.12120  1.0000 0.0995476925
H   H234      1.0  0.39590  0.01710  0.25200  1.0000 0.0995476925
H   H235      1.0  0.76510  0.14390  0.74800  1.0000 0.0995476925
H   H236      1.0  0.39390  0.14590  0.87880  1.0000 0.0995476925
H   H237      1.0  0.98290  0.23490  0.37880  1.0000 0.0995476925
H   H238      1.0  0.85410  0.73290  0.24800  1.0000 0.0995476925
H   H239      1.0  0.48490  0.60610  0.75200  1.0000 0.0995476925
H   H240      1.0  0.85610  0.60410  0.62120  1.0000 0.0995476925
H   H241      1.0  0.12520  0.44070  0.06750  1.0000 0.1096223872
H   H242      1.0  0.30770  0.87520  0.18450  1.0000 0.1096223872
H   H243      1.0  0.69070  0.12320  0.81550  1.0000 0.1096223872
H   H244      1.0  0.37320  0.05770  0.93250  1.0000 0.1096223872
H   H245      1.0  0.12480  0.30930  0.43250  1.0000 0.1096223872
H   H246      1.0  0.94230  0.87480  0.31550  1.0000 0.1096223872
H   H247      1.0  0.55930  0.62680  0.68450  1.0000 0.1096223872
H   H248      1.0  0.87680  0.69230  0.56750  1.0000 0.1096223872
H   H249      1.0  0.20880  0.53560  0.09920  1.0000 0.0995476925
H   H250      1.0  0.35960  0.95880  0.17320  1.0000 0.0995476925
H   H251      1.0  0.78560  0.18640  0.82680  1.0000 0.0995476925
H   H252      1.0  0.43640  0.10960  0.90080  1.0000 0.0995476925
H   H253      1.0  0.04120  0.21440  0.40080  1.0000 0.0995476925
H   H254      1.0  0.89040  0.79120  0.32680  1.0000 0.0995476925
H   H255      1.0  0.46440  0.56360  0.67320  1.0000 0.0995476925
H   H256      1.0  0.81360  0.64040  0.59920  1.0000 0.0995476925
H   H257      1.0  0.20380  0.47200  0.01880  1.0000 0.0904135552
H   H258      1.0  0.43500  0.95380  0.23180  1.0000 0.0904135552
H   H259      1.0  0.72200  0.20320  0.76820  1.0000 0.0904135552
H   H260      1.0  0.45320  0.18500  0.98120  1.0000 0.0904135552
H   H261      1.0  0.04620  0.27800  0.48120  1.0000 0.0904135552
H   H262      1.0  0.81500  0.79620  0.26820  1.0000 0.0904135552
H   H263      1.0  0.52800  0.54680  0.73180  1.0000 0.0904135552
H   H264      1.0  0.79680  0.56500  0.51880  1.0000 0.0904135552
H   H265      1.0  0.28720  0.56740  0.05040  1.0000 0.0904135552
H   H266      1.0  0.48680  0.03720  0.21980  1.0000 0.0904135552
H   H267      1.0  0.81740  0.26700  0.78020  1.0000 0.0904135552
H   H268      1.0  0.51700  0.23680  0.94960  1.0000 0.0904135552
H   H269      1.0  0.96280  0.18260  0.44960  1.0000 0.0904135552
H   H270      1.0  0.76320  0.71280  0.28020  1.0000 0.0904135552
H   H271      1.0  0.43260  0.48300  0.71980  1.0000 0.0904135552
H   H272      1.0  0.73300  0.51320  0.55040  1.0000 0.0904135552
H   H273      1.0  0.21130  0.57340  0.03050  1.0000 0.1195925732
H   H274      1.0  0.43080  0.96130  0.13790  1.0000 0.1195925732
H   H275      1.0  0.82340  0.29290  0.86210  1.0000 0.1195925732
H   H276      1.0  0.54290  0.18080  0.96950  1.0000 0.1195925732
H   H277      1.0  0.03870  0.17660  0.46950  1.0000 0.1195925732
H   H278      1.0  0.81920  0.78870  0.36210  1.0000 0.1195925732
H   H279      1.0  0.42660  0.45710  0.63790  1.0000 0.1195925732
H   H280      1.0  0.70710  0.56920  0.53050  1.0000 0.1195925732
H   H281      1.0  0.24140  0.57240  0.98980  1.0000 0.1096223872
H   H282      1.0  0.50160  0.99140  0.16900  1.0000 0.1096223872
H   H283      1.0  0.82240  0.33260  0.83100  1.0000 0.1096223872
H   H284      1.0  0.58260  0.25160  0.01020  1.0000 0.1096223872
H   H285      1.0  0.00860  0.17760  0.51020  1.0000 0.1096223872
H   H286      1.0  0.74840  0.75860  0.33100  1.0000 0.1096223872
H   H287      1.0  0.42760  0.41740  0.66900  1.0000 0.1096223872
H   H288      1.0  0.66740  0.49840  0.48980  1.0000 0.1096223872
H   H289      1.0  0.14570  0.48820  0.99070  1.0000 0.1195925732
H   H290      1.0  0.40500  0.89570  0.15750  1.0000 0.1195925732
H   H291      1.0  0.73820  0.24750  0.84250  1.0000 0.1195925732
H   H292      1.0  0.49750  0.15500  0.00930  1.0000 0.1195925732
H   H293      1.0  0.10430  0.26180  0.50930  1.0000 0.1195925732
H   H294      1.0  0.84500  0.85430  0.34250  1.0000 0.1195925732
H   H295      1.0  0.51180  0.50250  0.65750  1.0000 0.1195925732
H   H296      1.0  0.75250  0.59500  0.49070  1.0000 0.1195925732
H   H297      1.0  0.42780  0.69640  0.18220  1.0000 0.1096223872
H   H298      1.0  0.49560  0.17780  0.23140  1.0000 0.1096223872
H   H299      1.0  0.94640  0.26420  0.76860  1.0000 0.1096223872
H   H300      1.0  0.51420  0.24560  0.81780  1.0000 0.1096223872
H   H301      1.0  0.82220  0.05360  0.31780  1.0000 0.1096223872
H   H302      1.0  0.75440  0.57220  0.26860  1.0000 0.1096223872
H   H303      1.0  0.30360  0.48580  0.73140  1.0000 0.1096223872
H   H304      1.0  0.73580  0.50440  0.68220  1.0000 0.1096223872
H   H305      1.0  0.46050  0.73050  0.11320  1.0000 0.1471610394
H   H306      1.0  0.59730  0.21050  0.23000  1.0000 0.1471610394
H   H307      1.0  0.98050  0.36730  0.77000  1.0000 0.1471610394
H   H308      1.0  0.61730  0.34730  0.88680  1.0000 0.1471610394
H   H309      1.0  0.78950  0.01950  0.38680  1.0000 0.1471610394
H   H310      1.0  0.65270  0.53950  0.27000  1.0000 0.1471610394
H   H311      1.0  0.26950  0.38270  0.73000  1.0000 0.1471610394
H   H312      1.0  0.63270  0.40270  0.61320  1.0000 0.1471610394
H   H313      1.0  0.37600  0.78390  0.11470  1.0000 0.1378969913
H   H314      1.0  0.51130  0.12600  0.09210  1.0000 0.1378969913
H   H315      1.0  0.03390  0.41920  0.90790  1.0000 0.1378969913
H   H316      1.0  0.66920  0.26130  0.88530  1.0000 0.1378969913
H   H317      1.0  0.87400  0.96610  0.38530  1.0000 0.1378969913
H   H318      1.0  0.73870  0.62400  0.40790  1.0000 0.1378969913
H   H319      1.0  0.21610  0.33080  0.59210  1.0000 0.1378969913
H   H320      1.0  0.58080  0.48870  0.61470  1.0000 0.1378969913
H   H321      1.0  0.34220  0.74610  0.18230  1.0000 0.1096223872
H   H322      1.0  0.40990  0.09220  0.09610  1.0000 0.1096223872
H   H323      1.0  0.99610  0.31380  0.90390  1.0000 0.1096223872
H   H324      1.0  0.56380  0.15990  0.81770  1.0000 0.1096223872
H   H325      1.0  0.90780  0.00390  0.31770  1.0000 0.1096223872
H   H326      1.0  0.84010  0.65780  0.40390  1.0000 0.1096223872
H   H327      1.0  0.25390  0.43620  0.59610  1.0000 0.1096223872
H   H328      1.0  0.68620  0.59010  0.68230  1.0000 0.1096223872
H   H329      1.0  0.41330  0.78520  0.04610  1.0000 0.1307187875
H   H330      1.0  0.61720  0.16330  0.12810  1.0000 0.1307187875
H   H331      1.0  0.03520  0.48910  0.87190  1.0000 0.1307187875
H   H332      1.0  0.73910  0.36720  0.95390  1.0000 0.1307187875
H   H333      1.0  0.83670  0.96480  0.45390  1.0000 0.1307187875
H   H334      1.0  0.63280  0.58670  0.37190  1.0000 0.1307187875
H   H335      1.0  0.21480  0.26090  0.62810  1.0000 0.1307187875
H   H336      1.0  0.51090  0.38280  0.54610  1.0000 0.1307187875
H   H337      1.0  0.42270  0.74040  0.03950  1.0000 0.1307187875
H   H338      1.0  0.63320  0.17270  0.18230  1.0000 0.1307187875
H   H339      1.0  0.99040  0.45090  0.81770  1.0000 0.1307187875
H   H340      1.0  0.70090  0.38320  0.96050  1.0000 0.1307187875
H   H341      1.0  0.82730  0.00960  0.46050  1.0000 0.1307187875
H   H342      1.0  0.61680  0.57730  0.31770  1.0000 0.1307187875
H   H343      1.0  0.25960  0.29910  0.68230  1.0000 0.1307187875
H   H344      1.0  0.54910  0.36680  0.53950  1.0000 0.1307187875
H   H345      1.0  0.21440  0.27130  0.46390  1.0000 0.1307187875
H   H346      1.0  0.00050  0.96440  0.44310  1.0000 0.1307187875
H   H347      1.0  0.52130  0.55740  0.55690  1.0000 0.1307187875
H   H348      1.0  0.80740  0.75050  0.53610  1.0000 0.1307187875
H   H349      1.0  0.03560  0.47870  0.03610  1.0000 0.1307187875
H   H350      1.0  0.24950  0.78560  0.05690  1.0000 0.1307187875
H   H351      1.0  0.72870  0.19260  0.94310  1.0000 0.1307187875
H   H352      1.0  0.44260  0.99950  0.96390  1.0000 0.1307187875
H   H353      1.0  0.29520  0.36030  0.53830  1.0000 0.1096223872
H   H354      1.0  0.00690  0.04520  0.43490  1.0000 0.1096223872
H   H355      1.0  0.61030  0.57200  0.56510  1.0000 0.1096223872
H   H356      1.0  0.82200  0.75690  0.46170  1.0000 0.1096223872
H   H357      1.0  0.95480  0.38970  0.96170  1.0000 0.1096223872
H   H358      1.0  0.24310  0.70480  0.06510  1.0000 0.1096223872
H   H359      1.0  0.63970  0.17800  0.93490  1.0000 0.1096223872
H   H360      1.0  0.42800  0.99310  0.03830  1.0000 0.1096223872
H   H361      1.0  0.38120  0.49580  0.55320  1.0000 0.1195925732
H   H362      1.0  0.07800  0.13120  0.38540  1.0000 0.1195925732
H   H363      1.0  0.74580  0.69260  0.61460  1.0000 0.1195925732
H   H364      1.0  0.94260  0.82800  0.44680  1.0000 0.1195925732
H   H365      1.0  0.86880  0.25420  0.94680  1.0000 0.1195925732
H   H366      1.0  0.17200  0.61880  0.11460  1.0000 0.1195925732
H   H367      1.0  0.50420  0.05740  0.88540  1.0000 0.1195925732
H   H368      1.0  0.30740  0.92200  0.05320  1.0000 0.1195925732
H   H369      1.0  0.38940  0.54340  0.49340  1.0000 0.1195925732
H   H370      1.0  0.14600  0.13940  0.34600  1.0000 0.1195925732
H   H371      1.0  0.79340  0.80000  0.65400  1.0000 0.1195925732
H   H372      1.0  0.05000  0.89600  0.50660  1.0000 0.1195925732
H   H373      1.0  0.86060  0.20660  0.00660  1.0000 0.1195925732
H   H374      1.0  0.10400  0.61060  0.15400  1.0000 0.1195925732
H   H375      1.0  0.45660  0.95000  0.84600  1.0000 0.1195925732
H   H376      1.0  0.20000  0.85400  0.99340  1.0000 0.1195925732
H   H377      1.0  0.30340  0.50850  0.25690  1.0000 0.1378969913
H   H378      1.0  0.29650  0.05340  0.29490  1.0000 0.1378969913
H   H379      1.0  0.75850  0.00160  0.70510  1.0000 0.1378969913
H   H380      1.0  0.25160  0.04650  0.74310  1.0000 0.1378969913
H   H381      1.0  0.94660  0.24150  0.24310  1.0000 0.1378969913
H   H382      1.0  0.95350  0.69660  0.20510  1.0000 0.1378969913
H   H383      1.0  0.49150  0.74840  0.79490  1.0000 0.1378969913
H   H384      1.0  0.99840  0.70350  0.75690  1.0000 0.1378969913
H   H385      1.0  0.23050  0.41690  0.22200  1.0000 0.1307187875
H   H386      1.0  0.25850  0.98050  0.31360  1.0000 0.1307187875
H   H387      1.0  0.66690  0.94490  0.68640  1.0000 0.1307187875
H   H388      1.0  0.19490  0.00850  0.77800  1.0000 0.1307187875
H   H389      1.0  0.01950  0.33310  0.27800  1.0000 0.1307187875
H   H390      1.0  0.99150  0.76950  0.18640  1.0000 0.1307187875
H   H391      1.0  0.58310  0.80510  0.81360  1.0000 0.1307187875
H   H392      1.0  0.05510  0.74150  0.72200  1.0000 0.1307187875
H   H393      1.0  0.32940  0.44220  0.21640  1.0000 0.0904135552
H   H394      1.0  0.36300  0.07940  0.38720  1.0000 0.0904135552
H   H395      1.0  0.69220  0.97580  0.61280  1.0000 0.0904135552
H   H396      1.0  0.22580  0.11300  0.78360  1.0000 0.0904135552
H   H397      1.0  0.92060  0.30780  0.28360  1.0000 0.0904135552
H   H398      1.0  0.88700  0.67060  0.11280  1.0000 0.0904135552
H   H399      1.0  0.55780  0.77420  0.88720  1.0000 0.0904135552
H   H400      1.0  0.02420  0.63700  0.71640  1.0000 0.0904135552
H   H401      1.0  0.40250  0.53080  0.25430  1.0000 0.0904135552
H   H402      1.0  0.39820  0.15250  0.37170  1.0000 0.0904135552
H   H403      1.0  0.78080  0.02650  0.62830  1.0000 0.0904135552
H   H404      1.0  0.27650  0.14820  0.74570  1.0000 0.0904135552
H   H405      1.0  0.84750  0.21920  0.24570  1.0000 0.0904135552
H   H406      1.0  0.85180  0.59750  0.12830  1.0000 0.0904135552
H   H407      1.0  0.46920  0.72350  0.87170  1.0000 0.0904135552
H   H408      1.0  0.97350  0.60180  0.75430  1.0000 0.0904135552
H   H409      1.0  0.33040  0.49540  0.15940  1.0000 0.1195925732
H   H410      1.0  0.42100  0.08040  0.33500  1.0000 0.1195925732
H   H411      1.0  0.74540  0.08600  0.66500  1.0000 0.1195925732
H   H412      1.0  0.33600  0.17100  0.84060  1.0000 0.1195925732
H   H413      1.0  0.91960  0.25460  0.34060  1.0000 0.1195925732
H   H414      1.0  0.82900  0.66960  0.16500  1.0000 0.1195925732
H   H415      1.0  0.50460  0.66400  0.83500  1.0000 0.1195925732
H   H416      1.0  0.91400  0.57900  0.65940  1.0000 0.1195925732
H   H417      1.0  0.39400  0.58150  0.19750  1.0000 0.1195925732
H   H418      1.0  0.44650  0.14400  0.31250  1.0000 0.1195925732
H   H419      1.0  0.83150  0.13400  0.68750  1.0000 0.1195925732
H   H420      1.0  0.38400  0.19650  0.80250  1.0000 0.1195925732
H   H421      1.0  0.85600  0.16850  0.30250  1.0000 0.1195925732
H   H422      1.0  0.80350  0.60600  0.18750  1.0000 0.1195925732
H   H423      1.0  0.41850  0.61600  0.81250  1.0000 0.1195925732
H   H424      1.0  0.86600  0.55350  0.69750  1.0000 0.1195925732
H   H425      1.0  0.42940  0.52750  0.16570  1.0000 0.1096223872
H   H426      1.0  0.51370  0.17940  0.40190  1.0000 0.1096223872
H   H427      1.0  0.77750  0.11180  0.59810  1.0000 0.1096223872
H   H428      1.0  0.36180  0.26370  0.83430  1.0000 0.1096223872
H   H429      1.0  0.82060  0.22250  0.33430  1.0000 0.1096223872
H   H430      1.0  0.73630  0.57060  0.09810  1.0000 0.1096223872
H   H431      1.0  0.47250  0.63820  0.90190  1.0000 0.1096223872
H   H432      1.0  0.88820  0.48630  0.66570  1.0000 0.1096223872
H   H433      1.0  0.49390  0.61490  0.20420  1.0000 0.1096223872
H   H434      1.0  0.53970  0.24390  0.37900  1.0000 0.1096223872
H   H435      1.0  0.86490  0.16070  0.62100  1.0000 0.1096223872
H   H436      1.0  0.41070  0.28970  0.79580  1.0000 0.1096223872
H   H437      1.0  0.75610  0.13510  0.29580  1.0000 0.1096223872
H   H438      1.0  0.71030  0.50610  0.12100  1.0000 0.1096223872
H   H439      1.0  0.38510  0.58930  0.87900  1.0000 0.1096223872
H   H440      1.0  0.83930  0.46030  0.70420  1.0000 0.1096223872
H   H441      1.0  0.43920  0.63090  0.14710  1.0000 0.0995476925
H   H442      1.0  0.54210  0.18920  0.30830  1.0000 0.0995476925
H   H443      1.0  0.88090  0.23380  0.69170  1.0000 0.0995476925
H   H444      1.0  0.48380  0.29210  0.85290  1.0000 0.0995476925
H   H445      1.0  0.81080  0.11910  0.35290  1.0000 0.0995476925
H   H446      1.0  0.70790  0.56080  0.19170  1.0000 0.0995476925
H   H447      1.0  0.36910  0.51620  0.80830  1.0000 0.0995476925
H   H448      1.0  0.76620  0.45790  0.64710  1.0000 0.0995476925
H   H449      1.0  0.40340  0.56110  0.10850  1.0000 0.1195925732
H   H450      1.0  0.54490  0.15340  0.34230  1.0000 0.1195925732
H   H451      1.0  0.81110  0.20260  0.65770  1.0000 0.1195925732
H   H452      1.0  0.45260  0.29490  0.89150  1.0000 0.1195925732
H   H453      1.0  0.84660  0.18890  0.39150  1.0000 0.1195925732
H   H454      1.0  0.70510  0.59660  0.15770  1.0000 0.1195925732
H   H455      1.0  0.43890  0.54740  0.84230  1.0000 0.1195925732
H   H456      1.0  0.79740  0.45510  0.60850  1.0000 0.1195925732
H   H457      1.0  0.50250  0.65050  0.13080  1.0000 0.1307187875
H   H458      1.0  0.62170  0.25250  0.35200  1.0000 0.1307187875
H   H459      1.0  0.90050  0.26970  0.64800  1.0000 0.1307187875
H   H460      1.0  0.51970  0.37170  0.86920  1.0000 0.1307187875
H   H461      1.0  0.74750  0.09950  0.36920  1.0000 0.1307187875
H   H462      1.0  0.62830  0.49750  0.14800  1.0000 0.1307187875
H   H463      1.0  0.34950  0.48030  0.85200  1.0000 0.1307187875
H   H464      1.0  0.73030  0.37830  0.63080  1.0000 0.1307187875
H   H465      1.0  0.51500  0.84660  0.91480  1.0000 0.1096223872
H   H466      1.0  0.85020  0.26500  0.16840  1.0000 0.1096223872
H   H467      1.0  0.09660  0.68180  0.83160  1.0000 0.1096223872
H   H468      1.0  0.93180  0.60020  0.08520  1.0000 0.1096223872
H   H469      1.0  0.73500  0.90340  0.58520  1.0000 0.1096223872
H   H470      1.0  0.39980  0.48500  0.33160  1.0000 0.1096223872
H   H471      1.0  0.15340  0.06820  0.66840  1.0000 0.1096223872
H   H472      1.0  0.31820  0.14980  0.41480  1.0000 0.1096223872
H   H473      1.0  0.45690  0.78690  0.97420  1.0000 0.1378969913
H   H474      1.0  0.73270  0.20690  0.17000  1.0000 0.1378969913
H   H475      1.0  0.03690  0.56270  0.83000  1.0000 0.1378969913
H   H476      1.0  0.81270  0.48270  0.02580  1.0000 0.1378969913
H   H477      1.0  0.79310  0.96310  0.52580  1.0000 0.1378969913
H   H478      1.0  0.51730  0.54310  0.33000  1.0000 0.1378969913
H   H479      1.0  0.21310  0.18730  0.67000  1.0000 0.1378969913
H   H480      1.0  0.43730  0.26730  0.47420  1.0000 0.1378969913
H   H481      1.0  0.67400  0.01480  0.06400  1.0000 0.1471610394
H   H482      1.0  0.86000  0.42400  0.15920  1.0000 0.1471610394
H   H483      1.0  0.26480  0.70080  0.84080  1.0000 0.1471610394
H   H484      1.0  0.95080  0.61000  0.93600  1.0000 0.1471610394
H   H485      1.0  0.57600  0.73520  0.43600  1.0000 0.1471610394
H   H486      1.0  0.39000  0.32600  0.34080  1.0000 0.1471610394
H   H487      1.0  0.98520  0.04920  0.65920  1.0000 0.1471610394
H   H488      1.0  0.29920  0.14000  0.56400  1.0000 0.1471610394
H   H489      1.0  0.72530  0.06740  0.00210  1.0000 0.1195925732
H   H490      1.0  0.97320  0.47530  0.15790  1.0000 0.1195925732
H   H491      1.0  0.31740  0.81530  0.84210  1.0000 0.1195925732
H   H492      1.0  0.06530  0.72320  0.99790  1.0000 0.1195925732
H   H493      1.0  0.52470  0.68260  0.49790  1.0000 0.1195925732
H   H494      1.0  0.27680  0.27470  0.34210  1.0000 0.1195925732
H   H495      1.0  0.93260  0.93470  0.65790  1.0000 0.1195925732
H   H496      1.0  0.18470  0.02680  0.50210  1.0000 0.1195925732
H   H497      1.0  0.54510  0.90110  0.09020  1.0000 0.1195925732
H   H498      1.0  0.70490  0.29510  0.14400  1.0000 0.1195925732
H   H499      1.0  0.15110  0.56090  0.85600  1.0000 0.1195925732
H   H500      1.0  0.81090  0.45490  0.90980  1.0000 0.1195925732
H   H501      1.0  0.70490  0.84890  0.40980  1.0000 0.1195925732
H   H502      1.0  0.54510  0.45490  0.35600  1.0000 0.1195925732
H   H503      1.0  0.09890  0.18910  0.64400  1.0000 0.1195925732
H   H504      1.0  0.43910  0.29510  0.59020  1.0000 0.1195925732
H   H505      1.0  0.55390  0.85620  0.08170  1.0000 0.1307187875
H   H506      1.0  0.72220  0.30390  0.19770  1.0000 0.1307187875
H   H507      1.0  0.10620  0.52450  0.80230  1.0000 0.1307187875
H   H508      1.0  0.77450  0.47220  0.91830  1.0000 0.1307187875
H   H509      1.0  0.69610  0.89380  0.41830  1.0000 0.1307187875
H   H510      1.0  0.52780  0.44610  0.30230  1.0000 0.1307187875
H   H511      1.0  0.14380  0.22550  0.69770  1.0000 0.1307187875
H   H512      1.0  0.47550  0.27780  0.58170  1.0000 0.1307187875
C   C1        1.0  0.52632  0.69538  0.33270  1.0000 0.2998807612
C   C2        1.0  0.44362  0.27632  0.33094  1.0000 0.2998807612
C   C3        1.0  0.94538  0.11268  0.66906  1.0000 0.2998807612
C   C4        1.0  0.36268  0.19362  0.66730  1.0000 0.2998807612
C   C5        1.0  0.72368  0.05462  0.16730  1.0000 0.2998807612
C   C6        1.0  0.80638  0.47368  0.16906  1.0000 0.2998807612
C   C7        1.0  0.30462  0.63732  0.83094  1.0000 0.2998807612
C   C8        1.0  0.88732  0.55638  0.83270  1.0000 0.2998807612
C   C9        1.0  0.59166  0.72012  0.33198  1.0000 -0.2434011461
C   C10       1.0  0.50968  0.34166  0.37154  1.0000 -0.2434011461
C   C11       1.0  0.97012  0.13814  0.62846  1.0000 -0.2434011461
C   C12       1.0  0.38814  0.25968  0.66802  1.0000 -0.2434011461
C   C13       1.0  0.65834  0.02988  0.16802  1.0000 -0.2434011461
C   C14       1.0  0.74032  0.40834  0.12846  1.0000 -0.2434011461
C   C15       1.0  0.27988  0.61186  0.87154  1.0000 -0.2434011461
C   C16       1.0  0.86186  0.49032  0.83198  1.0000 -0.2434011461
C   C17       1.0  0.64743  0.77462  0.30745  1.0000 -0.0775947166
C   C18       1.0  0.58998  0.39743  0.37281  1.0000 -0.0775947166
C   C19       1.0  0.02462  0.21717  0.62719  1.0000 -0.0775947166
C   C20       1.0  0.46717  0.33998  0.69255  1.0000 -0.0775947166
C   C21       1.0  0.60257  0.97538  0.19255  1.0000 -0.0775947166
C   C22       1.0  0.66002  0.35257  0.12719  1.0000 -0.0775947166
C   C23       1.0  0.22538  0.53283  0.87281  1.0000 -0.0775947166
C   C24       1.0  0.78283  0.41002  0.80745  1.0000 -0.0775947166
C   C25       1.0  0.64165  0.80564  0.28169  1.0000 -0.1505090669
C   C26       1.0  0.60996  0.39165  0.33601  1.0000 -0.1505090669
C   C27       1.0  0.05564  0.27395  0.66399  1.0000 -0.1505090669
C   C28       1.0  0.52395  0.35996  0.71831  1.0000 -0.1505090669
C   C29       1.0  0.60835  0.94436  0.21831  1.0000 -0.1505090669
C   C30       1.0  0.64004  0.35835  0.16399  1.0000 -0.1505090669
C   C31       1.0  0.19436  0.47605  0.83601  1.0000 -0.1505090669
C   C32       1.0  0.72605  0.39004  0.78169  1.0000 -0.1505090669
C   C33       1.0  0.57559  0.77912  0.28031  1.0000 -0.1003717437
C   C34       1.0  0.54528  0.32559  0.29647  1.0000 -0.1003717437
C   C35       1.0  0.02912  0.24881  0.70353  1.0000 -0.1003717437
C   C36       1.0  0.49881  0.29528  0.71969  1.0000 -0.1003717437
C   C37       1.0  0.67441  0.97088  0.21969  1.0000 -0.1003717437
C   C38       1.0  0.70472  0.42441  0.20353  1.0000 -0.1003717437
C   C39       1.0  0.22088  0.50119  0.79647  1.0000 -0.1003717437
C   C40       1.0  0.75119  0.45472  0.78031  1.0000 -0.1003717437
C   C41       1.0  0.51627  0.72294  0.30421  1.0000 -0.1505090669
C   C42       1.0  0.46206  0.26627  0.29333  1.0000 -0.1505090669
C   C43       1.0  0.97294  0.16873  0.70667  1.0000 -0.1505090669
C   C44       1.0  0.41873  0.21206  0.69579  1.0000 -0.1505090669
C   C45       1.0  0.73373  0.02706  0.19579  1.0000 -0.1505090669
C   C46       1.0  0.78794  0.48373  0.20667  1.0000 -0.1505090669
C   C47       1.0  0.27706  0.58127  0.79333  1.0000 -0.1505090669
C   C48       1.0  0.83127  0.53794  0.80421  1.0000 -0.1505090669
C   C49       1.0  0.44582  0.69448  0.29830  1.0000 0.4309737081
C   C50       1.0  0.39752  0.19582  0.25134  1.0000 0.4309737081
C   C51       1.0  0.94448  0.14618  0.74866  1.0000 0.4309737081
C   C52       1.0  0.39618  0.14752  0.70170  1.0000 0.4309737081
C   C53       1.0  0.80418  0.05552  0.20170  1.0000 0.4309737081
C   C54       1.0  0.85248  0.55418  0.24866  1.0000 0.4309737081
C   C55       1.0  0.30552  0.60382  0.75134  1.0000 0.4309737081
C   C56       1.0  0.85382  0.60248  0.79830  1.0000 0.4309737081
C   C57       1.0  0.27278  0.57023  0.33641  1.0000 0.4571482125
C   C58       1.0  0.18637  0.02278  0.20255  1.0000 0.4571482125
C   C59       1.0  0.82023  0.98382  0.79745  1.0000 0.4571482125
C   C60       1.0  0.23382  0.93637  0.66359  1.0000 0.4571482125
C   C61       1.0  0.97722  0.17977  0.16359  1.0000 0.4571482125
C   C62       1.0  0.06363  0.72722  0.29745  1.0000 0.4571482125
C   C63       1.0  0.42977  0.76618  0.70255  1.0000 0.4571482125
C   C64       1.0  0.01618  0.81363  0.83641  1.0000 0.4571482125
C   C65       1.0  0.19659  0.53442  0.33101  1.0000 -0.3182484953
C   C66       1.0  0.11558  0.94659  0.16217  1.0000 -0.3182484953
C   C67       1.0  0.78442  0.95341  0.83783  1.0000 -0.3182484953
C   C68       1.0  0.20341  0.86558  0.66899  1.0000 -0.3182484953
C   C69       1.0  0.05341  0.21558  0.16899  1.0000 -0.3182484953
C   C70       1.0  0.13442  0.80341  0.33783  1.0000 -0.3182484953
C   C71       1.0  0.46558  0.79659  0.66217  1.0000 -0.3182484953
C   C72       1.0  0.04659  0.88442  0.83101  1.0000 -0.3182484953
C   C73       1.0  0.19743  0.56274  0.37517  1.0000 -0.1377825984
C   C74       1.0  0.07226  0.94743  0.13469  1.0000 -0.1377825984
C   C75       1.0  0.81274  0.93757  0.86531  1.0000 -0.1377825984
C   C76       1.0  0.18757  0.82226  0.62483  1.0000 -0.1377825984
C   C77       1.0  0.05257  0.18726  0.12483  1.0000 -0.1377825984
C   C78       1.0  0.17774  0.80257  0.36531  1.0000 -0.1377825984
C   C79       1.0  0.43726  0.81243  0.63469  1.0000 -0.1377825984
C   C80       1.0  0.06243  0.92774  0.87517  1.0000 -0.1377825984
C   C81       1.0  0.26817  0.65698  0.38815  1.0000 -0.1820768998
C   C82       1.0  0.13002  0.01817  0.11119  1.0000 -0.1820768998
C   C83       1.0  0.90698  0.01883  0.88881  1.0000 -0.1820768998
C   C84       1.0  0.26883  0.88002  0.61185  1.0000 -0.1820768998
C   C85       1.0  0.98183  0.09302  0.11185  1.0000 -0.1820768998
C   C86       1.0  0.11998  0.73183  0.38881  1.0000 -0.1820768998
C   C87       1.0  0.34302  0.73117  0.61119  1.0000 -0.1820768998
C   C88       1.0  0.98117  0.86998  0.88815  1.0000 -0.1820768998
C   C89       1.0  0.26580  0.68580  0.43000  1.0000 -0.1232201815
C   C90       1.0  0.08580  0.01580  0.08000  1.0000 -0.1232201815
C   C91       1.0  0.93580  0.00580  0.92000  1.0000 -0.1232201815
C   C92       1.0  0.25580  0.83580  0.57000  1.0000 -0.1232201815
C   C93       1.0  0.98420  0.06420  0.07000  1.0000 -0.1232201815
C   C94       1.0  0.16420  0.73420  0.42000  1.0000 -0.1232201815
C   C95       1.0  0.31420  0.74420  0.58000  1.0000 -0.1232201815
C   C96       1.0  0.99420  0.91420  0.93000  1.0000 -0.1232201815
C   C97       1.0  0.33360  0.77740  0.44220  1.0000 -0.3902732343
C   C98       1.0  0.14140  0.08360  0.05620  1.0000 -0.3902732343
C   C99       1.0  0.02740  0.08520  0.94380  1.0000 -0.3902732343
C   C100      1.0  0.33520  0.89140  0.55780  1.0000 -0.3902732343
C   C101      1.0  0.91640  0.97260  0.05780  1.0000 -0.3902732343
C   C102      1.0  0.10860  0.66640  0.44380  1.0000 -0.3902732343
C   C103      1.0  0.22260  0.66480  0.55620  1.0000 -0.3902732343
C   C104      1.0  0.91480  0.85860  0.94220  1.0000 -0.3902732343
C   C105      1.0  0.43629  0.71096  0.45185  1.0000 0.2399380761
C   C106      1.0  0.23444  0.18629  0.22533  1.0000 0.2399380761
C   C107      1.0  0.96096  0.00911  0.77467  1.0000 0.2399380761
C   C108      1.0  0.25911  0.98444  0.54815  1.0000 0.2399380761
C   C109      1.0  0.81371  0.03904  0.04815  1.0000 0.2399380761
C   C110      1.0  0.01556  0.56371  0.27467  1.0000 0.2399380761
C   C111      1.0  0.28904  0.74089  0.72533  1.0000 0.2399380761
C   C112      1.0  0.99089  0.76556  0.95185  1.0000 0.2399380761
C   C113      1.0  0.44630  0.76561  0.52251  1.0000 -0.3533699182
C   C114      1.0  0.17379  0.19630  0.18069  1.0000 -0.3533699182
C   C115      1.0  0.01561  0.99310  0.81931  1.0000 -0.3533699182
C   C116      1.0  0.24310  0.92379  0.47749  1.0000 -0.3533699182
C   C117      1.0  0.80370  0.98439  0.97749  1.0000 -0.3533699182
C   C118      1.0  0.07621  0.55370  0.31931  1.0000 -0.3533699182
C   C119      1.0  0.23439  0.75690  0.68069  1.0000 -0.3533699182
C   C120      1.0  0.00690  0.82621  0.02251  1.0000 -0.3533699182
C   C121      1.0  0.56920  0.84920  0.50020  1.0000 -0.3182484953
C   C122      1.0  0.31900  0.31920  0.22000  1.0000 -0.3182484953
C   C123      1.0  0.09920  0.09900  0.78000  1.0000 -0.3182484953
C   C124      1.0  0.34900  0.06900  0.49980  1.0000 -0.3182484953
C   C125      1.0  0.68080  0.90080  0.99980  1.0000 -0.3182484953
C   C126      1.0  0.93100  0.43080  0.28000  1.0000 -0.3182484953
C   C127      1.0  0.15080  0.65100  0.72000  1.0000 -0.3182484953
C   C128      1.0  0.90100  0.68100  0.00020  1.0000 -0.3182484953
C   C129      1.0  0.32314  0.74493  0.27867  1.0000 0.2864218201
C   C130      1.0  0.29447  0.07314  0.07821  1.0000 0.2864218201
C   C131      1.0  0.99493  0.21626  0.92179  1.0000 0.2864218201
C   C132      1.0  0.46626  0.04447  0.72133  1.0000 0.2864218201
C   C133      1.0  0.92686  0.00507  0.22133  1.0000 0.2864218201
C   C134      1.0  0.95553  0.67686  0.42179  1.0000 0.2864218201
C   C135      1.0  0.25507  0.53374  0.57821  1.0000 0.2864218201
C   C136      1.0  0.78374  0.70553  0.77867  1.0000 0.2864218201
C   C137      1.0  0.36706  0.81940  0.30486  1.0000 -0.2295400384
C   C138      1.0  0.31220  0.11706  0.04766  1.0000 -0.2295400384
C   C139      1.0  0.06940  0.26454  0.95234  1.0000 -0.2295400384
C   C140      1.0  0.51454  0.06220  0.69514  1.0000 -0.2295400384
C   C141      1.0  0.88294  0.93060  0.19514  1.0000 -0.2295400384
C   C142      1.0  0.93780  0.63294  0.45234  1.0000 -0.2295400384
C   C143      1.0  0.18060  0.48546  0.54766  1.0000 -0.2295400384
C   C144      1.0  0.73546  0.68780  0.80486  1.0000 -0.2295400384
C   C145      1.0  0.32965  0.82939  0.30284  1.0000 -0.0704269079
C   C146      1.0  0.27681  0.07965  0.00026  1.0000 -0.0704269079
C   C147      1.0  0.07939  0.27655  0.99974  1.0000 -0.0704269079
C   C148      1.0  0.52655  0.02681  0.69716  1.0000 -0.0704269079
C   C149      1.0  0.92035  0.92061  0.19716  1.0000 -0.0704269079
C   C150      1.0  0.97319  0.67035  0.49974  1.0000 -0.0704269079
C   C151      1.0  0.17061  0.47345  0.50026  1.0000 -0.0704269079
C   C152      1.0  0.72345  0.72319  0.80284  1.0000 -0.0704269079
C   C153      1.0  0.24898  0.76694  0.27592  1.0000 -0.1505090669
C   C154      1.0  0.22306  0.99898  0.98204  1.0000 -0.1505090669
C   C155      1.0  0.01694  0.24102  0.01796  1.0000 -0.1505090669
C   C156      1.0  0.49102  0.97306  0.72408  1.0000 -0.1505090669
C   C157      1.0  0.00102  0.98306  0.22408  1.0000 -0.1505090669
C   C158      1.0  0.02694  0.75102  0.51796  1.0000 -0.1505090669
C   C159      1.0  0.23306  0.50898  0.48204  1.0000 -0.1505090669
C   C160      1.0  0.75898  0.77694  0.77592  1.0000 -0.1505090669
C   C161      1.0  0.20558  0.69405  0.25163  1.0000 -0.1003717437
C   C162      1.0  0.20395  0.95558  0.01153  1.0000 -0.1003717437
C   C163      1.0  0.94405  0.19242  0.98847  1.0000 -0.1003717437
C   C164      1.0  0.44242  0.95395  0.74837  1.0000 -0.1003717437
C   C165      1.0  0.04442  0.05595  0.24837  1.0000 -0.1003717437
C   C166      1.0  0.04605  0.79442  0.48847  1.0000 -0.1003717437
C   C167      1.0  0.30595  0.55758  0.51153  1.0000 -0.1003717437
C   C168      1.0  0.80758  0.79605  0.75163  1.0000 -0.1003717437
C   C169      1.0  0.23992  0.68022  0.25234  1.0000 -0.1505090669
C   C170      1.0  0.23758  0.98992  0.05970  1.0000 -0.1505090669
C   C171      1.0  0.93022  0.17788  0.94030  1.0000 -0.1505090669
C   C172      1.0  0.42788  0.98758  0.74766  1.0000 -0.1505090669
C   C173      1.0  0.01008  0.06978  0.24766  1.0000 -0.1505090669
C   C174      1.0  0.01242  0.76008  0.44030  1.0000 -0.1505090669
C   C175      1.0  0.31978  0.57212  0.55970  1.0000 -0.1505090669
C   C176      1.0  0.82212  0.76242  0.75234  1.0000 -0.1505090669
C   C177      1.0  0.18687  0.59892  0.22339  1.0000 0.4225146952
C   C178      1.0  0.21348  0.93687  0.08795  1.0000 0.4225146952
C   C179      1.0  0.84892  0.12553  0.91205  1.0000 0.4225146952
C   C180      1.0  0.37553  0.96348  0.77661  1.0000 0.4225146952
C   C181      1.0  0.06313  0.15108  0.27661  1.0000 0.4225146952
C   C182      1.0  0.03652  0.81313  0.41205  1.0000 0.4225146952
C   C183      1.0  0.40108  0.62447  0.58795  1.0000 0.4225146952
C   C184      1.0  0.87447  0.78652  0.72339  1.0000 0.4225146952
C   C185      1.0  0.20732  0.50828  0.18480  1.0000 0.4660518984
C   C186      1.0  0.27252  0.95732  0.19904  1.0000 0.4660518984
C   C187      1.0  0.75828  0.07348  0.80096  1.0000 0.4660518984
C   C188      1.0  0.32348  0.02252  0.81520  1.0000 0.4660518984
C   C189      1.0  0.04268  0.24172  0.31520  1.0000 0.4660518984
C   C190      1.0  0.97748  0.79268  0.30096  1.0000 0.4660518984
C   C191      1.0  0.49172  0.67652  0.69904  1.0000 0.4660518984
C   C192      1.0  0.92652  0.72748  0.68480  1.0000 0.4660518984
C   C193      1.0  0.16610  0.43715  0.14925  1.0000 -0.3182484953
C   C194      1.0  0.26685  0.91610  0.22895  1.0000 -0.3182484953
C   C195      1.0  0.68715  0.03790  0.77105  1.0000 -0.3182484953
C   C196      1.0  0.28790  0.01685  0.85075  1.0000 -0.3182484953
C   C197      1.0  0.08390  0.31285  0.35075  1.0000 -0.3182484953
C   C198      1.0  0.98315  0.83390  0.27105  1.0000 -0.3182484953
C   C199      1.0  0.56285  0.71210  0.72895  1.0000 -0.3182484953
C   C200      1.0  0.96210  0.73315  0.64925  1.0000 -0.3182484953
C   C201      1.0  0.20556  0.46594  0.10890  1.0000 -0.1325296969
C   C202      1.0  0.34666  0.95556  0.23962  1.0000 -0.1325296969
C   C203      1.0  0.71594  0.10704  0.76038  1.0000 -0.1325296969
C   C204      1.0  0.35704  0.09666  0.89110  1.0000 -0.1325296969
C   C205      1.0  0.04444  0.28406  0.39110  1.0000 -0.1325296969
C   C206      1.0  0.90334  0.79444  0.26038  1.0000 -0.1325296969
C   C207      1.0  0.53406  0.64296  0.73962  1.0000 -0.1325296969
C   C208      1.0  0.89296  0.65334  0.60890  1.0000 -0.1325296969
C   C209      1.0  0.18675  0.48959  0.07954  1.0000 -0.1905785102
C   C210      1.0  0.35721  0.93675  0.19716  1.0000 -0.1905785102
C   C211      1.0  0.73959  0.16005  0.80284  1.0000 -0.1905785102
C   C212      1.0  0.41005  0.10721  0.92046  1.0000 -0.1905785102
C   C213      1.0  0.06325  0.26041  0.42046  1.0000 -0.1905785102
C   C214      1.0  0.89279  0.81325  0.30284  1.0000 -0.1905785102
C   C215      1.0  0.51041  0.58995  0.69716  1.0000 -0.1905785102
C   C216      1.0  0.83995  0.64279  0.57954  1.0000 -0.1905785102
C   C217      1.0  0.22540  0.51775  0.03855  1.0000 -0.1003717437
C   C218      1.0  0.43685  0.97540  0.20765  1.0000 -0.1003717437
C   C219      1.0  0.76775  0.22920  0.79235  1.0000 -0.1003717437
C   C220      1.0  0.47920  0.18685  0.96145  1.0000 -0.1003717437
C   C221      1.0  0.02460  0.23225  0.46145  1.0000 -0.1003717437
C   C222      1.0  0.81315  0.77460  0.29235  1.0000 -0.1003717437
C   C223      1.0  0.48225  0.52080  0.70765  1.0000 -0.1003717437
C   C224      1.0  0.77080  0.56315  0.53855  1.0000 -0.1003717437
C   C225      1.0  0.20400  0.53990  0.00970  1.0000 -0.3984438465
C   C226      1.0  0.44430  0.95400  0.16410  1.0000 -0.3984438465
C   C227      1.0  0.78990  0.28020  0.83590  1.0000 -0.3984438465
C   C228      1.0  0.53020  0.19430  0.99030  1.0000 -0.3984438465
C   C229      1.0  0.04600  0.21010  0.49030  1.0000 -0.3984438465
C   C230      1.0  0.80570  0.79600  0.33590  1.0000 -0.3984438465
C   C231      1.0  0.46010  0.46980  0.66410  1.0000 -0.3984438465
C   C232      1.0  0.71980  0.55570  0.50970  1.0000 -0.3984438465
C   C233      1.0  0.41625  0.71382  0.16787  1.0000 0.0995476925
C   C234      1.0  0.49838  0.16625  0.20243  1.0000 0.0995476925
C   C235      1.0  0.96382  0.29595  0.79757  1.0000 0.0904135552
C   C236      1.0  0.54595  0.24838  0.83213  1.0000 0.0995476925
C   C237      1.0  0.83375  0.03618  0.33213  1.0000 0.0995476925
C   C238      1.0  0.75162  0.58375  0.29757  1.0000 0.0995476925
C   C239      1.0  0.28618  0.45405  0.70243  1.0000 0.0995476925
C   C240      1.0  0.70405  0.50162  0.66787  1.0000 0.0995476925
C   C241      1.0  0.43580  0.73390  0.12670  1.0000 -0.2185946155
C   C242      1.0  0.55910  0.18580  0.20190  1.0000 -0.2185946155
C   C243      1.0  0.98390  0.35720  0.79810  1.0000 -0.2185946155
C   C244      1.0  0.60720  0.30910  0.87330  1.0000 -0.2185946155
C   C245      1.0  0.81420  0.01610  0.37330  1.0000 -0.2185946155
C   C246      1.0  0.69090  0.56420  0.29810  1.0000 -0.2185946155
C   C247      1.0  0.26610  0.39280  0.70190  1.0000 -0.2185946155
C   C248      1.0  0.64280  0.44090  0.62670  1.0000 -0.2185946155
C   C249      1.0  0.41892  0.75930  0.10522  1.0000 0.1600521538
C   C250      1.0  0.56370  0.16892  0.15962  1.0000 0.1600521538
C   C251      1.0  0.00930  0.40408  0.84038  1.0000 0.1600521538
C   C252      1.0  0.65408  0.31370  0.89478  1.0000 0.1600521538
C   C253      1.0  0.83108  0.99070  0.39478  1.0000 0.1600521538
C   C254      1.0  0.68630  0.58108  0.34038  1.0000 0.1600521538
C   C255      1.0  0.24070  0.34592  0.65962  1.0000 0.1600521538
C   C256      1.0  0.59592  0.43630  0.60522  1.0000 0.1600521538
C   C257      1.0  0.38621  0.76455  0.12756  1.0000 -0.2090377533
C   C258      1.0  0.50865  0.13621  0.12166  1.0000 -0.2090377533
C   C259      1.0  0.01455  0.38699  0.87834  1.0000 -0.2090377533
C   C260      1.0  0.63699  0.25865  0.87244  1.0000 -0.2090377533
C   C261      1.0  0.86379  0.98545  0.37244  1.0000 -0.2090377533
C   C262      1.0  0.74135  0.61379  0.37834  1.0000 -0.2090377533
C   C263      1.0  0.23545  0.36301  0.62166  1.0000 -0.2090377533
C   C264      1.0  0.61301  0.49135  0.62756  1.0000 -0.2090377533
C   C265      1.0  0.36690  0.74309  0.16819  1.0000 0.0585304704
C   C266      1.0  0.44871  0.11690  0.12381  1.0000 0.0585304704
C   C267      1.0  0.99309  0.32490  0.87619  1.0000 0.0585304704
C   C268      1.0  0.57490  0.19871  0.83181  1.0000 0.0585304704
C   C269      1.0  0.88310  0.00691  0.33181  1.0000 0.0585304704
C   C270      1.0  0.80129  0.63310  0.37619  1.0000 0.0585304704
C   C271      1.0  0.25691  0.42510  0.62381  1.0000 0.0585304704
C   C272      1.0  0.67510  0.55129  0.66819  1.0000 0.0585304704
C   C273      1.0  0.44249  0.78380  0.06089  1.0000 -0.2295400384
C   C274      1.0  0.63160  0.19249  0.15869  1.0000 -0.2295400384
C   C275      1.0  0.03380  0.47291  0.84131  1.0000 -0.2295400384
C   C276      1.0  0.72291  0.38160  0.93911  1.0000 -0.2295400384
C   C277      1.0  0.80751  0.96620  0.43911  1.0000 -0.2295400384
C   C278      1.0  0.61840  0.55751  0.34131  1.0000 -0.2295400384
C   C279      1.0  0.21620  0.27709  0.65869  1.0000 -0.2295400384
C   C280      1.0  0.52709  0.36840  0.56089  1.0000 -0.2295400384
C   C281      1.0  0.25418  0.35425  0.43183  1.0000 0.2998807612
C   C282      1.0  0.07235  0.00418  0.39993  1.0000 0.2998807612
C   C283      1.0  0.60425  0.67242  0.60007  1.0000 0.2998807612
C   C284      1.0  0.92242  0.82235  0.56817  1.0000 0.2998807612
C   C285      1.0  0.99582  0.39575  0.06817  1.0000 0.2998807612
C   C286      1.0  0.17765  0.74582  0.10007  1.0000 0.2998807612
C   C287      1.0  0.64575  0.07758  0.89993  1.0000 0.2998807612
C   C288      1.0  0.32758  0.92765  0.93183  1.0000 0.2998807612
C   C289      1.0  0.25027  0.32682  0.46929  1.0000 -0.2090377533
C   C290      1.0  0.03098  0.00027  0.42345  1.0000 -0.2090377533
C   C291      1.0  0.57682  0.60753  0.57655  1.0000 -0.2090377533
C   C292      1.0  0.85753  0.78098  0.53071  1.0000 -0.2090377533
C   C293      1.0  0.99973  0.42318  0.03071  1.0000 -0.2090377533
C   C294      1.0  0.21902  0.74973  0.07655  1.0000 -0.2090377533
C   C295      1.0  0.67318  0.14247  0.92345  1.0000 -0.2090377533
C   C296      1.0  0.39247  0.96902  0.96929  1.0000 -0.2090377533
C   C297      1.0  0.29788  0.37955  0.51363  1.0000 -0.0775947166
C   C298      1.0  0.03425  0.04788  0.41833  1.0000 -0.0775947166
C   C299      1.0  0.62955  0.61592  0.58167  1.0000 -0.0775947166
C   C300      1.0  0.86592  0.78425  0.48637  1.0000 -0.0775947166
C   C301      1.0  0.95212  0.37045  0.98637  1.0000 -0.0775947166
C   C302      1.0  0.21575  0.70212  0.08167  1.0000 -0.0775947166
C   C303      1.0  0.62045  0.13408  0.91833  1.0000 -0.0775947166
C   C304      1.0  0.38408  0.96575  0.01363  1.0000 -0.0775947166
C   C305      1.0  0.34940  0.46016  0.52256  1.0000 -0.1325296969
C   C306      1.0  0.07684  0.09940  0.38924  1.0000 -0.1325296969
C   C307      1.0  0.71016  0.68760  0.61076  1.0000 -0.1325296969
C   C308      1.0  0.93760  0.82684  0.47744  1.0000 -0.1325296969
C   C309      1.0  0.90060  0.28984  0.97744  1.0000 -0.1325296969
C   C310      1.0  0.17316  0.65060  0.11076  1.0000 -0.1325296969
C   C311      1.0  0.53984  0.06240  0.88924  1.0000 -0.1325296969
C   C312      1.0  0.31240  0.92316  0.02256  1.0000 -0.1325296969
C   C313      1.0  0.35414  0.48804  0.48698  1.0000 -0.085302169
C   C314      1.0  0.11716  0.10414  0.36610  1.0000 -0.085302169
C   C315      1.0  0.73804  0.75106  0.63390  1.0000 -0.085302169
C   C316      1.0  0.00106  0.86716  0.51302  1.0000 -0.085302169
C   C317      1.0  0.89586  0.26196  0.01302  1.0000 -0.085302169
C   C318      1.0  0.13284  0.64586  0.13390  1.0000 -0.085302169
C   C319      1.0  0.51196  0.99894  0.86610  1.0000 -0.085302169
C   C320      1.0  0.24894  0.88284  0.98698  1.0000 -0.085302169
C   C321      1.0  0.30837  0.43725  0.44122  1.0000 -0.1584001151
C   C322      1.0  0.11715  0.05837  0.37112  1.0000 -0.1584001151
C   C323      1.0  0.68725  0.74603  0.62888  1.0000 -0.1584001151
C   C324      1.0  0.99603  0.86715  0.55878  1.0000 -0.1584001151
C   C325      1.0  0.94163  0.31275  0.05878  1.0000 -0.1584001151
C   C326      1.0  0.13285  0.69163  0.12888  1.0000 -0.1584001151
C   C327      1.0  0.56275  0.00397  0.87112  1.0000 -0.1584001151
C   C328      1.0  0.25397  0.88285  0.94122  1.0000 -0.1584001151
C   C329      1.0  0.31831  0.47272  0.40483  1.0000 0.4225146952
C   C330      1.0  0.16348  0.06831  0.34559  1.0000 0.4225146952
C   C331      1.0  0.72272  0.81789  0.65441  1.0000 0.4225146952
C   C332      1.0  0.06789  0.91348  0.59517  1.0000 0.4225146952
C   C333      1.0  0.93169  0.27728  0.09517  1.0000 0.4225146952
C   C334      1.0  0.08652  0.68169  0.15441  1.0000 0.4225146952
C   C335      1.0  0.52728  0.93211  0.84559  1.0000 0.4225146952
C   C336      1.0  0.18211  0.83652  0.90483  1.0000 0.4225146952
C   C337      1.0  0.26677  0.42594  0.28711  1.0000 0.4488078239
C   C338      1.0  0.22966  0.01677  0.34083  1.0000 0.4488078239
C   C339      1.0  0.67594  0.88883  0.65917  1.0000 0.4488078239
C   C340      1.0  0.13883  0.97966  0.71289  1.0000 0.4488078239
C   C341      1.0  0.98323  0.32406  0.21289  1.0000 0.4488078239
C   C342      1.0  0.02034  0.73323  0.15917  1.0000 0.4488078239
C   C343      1.0  0.57406  0.86117  0.84083  1.0000 0.4488078239
C   C344      1.0  0.11117  0.77034  0.78711  1.0000 0.4488078239
C   C345      1.0  0.28341  0.46071  0.24712  1.0000 -0.3182484953
C   C346      1.0  0.28629  0.03341  0.32270  1.0000 -0.3182484953
C   C347      1.0  0.71071  0.96359  0.67730  1.0000 -0.3182484953
C   C348      1.0  0.21359  0.03629  0.75288  1.0000 -0.3182484953
C   C349      1.0  0.96659  0.28929  0.25288  1.0000 -0.3182484953
C   C350      1.0  0.96371  0.71659  0.17730  1.0000 -0.3182484953
C   C351      1.0  0.53929  0.78641  0.82270  1.0000 -0.3182484953
C   C352      1.0  0.03641  0.71371  0.74712  1.0000 -0.3182484953
C   C353      1.0  0.35170  0.49120  0.22830  1.0000 -0.1130622993
C   C354      1.0  0.37340  0.10170  0.36050  1.0000 -0.1130622993
C   C355      1.0  0.74120  0.01290  0.63950  1.0000 -0.1130622993
C   C356      1.0  0.26290  0.12340  0.77170  1.0000 -0.1130622993
C   C357      1.0  0.89830  0.25880  0.27170  1.0000 -0.1130622993
C   C358      1.0  0.87660  0.64830  0.13950  1.0000 -0.1130622993
C   C359      1.0  0.50880  0.73710  0.86050  1.0000 -0.1130622993
C   C360      1.0  0.98710  0.62660  0.72830  1.0000 -0.1130622993
C   C361      1.0  0.37860  0.53690  0.18750  1.0000 -0.1820768998
C   C362      1.0  0.44110  0.12860  0.34170  1.0000 -0.1820768998
C   C363      1.0  0.78690  0.09940  0.65830  1.0000 -0.1820768998
C   C364      1.0  0.34940  0.19110  0.81250  1.0000 -0.1820768998
C   C365      1.0  0.87140  0.21310  0.31250  1.0000 -0.1820768998
C   C366      1.0  0.80890  0.62140  0.15830  1.0000 -0.1820768998
C   C367      1.0  0.46310  0.65060  0.84170  1.0000 -0.1820768998
C   C368      1.0  0.90060  0.55890  0.68750  1.0000 -0.1820768998
C   C369      1.0  0.44260  0.57000  0.17780  1.0000 -0.1377825984
C   C370      1.0  0.51480  0.19260  0.37260  1.0000 -0.1377825984
C   C371      1.0  0.82000  0.14220  0.62740  1.0000 -0.1377825984
C   C372      1.0  0.39220  0.26480  0.82220  1.0000 -0.1377825984
C   C373      1.0  0.80740  0.18000  0.32220  1.0000 -0.1377825984
C   C374      1.0  0.73520  0.55740  0.12740  1.0000 -0.1377825984
C   C375      1.0  0.43000  0.60780  0.87260  1.0000 -0.1377825984
C   C376      1.0  0.85780  0.48520  0.67780  1.0000 -0.1377825984
C   C377      1.0  0.44750  0.60700  0.13690  1.0000 -0.3902732343
C   C378      1.0  0.56060  0.19750  0.34050  1.0000 -0.3902732343
C   C379      1.0  0.85700  0.22010  0.65950  1.0000 -0.3902732343
C   C380      1.0  0.47010  0.31060  0.86310  1.0000 -0.3902732343
C   C381      1.0  0.80250  0.14300  0.36310  1.0000 -0.3902732343
C   C382      1.0  0.68940  0.55250  0.15950  1.0000 -0.3902732343
C   C383      1.0  0.39300  0.52990  0.84050  1.0000 -0.3902732343
C   C384      1.0  0.77990  0.43940  0.63690  1.0000 -0.3902732343
C   C385      1.0  0.54811  0.88111  0.94582  1.0000 0.0700925547
C   C386      1.0  0.85229  0.29811  0.16700  1.0000 0.0700925547
C   C387      1.0  0.13111  0.68529  0.83300  1.0000 0.0700925547
C   C388      1.0  0.93529  0.60229  0.05418  1.0000 0.0700925547
C   C389      1.0  0.70189  0.86889  0.55418  1.0000 0.0700925547
C   C390      1.0  0.39771  0.45189  0.33300  1.0000 0.0700925547
C   C391      1.0  0.11889  0.06471  0.66700  1.0000 0.0700925547
C   C392      1.0  0.31471  0.14771  0.44582  1.0000 0.0700925547
C   C393      1.0  0.51276  0.84495  0.98091  1.0000 -0.2090377533
C   C394      1.0  0.78185  0.26276  0.16781  1.0000 -0.2090377533
C   C395      1.0  0.09495  0.61404  0.83219  1.0000 -0.2090377533
C   C396      1.0  0.86404  0.53185  0.01909  1.0000 -0.2090377533
C   C397      1.0  0.73724  0.90505  0.51909  1.0000 -0.2090377533
C   C398      1.0  0.46815  0.48724  0.33219  1.0000 -0.2090377533
C   C399      1.0  0.15505  0.13596  0.66781  1.0000 -0.2090377533
C   C400      1.0  0.38596  0.21815  0.48091  1.0000 -0.2090377533
C   C401      1.0  0.56003  0.89471  0.02654  1.0000 0.1600521538
C   C402      1.0  0.78349  0.31003  0.16532  1.0000 0.1600521538
C   C403      1.0  0.14471  0.61817  0.83468  1.0000 0.1600521538
C   C404      1.0  0.86817  0.53349  0.97346  1.0000 0.1600521538
C   C405      1.0  0.68997  0.85529  0.47346  1.0000 0.1600521538
C   C406      1.0  0.46651  0.43997  0.33468  1.0000 0.1600521538
C   C407      1.0  0.10529  0.13183  0.66532  1.0000 0.1600521538
C   C408      1.0  0.38183  0.21651  0.52654  1.0000 0.1600521538
C   C409      1.0  0.63979  0.97831  0.03350  1.0000 -0.1905785102
C   C410      1.0  0.85629  0.38979  0.16148  1.0000 -0.1905785102
C   C411      1.0  0.22831  0.69481  0.83852  1.0000 -0.1905785102
C   C412      1.0  0.94481  0.60629  0.96650  1.0000 -0.1905785102
C   C413      1.0  0.61021  0.77169  0.46650  1.0000 -0.1905785102
C   C414      1.0  0.39371  0.36021  0.33852  1.0000 -0.1905785102
C   C415      1.0  0.02169  0.05519  0.66148  1.0000 -0.1905785102
C   C416      1.0  0.30519  0.14371  0.53350  1.0000 -0.1905785102
C   C417      1.0  0.67002  0.00913  0.99635  1.0000 0.0995476925
C   C418      1.0  0.92367  0.42002  0.16089  1.0000 0.0995476925
C   C419      1.0  0.25913  0.76278  0.83911  1.0000 0.0995476925
C   C420      1.0  0.01278  0.67367  0.00365  1.0000 0.0995476925
C   C421      1.0  0.57998  0.74087  0.50365  1.0000 0.0995476925
C   C422      1.0  0.32633  0.32998  0.33911  1.0000 0.0995476925
C   C423      1.0  0.99087  0.98722  0.66089  1.0000 0.0995476925
C   C424      1.0  0.23722  0.07633  0.49635  1.0000 0.0995476925
C   C425      1.0  0.52620  0.85950  0.06730  1.0000 -0.2185946155
C   C426      1.0  0.70890  0.27620  0.16670  1.0000 -0.2185946155
C   C427      1.0  0.10950  0.54220  0.83330  1.0000 -0.2185946155
C   C428      1.0  0.79220  0.45890  0.93270  1.0000 -0.2185946155
C   C429      1.0  0.72380  0.89050  0.43270  1.0000 -0.2185946155
C   C430      1.0  0.54110  0.47380  0.33333  1.0000 -0.2185946155
C   C431      1.0  0.14050  0.20780  0.66667  1.0000 -0.2185946155
C   C432      1.0  0.45780  0.29110  0.56730  1.0000 -0.2185946155
N   N1        1.0  0.38903  0.64165  0.32068  1.0000 -0.3182484953
N   N2        1.0  0.31835  0.13903  0.24738  1.0000 -0.3182484953
N   N3        1.0  0.89165  0.07097  0.75262  1.0000 -0.3182484953
N   N4        1.0  0.32097  0.06835  0.67932  1.0000 -0.3182484953
N   N5        1.0  0.86097  0.10835  0.17932  1.0000 -0.3182484953
N   N6        1.0  0.93165  0.61097  0.25262  1.0000 -0.3182484953
N   N7        1.0  0.35835  0.67903  0.74738  1.0000 -0.3182484953
N   N8        1.0  0.92903  0.68165  0.82068  1.0000 -0.3182484953
N   N9        1.0  0.32260  0.61659  0.31039  1.0000 -0.3012249165
N   N10       1.0  0.26221  0.07260  0.20601  1.0000 -0.2940344544
N   N11       1.0  0.86659  0.05620  0.79399  1.0000 -0.2940344544
N   N12       1.0  0.30620  0.01221  0.68961  1.0000 -0.2940344544
N   N13       1.0  0.92740  0.13341  0.18961  1.0000 -0.2940344544
N   N14       1.0  0.98779  0.67740  0.29399  1.0000 -0.2940344544
N   N15       1.0  0.38341  0.69380  0.70601  1.0000 -0.2940344544
N   N16       1.0  0.94380  0.73779  0.81039  1.0000 -0.2940344544
N   N17       1.0  0.48214  0.77396  0.48890  1.0000 0.0400171518
N   N18       1.0  0.24324  0.23214  0.20818  1.0000 0.0400171518
N   N19       1.0  0.02396  0.03506  0.79182  1.0000 0.0400171518
N   N20       1.0  0.28506  0.99324  0.51110  1.0000 0.0400171518
N   N21       1.0  0.76786  0.97604  0.01110  1.0000 0.0400171518
N   N22       1.0  0.00676  0.51786  0.29182  1.0000 0.0400171518
N   N23       1.0  0.22604  0.71494  0.70818  1.0000 0.0400171518
N   N24       1.0  0.96494  0.75676  0.98890  1.0000 0.0400171518
N   N25       1.0  0.22187  0.58924  0.21991  1.0000 -0.3012249165
N   N26       1.0  0.25196  0.97187  0.13263  1.0000 -0.3012249165
N   N27       1.0  0.83924  0.11933  0.86737  1.0000 -0.3012249165
N   N28       1.0  0.36933  0.00196  0.78009  1.0000 -0.3012249165
N   N29       1.0  0.02813  0.16076  0.28009  1.0000 -0.3012249165
N   N30       1.0  0.99804  0.77813  0.36737  1.0000 -0.3012249165
N   N31       1.0  0.41076  0.63067  0.63263  1.0000 -0.3012249165
N   N32       1.0  0.88067  0.74804  0.71991  1.0000 -0.3012249165
N   N33       1.0  0.16833  0.51291  0.18764  1.0000 -0.3012249165
N   N34       1.0  0.23069  0.91833  0.15542  1.0000 -0.3012249165
N   N35       1.0  0.76291  0.07527  0.84458  1.0000 -0.3012249165
N   N36       1.0  0.32527  0.98069  0.81236  1.0000 -0.3012249165
N   N37       1.0  0.08167  0.23709  0.31236  1.0000 -0.3012249165
N   N38       1.0  0.01931  0.83167  0.34458  1.0000 -0.3012249165
N   N39       1.0  0.48709  0.67473  0.65542  1.0000 -0.3012249165
N   N40       1.0  0.92473  0.76931  0.68764  1.0000 -0.3012249165
N   N41       1.0  0.38270  0.71793  0.18823  1.0000 -0.1905785102
N   N42       1.0  0.44447  0.13270  0.16477  1.0000 -0.1905785102
N   N43       1.0  0.96793  0.27970  0.83523  1.0000 -0.1905785102
N   N44       1.0  0.52970  0.19447  0.81177  1.0000 -0.1905785102
N   N45       1.0  0.86730  0.03207  0.31177  1.0000 -0.1905785102
N   N46       1.0  0.80553  0.61730  0.33523  1.0000 -0.1905785102
N   N47       1.0  0.28207  0.47030  0.66477  1.0000 -0.1905785102
N   N48       1.0  0.72030  0.55553  0.68823  1.0000 -0.1905785102
N   N49       1.0  0.27952  0.42835  0.36127  1.0000 -0.3182484953
N   N50       1.0  0.16825  0.02952  0.35117  1.0000 -0.3182484953
N   N51       1.0  0.67835  0.81708  0.64883  1.0000 -0.3182484953
N   N52       1.0  0.06708  0.91825  0.63873  1.0000 -0.3182484953
N   N53       1.0  0.97048  0.32165  0.13873  1.0000 -0.3182484953
N   N54       1.0  0.08175  0.72048  0.14883  1.0000 -0.3182484953
N   N55       1.0  0.57165  0.93292  0.85117  1.0000 -0.3182484953
N   N56       1.0  0.18292  0.83175  0.86127  1.0000 -0.3182484953
N   N57       1.0  0.29773  0.47025  0.32878  1.0000 -0.3261236367
N   N58       1.0  0.21895  0.04773  0.32748  1.0000 -0.3261236367
N   N59       1.0  0.72025  0.89147  0.67252  1.0000 -0.3261236367
N   N60       1.0  0.14147  0.96895  0.67122  1.0000 -0.3261236367
N   N61       1.0  0.95227  0.27975  0.17122  1.0000 -0.3261236367
N   N62       1.0  0.03105  0.70227  0.17252  1.0000 -0.3261236367
N   N63       1.0  0.52975  0.85853  0.82748  1.0000 -0.3261236367
N   N64       1.0  0.10853  0.78105  0.82878  1.0000 -0.3261236367
N   N65       1.0  0.62669  0.96242  0.95291  1.0000 -0.2185946155
N   N66       1.0  0.92378  0.37669  0.16427  1.0000 -0.2185946155
N   N67       1.0  0.21242  0.75951  0.83573  1.0000 -0.2185946155
N   N68       1.0  0.00951  0.67378  0.04709  1.0000 -0.2185946155
N   N69       1.0  0.62331  0.78758  0.54709  1.0000 -0.2185946155
N   N70       1.0  0.32622  0.37331  0.33573  1.0000 -0.2185946155
N   N71       1.0  0.03758  0.99049  0.66427  1.0000 -0.2185946155
N   N72       1.0  0.24049  0.07622  0.45291  1.0000 -0.2185946155
O   O1        1.0  0.47668  0.64570  0.35898  1.0000 -0.4820858019
O   O2        1.0  0.36770  0.22668  0.33098  1.0000 -0.4820858019
O   O3        1.0  0.89570  0.03672  0.66902  1.0000 -0.4857025561
O   O4        1.0  0.28672  0.11770  0.64102  1.0000 -0.4820858019
O   O5        1.0  0.77332  0.10430  0.14102  1.0000 -0.4820858019
O   O6        1.0  0.88230  0.52332  0.16902  1.0000 -0.4820858019
O   O7        1.0  0.35430  0.71328  0.83098  1.0000 -0.4820858019
O   O8        1.0  0.96328  0.63230  0.85898  1.0000 -0.4820858019
O   O9        1.0  0.44153  0.72163  0.27110  1.0000 -0.4483932131
O   O10       1.0  0.42043  0.19153  0.21990  1.0000 -0.4483932131
O   O11       1.0  0.97163  0.20053  0.78010  1.0000 -0.4483932131
O   O12       1.0  0.45053  0.17043  0.72890  1.0000 -0.4483932131
O   O13       1.0  0.80847  0.02837  0.22890  1.0000 -0.4483932131
O   O14       1.0  0.82957  0.55847  0.28010  1.0000 -0.4483932131
O   O15       1.0  0.27837  0.54947  0.71990  1.0000 -0.4483932131
O   O16       1.0  0.79947  0.57957  0.77110  1.0000 -0.4483932131
O   O17       1.0  0.28710  0.55388  0.36794  1.0000 -0.5125770462
O   O18       1.0  0.16916  0.03710  0.23322  1.0000 -0.5125770462
O   O19       1.0  0.80388  0.93594  0.76678  1.0000 -0.5125770462
O   O20       1.0  0.18594  0.91916  0.63206  1.0000 -0.5125770462
O   O21       1.0  0.96290  0.19612  0.13206  1.0000 -0.5125770462
O   O22       1.0  0.08084  0.71290  0.26678  1.0000 -0.5125770462
O   O23       1.0  0.44612  0.81406  0.73322  1.0000 -0.5125770462
O   O24       1.0  0.06406  0.83084  0.86794  1.0000 -0.5125770462
O   O25       1.0  0.46274  0.71123  0.42417  1.0000 -0.3984438465
O   O26       1.0  0.28857  0.21274  0.25151  1.0000 -0.3984438465
O   O27       1.0  0.96123  0.03706  0.74849  1.0000 -0.3984438465
O   O28       1.0  0.28706  0.03857  0.57583  1.0000 -0.3984438465
O   O29       1.0  0.78726  0.03877  0.07583  1.0000 -0.3984438465
O   O30       1.0  0.96143  0.53726  0.24849  1.0000 -0.3984438465
O   O31       1.0  0.28877  0.71294  0.75151  1.0000 -0.3984438465
O   O32       1.0  0.96294  0.71143  0.92417  1.0000 -0.3984438465
O   O33       1.0  0.36398  0.74115  0.28173  1.0000 -0.4483932131
O   O34       1.0  0.33225  0.11398  0.12283  1.0000 -0.4483932131
O   O35       1.0  0.99115  0.20942  0.87717  1.0000 -0.4483932131
O   O36       1.0  0.45942  0.08225  0.71827  1.0000 -0.4483932131
O   O37       1.0  0.88602  0.00885  0.21827  1.0000 -0.4483932131
O   O38       1.0  0.91775  0.63602  0.37717  1.0000 -0.4483932131
O   O39       1.0  0.25885  0.54058  0.62283  1.0000 -0.4483932131
O   O40       1.0  0.79058  0.66775  0.78173  1.0000 -0.4483932131
O   O41       1.0  0.11052  0.54224  0.20224  1.0000 -0.4596533072
O   O42       1.0  0.15828  0.86052  0.06828  1.0000 -0.4596533072
O   O43       1.0  0.79224  0.09000  0.93172  1.0000 -0.4596533072
O   O44       1.0  0.34000  0.90828  0.79776  1.0000 -0.4596533072
O   O45       1.0  0.13948  0.20776  0.29776  1.0000 -0.4596533072
O   O46       1.0  0.09172  0.88948  0.43172  1.0000 -0.4596533072
O   O47       1.0  0.45776  0.66000  0.56828  1.0000 -0.4596533072
O   O48       1.0  0.91000  0.84172  0.70224  1.0000 -0.4596533072
O   O49       1.0  0.28268  0.56562  0.20972  1.0000 -0.4704189193
O   O50       1.0  0.32296  0.03268  0.21706  1.0000 -0.4704189193
O   O51       1.0  0.81562  0.10590  0.78294  1.0000 -0.4704189193
O   O52       1.0  0.35590  0.07296  0.79028  1.0000 -0.4704189193
O   O53       1.0  0.96732  0.18438  0.29028  1.0000 -0.4704189193
O   O54       1.0  0.92704  0.71732  0.28294  1.0000 -0.4704189193
O   O55       1.0  0.43438  0.64410  0.71706  1.0000 -0.4704189193
O   O56       1.0  0.89410  0.67704  0.70972  1.0000 -0.4704189193
O   O57       1.0  0.20707  0.29957  0.39088  1.0000 -0.4704189193
O   O58       1.0  0.06619  0.95707  0.40750  1.0000 -0.4704189193
O   O59       1.0  0.54957  0.65869  0.59250  1.0000 -0.4704189193
O   O60       1.0  0.90869  0.81619  0.60912  1.0000 -0.4704189193
O   O61       1.0  0.04293  0.45043  0.10912  1.0000 -0.4704189193
O   O62       1.0  0.18381  0.79293  0.09250  1.0000 -0.4704189193
O   O63       1.0  0.70043  0.09131  0.90750  1.0000 -0.4704189193
O   O64       1.0  0.34131  0.93381  0.89088  1.0000 -0.4704189193
O   O65       1.0  0.36805  0.54891  0.41604  1.0000 -0.4704189193
O   O66       1.0  0.20201  0.11805  0.31914  1.0000 -0.4704189193
O   O67       1.0  0.79891  0.88287  0.68086  1.0000 -0.4704189193
O   O68       1.0  0.13287  0.95201  0.58396  1.0000 -0.4704189193
O   O69       1.0  0.88195  0.20109  0.08396  1.0000 -0.4704189193
O   O70       1.0  0.04799  0.63195  0.18086  1.0000 -0.4704189193
O   O71       1.0  0.45109  0.86713  0.81914  1.0000 -0.4704189193
O   O72       1.0  0.11713  0.79799  0.91604  1.0000 -0.4704189193
O   O73       1.0  0.22599  0.35428  0.27823  1.0000 -0.4820858019
O   O74       1.0  0.19776  0.97599  0.37171  1.0000 -0.4820858019
O   O75       1.0  0.60428  0.82605  0.62829  1.0000 -0.4820858019
O   O76       1.0  0.07605  0.94776  0.72177  1.0000 -0.4820858019
O   O77       1.0  0.02401  0.39572  0.22177  1.0000 -0.4820858019
O   O78       1.0  0.05224  0.77401  0.12829  1.0000 -0.4820858019
O   O79       1.0  0.64572  0.92395  0.87171  1.0000 -0.4820858019
O   O80       1.0  0.17395  0.80224  0.77823  1.0000 -0.4820858019
