# DDEC6 charges by PACMAN v1.1 (https://github.com/mtap-research/PACMAN-charge/)
data_2005[Nd][pcu]3[FSR]1
_chemical_formula_sum              "Nd12 H168 C192 N72 O96"
_cell_length_a       23.2658
_cell_length_b       23.2658
_cell_length_c       23.2658
_cell_angle_alpha    109.471
_cell_angle_beta     109.471
_cell_angle_gamma    109.471

_symmetry_space_group_name_H-M    "P 1"
_symmetry_Int_Tables_number       1

loop_
  _symmetry_equiv_pos_as_xyz
  'x, y, z'

loop_
  _atom_site_type_symbol
  _atom_site_label
  _atom_site_symmetry_multiplicity
  _atom_site_fract_x
  _atom_site_fract_y
  _atom_site_fract_z
  _atom_site_occupancy
  _atom_site_charge
Nd  Nd1       1.0  0.50000  0.00000  0.33050  1.0000 1.9953249921
Nd  Nd2       1.0  0.33050  0.50000  0.00000  1.0000 1.9953249921
Nd  Nd3       1.0  0.00000  0.33050  0.50000  1.0000 1.9953249921
Nd  Nd4       1.0  0.16950  0.16950  0.16950  1.0000 1.9953249921
Nd  Nd5       1.0  0.50000  0.00000  0.66950  1.0000 1.9953249921
Nd  Nd6       1.0  0.66950  0.50000  0.00000  1.0000 1.9953249921
Nd  Nd7       1.0  0.00000  0.66950  0.50000  1.0000 1.9953249921
Nd  Nd8       1.0  0.83050  0.83050  0.83050  1.0000 1.9953249921
Nd  Nd9       1.0  0.50000  0.00000  0.50000  1.0000 1.9741426935
Nd  Nd10      1.0  0.50000  0.50000  0.00000  1.0000 1.9756788244
Nd  Nd11      1.0  0.00000  0.50000  0.50000  1.0000 1.9741426935
Nd  Nd12      1.0  0.00000  0.00000  0.00000  1.0000 1.9741426935
H   H1        1.0  0.69080  0.04970  0.43230  1.0000 0.1347577862
H   H2        1.0  0.43230  0.69080  0.04970  1.0000 0.1347577862
H   H3        1.0  0.04970  0.43230  0.69080  1.0000 0.1347577862
H   H4        1.0  0.11740  0.25850  0.06770  1.0000 0.1347577862
H   H5        1.0  0.38260  0.45030  0.14110  1.0000 0.1347577862
H   H6        1.0  0.80920  0.24150  0.35890  1.0000 0.1347577862
H   H7        1.0  0.06770  0.11740  0.25850  1.0000 0.1347577862
H   H8        1.0  0.14110  0.38260  0.45030  1.0000 0.1347577862
H   H9        1.0  0.35890  0.80920  0.24150  1.0000 0.1347577862
H   H10       1.0  0.25850  0.06770  0.11740  1.0000 0.1347577862
H   H11       1.0  0.45030  0.14110  0.38260  1.0000 0.1347577862
H   H12       1.0  0.24150  0.35890  0.80920  1.0000 0.1347577862
H   H13       1.0  0.30920  0.95030  0.56770  1.0000 0.1347577862
H   H14       1.0  0.56770  0.30920  0.95030  1.0000 0.1347577862
H   H15       1.0  0.95030  0.56770  0.30920  1.0000 0.1347577862
H   H16       1.0  0.88260  0.74150  0.93230  1.0000 0.1347577862
H   H17       1.0  0.61740  0.54970  0.85890  1.0000 0.1347577862
H   H18       1.0  0.19080  0.75850  0.64110  1.0000 0.1347577862
H   H19       1.0  0.93230  0.88260  0.74150  1.0000 0.1347577862
H   H20       1.0  0.85890  0.61740  0.54970  1.0000 0.1347577862
H   H21       1.0  0.64110  0.19080  0.75850  1.0000 0.1347577862
H   H22       1.0  0.74150  0.93230  0.88260  1.0000 0.1347577862
H   H23       1.0  0.54970  0.85890  0.61740  1.0000 0.1347577862
H   H24       1.0  0.75850  0.64110  0.19080  1.0000 0.1347577862
H   H25       1.0  0.88840  0.33160  0.62420  1.0000 0.3127301957
H   H26       1.0  0.62420  0.88840  0.33160  1.0000 0.3127301957
H   H27       1.0  0.33160  0.62420  0.88840  1.0000 0.3127301957
H   H28       1.0  0.20740  0.26420  0.87580  1.0000 0.3127301957
H   H29       1.0  0.29260  0.16840  0.05680  1.0000 0.3127301957
H   H30       1.0  0.61160  0.23580  0.44320  1.0000 0.3127301957
H   H31       1.0  0.87580  0.20740  0.26420  1.0000 0.3127301957
H   H32       1.0  0.05680  0.29260  0.16840  1.0000 0.3127301957
H   H33       1.0  0.44320  0.61160  0.23580  1.0000 0.3127301957
H   H34       1.0  0.26420  0.87580  0.20740  1.0000 0.3127301957
H   H35       1.0  0.16840  0.05680  0.29260  1.0000 0.3127301957
H   H36       1.0  0.23580  0.44320  0.61160  1.0000 0.3127301957
H   H37       1.0  0.11160  0.66840  0.37580  1.0000 0.3127301957
H   H38       1.0  0.37580  0.11160  0.66840  1.0000 0.3127301957
H   H39       1.0  0.66840  0.37580  0.11160  1.0000 0.3127301957
H   H40       1.0  0.79260  0.73580  0.12420  1.0000 0.3127301957
H   H41       1.0  0.70740  0.83160  0.94320  1.0000 0.3127301957
H   H42       1.0  0.38840  0.76420  0.55680  1.0000 0.3127301957
H   H43       1.0  0.12420  0.79260  0.73580  1.0000 0.3127301957
H   H44       1.0  0.94320  0.70740  0.83160  1.0000 0.3127301957
H   H45       1.0  0.55680  0.38840  0.76420  1.0000 0.3127301957
H   H46       1.0  0.73580  0.12420  0.79260  1.0000 0.3127301957
H   H47       1.0  0.83160  0.94320  0.70740  1.0000 0.3127301957
H   H48       1.0  0.76420  0.55680  0.38840  1.0000 0.3127301957
H   H49       1.0  0.83160  0.32300  0.64240  1.0000 0.2698832252
H   H50       1.0  0.64240  0.83160  0.32300  1.0000 0.2698832252
H   H51       1.0  0.32300  0.64240  0.83160  1.0000 0.2698832252
H   H52       1.0  0.18060  0.18920  0.85760  1.0000 0.2698832252
H   H53       1.0  0.31940  0.17700  0.00860  1.0000 0.2698832252
H   H54       1.0  0.66840  0.31080  0.49140  1.0000 0.2698832252
H   H55       1.0  0.85760  0.18060  0.18920  1.0000 0.2698832252
H   H56       1.0  0.00860  0.31940  0.17700  1.0000 0.2698832252
H   H57       1.0  0.49140  0.66840  0.31080  1.0000 0.2698832252
H   H58       1.0  0.18920  0.85760  0.18060  1.0000 0.2698832252
H   H59       1.0  0.17700  0.00860  0.31940  1.0000 0.2698832252
H   H60       1.0  0.31080  0.49140  0.66840  1.0000 0.2698832252
H   H61       1.0  0.16840  0.67700  0.35760  1.0000 0.2698832252
H   H62       1.0  0.35760  0.16840  0.67700  1.0000 0.2698832252
H   H63       1.0  0.67700  0.35760  0.16840  1.0000 0.2698832252
H   H64       1.0  0.81940  0.81080  0.14240  1.0000 0.2698832252
H   H65       1.0  0.68060  0.82300  0.99140  1.0000 0.2698832252
H   H66       1.0  0.33160  0.68920  0.50860  1.0000 0.2698832252
H   H67       1.0  0.14240  0.81940  0.81080  1.0000 0.2698832252
H   H68       1.0  0.99140  0.68060  0.82300  1.0000 0.2698832252
H   H69       1.0  0.50860  0.33160  0.68920  1.0000 0.2698832252
H   H70       1.0  0.81080  0.14240  0.81940  1.0000 0.2698832252
H   H71       1.0  0.82300  0.99140  0.68060  1.0000 0.2698832252
H   H72       1.0  0.68920  0.50860  0.33160  1.0000 0.2698832252
H   H73       1.0  0.68660  0.22360  0.60060  1.0000 0.3127301957
H   H74       1.0  0.60060  0.68660  0.22360  1.0000 0.3127301957
H   H75       1.0  0.22360  0.60060  0.68660  1.0000 0.3127301957
H   H76       1.0  0.12300  0.08600  0.89940  1.0000 0.3127301957
H   H77       1.0  0.37700  0.27640  0.96300  1.0000 0.3127301957
H   H78       1.0  0.81340  0.41400  0.53700  1.0000 0.3127301957
H   H79       1.0  0.89940  0.12300  0.08600  1.0000 0.3127301957
H   H80       1.0  0.96300  0.37700  0.27640  1.0000 0.3127301957
H   H81       1.0  0.53700  0.81340  0.41400  1.0000 0.3127301957
H   H82       1.0  0.08600  0.89940  0.12300  1.0000 0.3127301957
H   H83       1.0  0.27640  0.96300  0.37700  1.0000 0.3127301957
H   H84       1.0  0.41400  0.53700  0.81340  1.0000 0.3127301957
H   H85       1.0  0.31340  0.77640  0.39940  1.0000 0.3127301957
H   H86       1.0  0.39940  0.31340  0.77640  1.0000 0.3127301957
H   H87       1.0  0.77640  0.39940  0.31340  1.0000 0.3127301957
H   H88       1.0  0.87700  0.91400  0.10060  1.0000 0.3127301957
H   H89       1.0  0.62300  0.72360  0.03700  1.0000 0.3127301957
H   H90       1.0  0.18660  0.58600  0.46300  1.0000 0.3127301957
H   H91       1.0  0.10060  0.87700  0.91400  1.0000 0.3127301957
H   H92       1.0  0.03700  0.62300  0.72360  1.0000 0.3127301957
H   H93       1.0  0.46300  0.18660  0.58600  1.0000 0.3127301957
H   H94       1.0  0.91400  0.10060  0.87700  1.0000 0.3127301957
H   H95       1.0  0.72360  0.03700  0.62300  1.0000 0.3127301957
H   H96       1.0  0.58600  0.46300  0.18660  1.0000 0.3127301957
H   H97       1.0  0.75720  0.28550  0.63270  1.0000 0.2698832252
H   H98       1.0  0.63270  0.75720  0.28550  1.0000 0.2698832252
H   H99       1.0  0.28550  0.63270  0.75720  1.0000 0.2698832252
H   H100      1.0  0.15280  0.12450  0.86730  1.0000 0.2698832252
H   H101      1.0  0.34720  0.21450  0.97170  1.0000 0.2698832252
H   H102      1.0  0.74280  0.37550  0.52830  1.0000 0.2698832252
H   H103      1.0  0.86730  0.15280  0.12450  1.0000 0.2698832252
H   H104      1.0  0.97170  0.34720  0.21450  1.0000 0.2698832252
H   H105      1.0  0.52830  0.74280  0.37550  1.0000 0.2698832252
H   H106      1.0  0.12450  0.86730  0.15280  1.0000 0.2698832252
H   H107      1.0  0.21450  0.97170  0.34720  1.0000 0.2698832252
H   H108      1.0  0.37550  0.52830  0.74280  1.0000 0.2698832252
H   H109      1.0  0.24280  0.71450  0.36730  1.0000 0.2698832252
H   H110      1.0  0.36730  0.24280  0.71450  1.0000 0.2698832252
H   H111      1.0  0.71450  0.36730  0.24280  1.0000 0.2698832252
H   H112      1.0  0.84720  0.87550  0.13270  1.0000 0.2698832252
H   H113      1.0  0.65280  0.78550  0.02830  1.0000 0.2698832252
H   H114      1.0  0.25720  0.62450  0.47170  1.0000 0.2698832252
H   H115      1.0  0.13270  0.84720  0.87550  1.0000 0.2698832252
H   H116      1.0  0.02830  0.65280  0.78550  1.0000 0.2698832252
H   H117      1.0  0.47170  0.25720  0.62450  1.0000 0.2698832252
H   H118      1.0  0.87550  0.13270  0.84720  1.0000 0.2698832252
H   H119      1.0  0.78550  0.02830  0.65280  1.0000 0.2698832252
H   H120      1.0  0.62450  0.47170  0.25720  1.0000 0.2698832252
H   H121      1.0  0.76650  0.05140  0.39450  1.0000 0.2904902702
H   H122      1.0  0.39450  0.76650  0.05140  1.0000 0.2904902702
H   H123      1.0  0.05140  0.39450  0.76650  1.0000 0.2904902702
H   H124      1.0  0.15690  0.37200  0.10550  1.0000 0.2904902702
H   H125      1.0  0.34310  0.44860  0.21510  1.0000 0.2904902702
H   H126      1.0  0.73350  0.12800  0.28490  1.0000 0.2904902702
H   H127      1.0  0.10550  0.15690  0.37200  1.0000 0.2904902702
H   H128      1.0  0.21510  0.34310  0.44860  1.0000 0.2904902702
H   H129      1.0  0.28490  0.73350  0.12800  1.0000 0.2904902702
H   H130      1.0  0.37200  0.10550  0.15690  1.0000 0.2904902702
H   H131      1.0  0.44860  0.21510  0.34310  1.0000 0.2904902702
H   H132      1.0  0.12800  0.28490  0.73350  1.0000 0.2904902702
H   H133      1.0  0.23350  0.94860  0.60550  1.0000 0.2904902702
H   H134      1.0  0.60550  0.23350  0.94860  1.0000 0.2904902702
H   H135      1.0  0.94860  0.60550  0.23350  1.0000 0.2904902702
H   H136      1.0  0.84310  0.62800  0.89450  1.0000 0.2904902702
H   H137      1.0  0.65690  0.55140  0.78490  1.0000 0.2904902702
H   H138      1.0  0.26650  0.87200  0.71510  1.0000 0.2904902702
H   H139      1.0  0.89450  0.84310  0.62800  1.0000 0.2904902702
H   H140      1.0  0.78490  0.65690  0.55140  1.0000 0.2904902702
H   H141      1.0  0.71510  0.26650  0.87200  1.0000 0.2904902702
H   H142      1.0  0.62800  0.89450  0.84310  1.0000 0.2904902702
H   H143      1.0  0.55140  0.78490  0.65690  1.0000 0.2904902702
H   H144      1.0  0.87200  0.71510  0.26650  1.0000 0.2904902702
H   H145      1.0  0.83330  0.11570  0.42160  1.0000 0.3127301957
H   H146      1.0  0.42160  0.83330  0.11570  1.0000 0.3127301957
H   H147      1.0  0.11570  0.42160  0.83330  1.0000 0.3127301957
H   H148      1.0  0.19410  0.41170  0.07840  1.0000 0.3127301957
H   H149      1.0  0.30590  0.38430  0.21760  1.0000 0.3127301957
H   H150      1.0  0.66667  0.08830  0.28240  1.0000 0.3127301957
H   H151      1.0  0.07840  0.19410  0.41170  1.0000 0.3127301957
H   H152      1.0  0.21760  0.30590  0.38430  1.0000 0.3127301957
H   H153      1.0  0.28240  0.66667  0.08830  1.0000 0.3127301957
H   H154      1.0  0.41170  0.07840  0.19410  1.0000 0.3127301957
H   H155      1.0  0.38430  0.21760  0.30590  1.0000 0.3127301957
H   H156      1.0  0.08830  0.28240  0.66667  1.0000 0.3127301957
H   H157      1.0  0.16670  0.88430  0.57840  1.0000 0.3127301957
H   H158      1.0  0.57840  0.16670  0.88430  1.0000 0.3127301957
H   H159      1.0  0.88430  0.57840  0.16670  1.0000 0.3127301957
H   H160      1.0  0.80590  0.58830  0.92160  1.0000 0.3127301957
H   H161      1.0  0.69410  0.61570  0.78240  1.0000 0.3127301957
H   H162      1.0  0.33333  0.91170  0.71760  1.0000 0.3127301957
H   H163      1.0  0.92160  0.80590  0.58830  1.0000 0.3127301957
H   H164      1.0  0.78240  0.69410  0.61570  1.0000 0.3127301957
H   H165      1.0  0.71760  0.33333  0.91170  1.0000 0.3127301957
H   H166      1.0  0.58830  0.92160  0.80590  1.0000 0.3127301957
H   H167      1.0  0.61570  0.78240  0.69410  1.0000 0.3127301957
H   H168      1.0  0.91170  0.71760  0.33333  1.0000 0.3127301957
C   C1        1.0  0.63160  0.08910  0.50390  1.0000 0.600379311
C   C2        1.0  0.50390  0.63160  0.08910  1.0000 0.600379311
C   C3        1.0  0.08910  0.50390  0.63160  1.0000 0.600379311
C   C4        1.0  0.08520  0.12770  0.99610  1.0000 0.600379311
C   C5        1.0  0.41480  0.41090  0.04250  1.0000 0.600379311
C   C6        1.0  0.86840  0.37230  0.45750  1.0000 0.600379311
C   C7        1.0  0.99610  0.08520  0.12770  1.0000 0.600379311
C   C8        1.0  0.04250  0.41480  0.41090  1.0000 0.600379311
C   C9        1.0  0.45750  0.86840  0.37230  1.0000 0.600379311
C   C10       1.0  0.12770  0.99610  0.08520  1.0000 0.600379311
C   C11       1.0  0.41090  0.04250  0.41480  1.0000 0.600379311
C   C12       1.0  0.37230  0.45750  0.86840  1.0000 0.600379311
C   C13       1.0  0.36840  0.91090  0.49610  1.0000 0.600379311
C   C14       1.0  0.49610  0.36840  0.91090  1.0000 0.600379311
C   C15       1.0  0.91090  0.49610  0.36840  1.0000 0.600379311
C   C16       1.0  0.91480  0.87230  0.00390  1.0000 0.600379311
C   C17       1.0  0.58520  0.58910  0.95750  1.0000 0.600379311
C   C18       1.0  0.13160  0.62770  0.54250  1.0000 0.600379311
C   C19       1.0  0.00390  0.91480  0.87230  1.0000 0.600379311
C   C20       1.0  0.95750  0.58520  0.58910  1.0000 0.600379311
C   C21       1.0  0.54250  0.13160  0.62770  1.0000 0.600379311
C   C22       1.0  0.87230  0.00390  0.91480  1.0000 0.600379311
C   C23       1.0  0.58910  0.95750  0.58520  1.0000 0.600379311
C   C24       1.0  0.62770  0.54250  0.13160  1.0000 0.600379311
C   C25       1.0  0.69980  0.12850  0.50930  1.0000 -0.0922771793
C   C26       1.0  0.50930  0.69980  0.12850  1.0000 -0.0922771793
C   C27       1.0  0.12850  0.50930  0.69980  1.0000 -0.0922771793
C   C28       1.0  0.11920  0.19050  0.99070  1.0000 -0.0922771793
C   C29       1.0  0.38080  0.37150  0.07130  1.0000 -0.0922771793
C   C30       1.0  0.80020  0.30950  0.42870  1.0000 -0.0922771793
C   C31       1.0  0.99070  0.11920  0.19050  1.0000 -0.0922771793
C   C32       1.0  0.07130  0.38080  0.37150  1.0000 -0.0922771793
C   C33       1.0  0.42870  0.80020  0.30950  1.0000 -0.0922771793
C   C34       1.0  0.19050  0.99070  0.11920  1.0000 -0.0922771793
C   C35       1.0  0.37150  0.07130  0.38080  1.0000 -0.0922771793
C   C36       1.0  0.30950  0.42870  0.80020  1.0000 -0.0922771793
C   C37       1.0  0.30020  0.87150  0.49070  1.0000 -0.0922771793
C   C38       1.0  0.49070  0.30020  0.87150  1.0000 -0.0922771793
C   C39       1.0  0.87150  0.49070  0.30020  1.0000 -0.0922771793
C   C40       1.0  0.88080  0.80950  0.00930  1.0000 -0.0922771793
C   C41       1.0  0.61920  0.62850  0.92870  1.0000 -0.0922771793
C   C42       1.0  0.19980  0.69050  0.57130  1.0000 -0.0922771793
C   C43       1.0  0.00930  0.88080  0.80950  1.0000 -0.0922771793
C   C44       1.0  0.92870  0.61920  0.62850  1.0000 -0.0922771793
C   C45       1.0  0.57130  0.19980  0.69050  1.0000 -0.0922771793
C   C46       1.0  0.80950  0.00930  0.88080  1.0000 -0.0922771793
C   C47       1.0  0.62850  0.92870  0.61920  1.0000 -0.0922771793
C   C48       1.0  0.69050  0.57130  0.19980  1.0000 -0.0922771793
C   C49       1.0  0.74310  0.19930  0.55900  1.0000 0.1126404577
C   C50       1.0  0.55900  0.74310  0.19930  1.0000 0.1126404577
C   C51       1.0  0.19930  0.55900  0.74310  1.0000 0.1126404577
C   C52       1.0  0.14030  0.18410  0.94100  1.0000 0.1126404577
C   C53       1.0  0.35970  0.30070  0.04380  1.0000 0.1126404577
C   C54       1.0  0.75690  0.31590  0.45620  1.0000 0.1126404577
C   C55       1.0  0.94100  0.14030  0.18410  1.0000 0.1126404577
C   C56       1.0  0.04380  0.35970  0.30070  1.0000 0.1126404577
C   C57       1.0  0.45620  0.75690  0.31590  1.0000 0.1126404577
C   C58       1.0  0.18410  0.94100  0.14030  1.0000 0.1126404577
C   C59       1.0  0.30070  0.04380  0.35970  1.0000 0.1126404577
C   C60       1.0  0.31590  0.45620  0.75690  1.0000 0.1126404577
C   C61       1.0  0.25690  0.80070  0.44100  1.0000 0.1126404577
C   C62       1.0  0.44100  0.25690  0.80070  1.0000 0.1126404577
C   C63       1.0  0.80070  0.44100  0.25690  1.0000 0.1126404577
C   C64       1.0  0.85970  0.81590  0.05900  1.0000 0.1126404577
C   C65       1.0  0.64030  0.69930  0.95620  1.0000 0.1126404577
C   C66       1.0  0.24310  0.68410  0.54380  1.0000 0.1126404577
C   C67       1.0  0.05900  0.85970  0.81590  1.0000 0.1126404577
C   C68       1.0  0.95620  0.64030  0.69930  1.0000 0.1126404577
C   C69       1.0  0.54380  0.24310  0.68410  1.0000 0.1126404577
C   C70       1.0  0.81590  0.05900  0.85970  1.0000 0.1126404577
C   C71       1.0  0.69930  0.95620  0.64030  1.0000 0.1126404577
C   C72       1.0  0.68410  0.54380  0.24310  1.0000 0.1126404577
C   C73       1.0  0.80620  0.23850  0.56190  1.0000 0.1834572136
C   C74       1.0  0.56190  0.80620  0.23850  1.0000 0.1834572136
C   C75       1.0  0.23850  0.56190  0.80620  1.0000 0.1834572136
C   C76       1.0  0.17660  0.24430  0.93810  1.0000 0.1834572136
C   C77       1.0  0.32340  0.26150  0.06770  1.0000 0.1834572136
C   C78       1.0  0.69380  0.25570  0.43230  1.0000 0.1834572136
C   C79       1.0  0.93810  0.17660  0.24430  1.0000 0.1834572136
C   C80       1.0  0.06770  0.32340  0.26150  1.0000 0.1834572136
C   C81       1.0  0.43230  0.69380  0.25570  1.0000 0.1834572136
C   C82       1.0  0.24430  0.93810  0.17660  1.0000 0.1834572136
C   C83       1.0  0.26150  0.06770  0.32340  1.0000 0.1834572136
C   C84       1.0  0.25570  0.43230  0.69380  1.0000 0.1834572136
C   C85       1.0  0.19380  0.76150  0.43810  1.0000 0.1834572136
C   C86       1.0  0.43810  0.19380  0.76150  1.0000 0.1834572136
C   C87       1.0  0.76150  0.43810  0.19380  1.0000 0.1834572136
C   C88       1.0  0.82340  0.75570  0.06190  1.0000 0.1834572136
C   C89       1.0  0.67660  0.73850  0.93230  1.0000 0.1834572136
C   C90       1.0  0.30620  0.74430  0.56770  1.0000 0.1834572136
C   C91       1.0  0.06190  0.82340  0.75570  1.0000 0.1834572136
C   C92       1.0  0.93230  0.67660  0.73850  1.0000 0.1834572136
C   C93       1.0  0.56770  0.30620  0.74430  1.0000 0.1834572136
C   C94       1.0  0.75570  0.06190  0.82340  1.0000 0.1834572136
C   C95       1.0  0.73850  0.93230  0.67660  1.0000 0.1834572136
C   C96       1.0  0.74430  0.56770  0.30620  1.0000 0.1834572136
C   C97       1.0  0.82520  0.20500  0.51580  1.0000 -0.2179727283
C   C98       1.0  0.51580  0.82520  0.20500  1.0000 -0.2179727283
C   C99       1.0  0.20500  0.51580  0.82520  1.0000 -0.2179727283
C   C100      1.0  0.18920  0.30940  0.98420  1.0000 -0.2179727283
C   C101      1.0  0.31080  0.29500  0.12020  1.0000 -0.2179727283
C   C102      1.0  0.67480  0.19060  0.37980  1.0000 -0.2179727283
C   C103      1.0  0.98420  0.18920  0.30940  1.0000 -0.2179727283
C   C104      1.0  0.12020  0.31080  0.29500  1.0000 -0.2179727283
C   C105      1.0  0.37980  0.67480  0.19060  1.0000 -0.2179727283
C   C106      1.0  0.30940  0.98420  0.18920  1.0000 -0.2179727283
C   C107      1.0  0.29500  0.12020  0.31080  1.0000 -0.2179727283
C   C108      1.0  0.19060  0.37980  0.67480  1.0000 -0.2179727283
C   C109      1.0  0.17480  0.79500  0.48420  1.0000 -0.2179727283
C   C110      1.0  0.48420  0.17480  0.79500  1.0000 -0.2179727283
C   C111      1.0  0.79500  0.48420  0.17480  1.0000 -0.2179727283
C   C112      1.0  0.81080  0.69060  0.01580  1.0000 -0.2179727283
C   C113      1.0  0.68920  0.70500  0.87980  1.0000 -0.2179727283
C   C114      1.0  0.32520  0.80940  0.62020  1.0000 -0.2179727283
C   C115      1.0  0.01580  0.81080  0.69060  1.0000 -0.2179727283
C   C116      1.0  0.87980  0.68920  0.70500  1.0000 -0.2179727283
C   C117      1.0  0.62020  0.32520  0.80940  1.0000 -0.2179727283
C   C118      1.0  0.69060  0.01580  0.81080  1.0000 -0.2179727283
C   C119      1.0  0.70500  0.87980  0.68920  1.0000 -0.2179727283
C   C120      1.0  0.80940  0.62020  0.32520  1.0000 -0.2179727283
C   C121      1.0  0.78150  0.13370  0.46740  1.0000 0.2444963857
C   C122      1.0  0.46740  0.78150  0.13370  1.0000 0.2444963857
C   C123      1.0  0.13370  0.46740  0.78150  1.0000 0.2444963857
C   C124      1.0  0.16630  0.31410  0.03260  1.0000 0.2444963857
C   C125      1.0  0.33370  0.36630  0.14780  1.0000 0.2444963857
C   C126      1.0  0.71850  0.18590  0.35220  1.0000 0.2444963857
C   C127      1.0  0.03260  0.16630  0.31410  1.0000 0.2444963857
C   C128      1.0  0.14780  0.33370  0.36630  1.0000 0.2444963857
C   C129      1.0  0.35220  0.71850  0.18590  1.0000 0.2444963857
C   C130      1.0  0.31410  0.03260  0.16630  1.0000 0.2444963857
C   C131      1.0  0.36630  0.14780  0.33370  1.0000 0.2444963857
C   C132      1.0  0.18590  0.35220  0.71850  1.0000 0.2444963857
C   C133      1.0  0.21850  0.86630  0.53260  1.0000 0.2444963857
C   C134      1.0  0.53260  0.21850  0.86630  1.0000 0.2444963857
C   C135      1.0  0.86630  0.53260  0.21850  1.0000 0.2444963857
C   C136      1.0  0.83370  0.68590  0.96740  1.0000 0.2444963857
C   C137      1.0  0.66630  0.63370  0.85220  1.0000 0.2444963857
C   C138      1.0  0.28150  0.81410  0.64780  1.0000 0.2444963857
C   C139      1.0  0.96740  0.83370  0.68590  1.0000 0.2444963857
C   C140      1.0  0.85220  0.66630  0.63370  1.0000 0.2444963857
C   C141      1.0  0.64780  0.28150  0.81410  1.0000 0.2444963857
C   C142      1.0  0.68590  0.96740  0.83370  1.0000 0.2444963857
C   C143      1.0  0.63370  0.85220  0.66630  1.0000 0.2444963857
C   C144      1.0  0.81410  0.64780  0.28150  1.0000 0.2444963857
C   C145      1.0  0.72000  0.09750  0.46530  1.0000 -0.2593669675
C   C146      1.0  0.46530  0.72000  0.09750  1.0000 -0.2593669675
C   C147      1.0  0.09750  0.46530  0.72000  1.0000 -0.2593669675
C   C148      1.0  0.13220  0.25470  0.03470  1.0000 -0.2593669675
C   C149      1.0  0.36780  0.40250  0.12250  1.0000 -0.2593669675
C   C150      1.0  0.78000  0.24530  0.37750  1.0000 -0.2593669675
C   C151      1.0  0.03470  0.13220  0.25470  1.0000 -0.2593669675
C   C152      1.0  0.12250  0.36780  0.40250  1.0000 -0.2593669675
C   C153      1.0  0.37750  0.78000  0.24530  1.0000 -0.2593669675
C   C154      1.0  0.25470  0.03470  0.13220  1.0000 -0.2593669675
C   C155      1.0  0.40250  0.12250  0.36780  1.0000 -0.2593669675
C   C156      1.0  0.24530  0.37750  0.78000  1.0000 -0.2593669675
C   C157      1.0  0.28000  0.90250  0.53470  1.0000 -0.2593669675
C   C158      1.0  0.53470  0.28000  0.90250  1.0000 -0.2593669675
C   C159      1.0  0.90250  0.53470  0.28000  1.0000 -0.2593669675
C   C160      1.0  0.86780  0.74530  0.96530  1.0000 -0.2593669675
C   C161      1.0  0.63220  0.59750  0.87750  1.0000 -0.2593669675
C   C162      1.0  0.22000  0.75470  0.62250  1.0000 -0.2593669675
C   C163      1.0  0.96530  0.86780  0.74530  1.0000 -0.2593669675
C   C164      1.0  0.87750  0.63220  0.59750  1.0000 -0.2593669675
C   C165      1.0  0.62250  0.22000  0.75470  1.0000 -0.2593669675
C   C166      1.0  0.74530  0.96530  0.86780  1.0000 -0.2593669675
C   C167      1.0  0.59750  0.87750  0.63220  1.0000 -0.2593669675
C   C168      1.0  0.75470  0.62250  0.22000  1.0000 -0.2593669675
C   C169      1.0  0.88900  0.24720  0.51380  1.0000 0.5720219766
C   C170      1.0  0.51380  0.88900  0.24720  1.0000 0.5720219766
C   C171      1.0  0.24720  0.51380  0.88900  1.0000 0.5720219766
C   C172      1.0  0.23340  0.37520  0.98620  1.0000 0.5720219766
C   C173      1.0  0.26660  0.25280  0.14180  1.0000 0.5720219766
C   C174      1.0  0.61100  0.12480  0.35820  1.0000 0.5720219766
C   C175      1.0  0.98620  0.23340  0.37520  1.0000 0.5720219766
C   C176      1.0  0.14180  0.26660  0.25280  1.0000 0.5720219766
C   C177      1.0  0.35820  0.61100  0.12480  1.0000 0.5720219766
C   C178      1.0  0.37520  0.98620  0.23340  1.0000 0.5720219766
C   C179      1.0  0.25280  0.14180  0.26660  1.0000 0.5720219766
C   C180      1.0  0.12480  0.35820  0.61100  1.0000 0.5720219766
C   C181      1.0  0.11100  0.75280  0.48620  1.0000 0.5720219766
C   C182      1.0  0.48620  0.11100  0.75280  1.0000 0.5720219766
C   C183      1.0  0.75280  0.48620  0.11100  1.0000 0.5720219766
C   C184      1.0  0.76660  0.62480  0.01380  1.0000 0.5720219766
C   C185      1.0  0.73340  0.74720  0.85820  1.0000 0.5720219766
C   C186      1.0  0.38900  0.87520  0.64180  1.0000 0.5720219766
C   C187      1.0  0.01380  0.76660  0.62480  1.0000 0.5720219766
C   C188      1.0  0.85820  0.73340  0.74720  1.0000 0.5720219766
C   C189      1.0  0.64180  0.38900  0.87520  1.0000 0.5720219766
C   C190      1.0  0.62480  0.01380  0.76660  1.0000 0.5720219766
C   C191      1.0  0.74720  0.85820  0.73340  1.0000 0.5720219766
C   C192      1.0  0.87520  0.64180  0.38900  1.0000 0.5720219766
N   N1        1.0  0.84700  0.30590  0.61610  1.0000 -0.5322673391
N   N2        1.0  0.61610  0.84700  0.30590  1.0000 -0.5322673391
N   N3        1.0  0.30590  0.61610  0.84700  1.0000 -0.5322673391
N   N4        1.0  0.18980  0.23090  0.88390  1.0000 -0.5322673391
N   N5        1.0  0.31020  0.19410  0.04110  1.0000 -0.5322673391
N   N6        1.0  0.65300  0.26910  0.45890  1.0000 -0.5322673391
N   N7        1.0  0.88390  0.18980  0.23090  1.0000 -0.5322673391
N   N8        1.0  0.04110  0.31020  0.19410  1.0000 -0.5322673391
N   N9        1.0  0.45890  0.65300  0.26910  1.0000 -0.5322673391
N   N10       1.0  0.23090  0.88390  0.18980  1.0000 -0.5322673391
N   N11       1.0  0.19410  0.04110  0.31020  1.0000 -0.5322673391
N   N12       1.0  0.26910  0.45890  0.65300  1.0000 -0.5322673391
N   N13       1.0  0.15300  0.69410  0.38390  1.0000 -0.5322673391
N   N14       1.0  0.38390  0.15300  0.69410  1.0000 -0.5322673391
N   N15       1.0  0.69410  0.38390  0.15300  1.0000 -0.5322673391
N   N16       1.0  0.81020  0.76910  0.11610  1.0000 -0.5322673391
N   N17       1.0  0.68980  0.80590  0.95890  1.0000 -0.5322673391
N   N18       1.0  0.34700  0.73090  0.54110  1.0000 -0.5322673391
N   N19       1.0  0.11610  0.81020  0.76910  1.0000 -0.5322673391
N   N20       1.0  0.95890  0.68980  0.80590  1.0000 -0.5322673391
N   N21       1.0  0.54110  0.34700  0.73090  1.0000 -0.5322673391
N   N22       1.0  0.76910  0.11610  0.81020  1.0000 -0.5322673391
N   N23       1.0  0.80590  0.95890  0.68980  1.0000 -0.5322673391
N   N24       1.0  0.73090  0.54110  0.34700  1.0000 -0.5322673391
N   N25       1.0  0.72690  0.24170  0.60320  1.0000 -0.56847364
N   N26       1.0  0.60320  0.72690  0.24170  1.0000 -0.56847364
N   N27       1.0  0.24170  0.60320  0.72690  1.0000 -0.56847364
N   N28       1.0  0.13850  0.12370  0.89680  1.0000 -0.56847364
N   N29       1.0  0.36150  0.25830  0.98520  1.0000 -0.56847364
N   N30       1.0  0.77310  0.37630  0.51480  1.0000 -0.56847364
N   N31       1.0  0.89680  0.13850  0.12370  1.0000 -0.56847364
N   N32       1.0  0.98520  0.36150  0.25830  1.0000 -0.56847364
N   N33       1.0  0.51480  0.77310  0.37630  1.0000 -0.56847364
N   N34       1.0  0.12370  0.89680  0.13850  1.0000 -0.56847364
N   N35       1.0  0.25830  0.98520  0.36150  1.0000 -0.56847364
N   N36       1.0  0.37630  0.51480  0.77310  1.0000 -0.56847364
N   N37       1.0  0.27310  0.75830  0.39680  1.0000 -0.56847364
N   N38       1.0  0.39680  0.27310  0.75830  1.0000 -0.56847364
N   N39       1.0  0.75830  0.39680  0.27310  1.0000 -0.56847364
N   N40       1.0  0.86150  0.87630  0.10320  1.0000 -0.56847364
N   N41       1.0  0.63850  0.74170  0.01480  1.0000 -0.56847364
N   N42       1.0  0.22690  0.62370  0.48520  1.0000 -0.56847364
N   N43       1.0  0.10320  0.86150  0.87630  1.0000 -0.56847364
N   N44       1.0  0.01480  0.63850  0.74170  1.0000 -0.56847364
N   N45       1.0  0.48520  0.22690  0.62370  1.0000 -0.56847364
N   N46       1.0  0.87630  0.10320  0.86150  1.0000 -0.56847364
N   N47       1.0  0.74170  0.01480  0.63850  1.0000 -0.56847364
N   N48       1.0  0.62370  0.48520  0.22690  1.0000 -0.56847364
N   N49       1.0  0.79540  0.09570  0.42250  1.0000 -0.56847364
N   N50       1.0  0.42250  0.79540  0.09570  1.0000 -0.56847364
N   N51       1.0  0.09570  0.42250  0.79540  1.0000 -0.56847364
N   N52       1.0  0.17320  0.37290  0.07750  1.0000 -0.56847364
N   N53       1.0  0.32680  0.40430  0.19970  1.0000 -0.56847364
N   N54       1.0  0.70460  0.12710  0.30030  1.0000 -0.56847364
N   N55       1.0  0.07750  0.17320  0.37290  1.0000 -0.56847364
N   N56       1.0  0.19970  0.32680  0.40430  1.0000 -0.56847364
N   N57       1.0  0.30030  0.70460  0.12710  1.0000 -0.56847364
N   N58       1.0  0.37290  0.07750  0.17320  1.0000 -0.56847364
N   N59       1.0  0.40430  0.19970  0.32680  1.0000 -0.56847364
N   N60       1.0  0.12710  0.30030  0.70460  1.0000 -0.56847364
N   N61       1.0  0.20460  0.90430  0.57750  1.0000 -0.56847364
N   N62       1.0  0.57750  0.20460  0.90430  1.0000 -0.56847364
N   N63       1.0  0.90430  0.57750  0.20460  1.0000 -0.56847364
N   N64       1.0  0.82680  0.62710  0.92250  1.0000 -0.56847364
N   N65       1.0  0.67320  0.59570  0.80030  1.0000 -0.56847364
N   N66       1.0  0.29540  0.87290  0.69970  1.0000 -0.56847364
N   N67       1.0  0.92250  0.82680  0.62710  1.0000 -0.56847364
N   N68       1.0  0.80030  0.67320  0.59570  1.0000 -0.56847364
N   N69       1.0  0.69970  0.29540  0.87290  1.0000 -0.56847364
N   N70       1.0  0.62710  0.92250  0.82680  1.0000 -0.56847364
N   N71       1.0  0.59570  0.80030  0.67320  1.0000 -0.56847364
N   N72       1.0  0.87290  0.69970  0.29540  1.0000 -0.56847364
O   O1        1.0  0.58450  0.03030  0.44800  1.0000 -0.701080677
O   O2        1.0  0.44800  0.58450  0.03030  1.0000 -0.701080677
O   O3        1.0  0.03030  0.44800  0.58450  1.0000 -0.701080677
O   O4        1.0  0.08230  0.13650  0.05200  1.0000 -0.701080677
O   O5        1.0  0.41770  0.46970  0.05420  1.0000 -0.701080677
O   O6        1.0  0.91550  0.36350  0.44580  1.0000 -0.701080677
O   O7        1.0  0.05200  0.08230  0.13650  1.0000 -0.701080677
O   O8        1.0  0.05420  0.41770  0.46970  1.0000 -0.701080677
O   O9        1.0  0.44580  0.91550  0.36350  1.0000 -0.701080677
O   O10       1.0  0.13650  0.05200  0.08230  1.0000 -0.701080677
O   O11       1.0  0.46970  0.05420  0.41770  1.0000 -0.701080677
O   O12       1.0  0.36350  0.44580  0.91550  1.0000 -0.701080677
O   O13       1.0  0.41550  0.96970  0.55200  1.0000 -0.701080677
O   O14       1.0  0.55200  0.41550  0.96970  1.0000 -0.701080677
O   O15       1.0  0.96970  0.55200  0.41550  1.0000 -0.701080677
O   O16       1.0  0.91770  0.86350  0.94800  1.0000 -0.701080677
O   O17       1.0  0.58230  0.53030  0.94580  1.0000 -0.701080677
O   O18       1.0  0.08450  0.63650  0.55420  1.0000 -0.701080677
O   O19       1.0  0.94800  0.91770  0.86350  1.0000 -0.701080677
O   O20       1.0  0.94580  0.58230  0.53030  1.0000 -0.701080677
O   O21       1.0  0.55420  0.08450  0.63650  1.0000 -0.701080677
O   O22       1.0  0.86350  0.94800  0.91770  1.0000 -0.701080677
O   O23       1.0  0.53030  0.94580  0.58230  1.0000 -0.701080677
O   O24       1.0  0.63650  0.55420  0.08450  1.0000 -0.701080677
O   O25       1.0  0.61990  0.11130  0.55180  1.0000 -0.5089942038
O   O26       1.0  0.55180  0.61990  0.11130  1.0000 -0.5089942038
O   O27       1.0  0.11130  0.55180  0.61990  1.0000 -0.5089942038
O   O28       1.0  0.05950  0.06810  0.94820  1.0000 -0.5089942038
O   O29       1.0  0.44050  0.38870  0.00860  1.0000 -0.5089942038
O   O30       1.0  0.88010  0.43190  0.49140  1.0000 -0.5089942038
O   O31       1.0  0.94820  0.05950  0.06810  1.0000 -0.5089942038
O   O32       1.0  0.00860  0.44050  0.38870  1.0000 -0.5089942038
O   O33       1.0  0.49140  0.88010  0.43190  1.0000 -0.5089942038
O   O34       1.0  0.06810  0.94820  0.05950  1.0000 -0.5089942038
O   O35       1.0  0.38870  0.00860  0.44050  1.0000 -0.5089942038
O   O36       1.0  0.43190  0.49140  0.88010  1.0000 -0.5089942038
O   O37       1.0  0.38010  0.88870  0.44820  1.0000 -0.5089942038
O   O38       1.0  0.44820  0.38010  0.88870  1.0000 -0.5089942038
O   O39       1.0  0.88870  0.44820  0.38010  1.0000 -0.5089942038
O   O40       1.0  0.94050  0.93190  0.05180  1.0000 -0.5089942038
O   O41       1.0  0.55950  0.61130  0.99140  1.0000 -0.5089942038
O   O42       1.0  0.11990  0.56810  0.50860  1.0000 -0.5089942038
O   O43       1.0  0.05180  0.94050  0.93190  1.0000 -0.5089942038
O   O44       1.0  0.99140  0.55950  0.61130  1.0000 -0.5089942038
O   O45       1.0  0.50860  0.11990  0.56810  1.0000 -0.5089942038
O   O46       1.0  0.93190  0.05180  0.94050  1.0000 -0.5089942038
O   O47       1.0  0.61130  0.99140  0.55950  1.0000 -0.5089942038
O   O48       1.0  0.56810  0.50860  0.11990  1.0000 -0.5089942038
O   O49       1.0  0.92430  0.31240  0.55490  1.0000 -0.593016542
O   O50       1.0  0.55490  0.92430  0.31240  1.0000 -0.593016542
O   O51       1.0  0.31240  0.55490  0.92430  1.0000 -0.593016542
O   O52       1.0  0.25750  0.36940  0.94510  1.0000 -0.593016542
O   O53       1.0  0.24250  0.18760  0.11190  1.0000 -0.593016542
O   O54       1.0  0.57570  0.13060  0.38810  1.0000 -0.593016542
O   O55       1.0  0.94510  0.25750  0.36940  1.0000 -0.593016542
O   O56       1.0  0.11190  0.24250  0.18760  1.0000 -0.593016542
O   O57       1.0  0.38810  0.57570  0.13060  1.0000 -0.593016542
O   O58       1.0  0.36940  0.94510  0.25750  1.0000 -0.593016542
O   O59       1.0  0.18760  0.11190  0.24250  1.0000 -0.593016542
O   O60       1.0  0.13060  0.38810  0.57570  1.0000 -0.593016542
O   O61       1.0  0.07570  0.68760  0.44510  1.0000 -0.593016542
O   O62       1.0  0.44510  0.07570  0.68760  1.0000 -0.593016542
O   O63       1.0  0.68760  0.44510  0.07570  1.0000 -0.593016542
O   O64       1.0  0.74250  0.63060  0.05490  1.0000 -0.593016542
O   O65       1.0  0.75750  0.81240  0.88810  1.0000 -0.593016542
O   O66       1.0  0.42430  0.86940  0.61190  1.0000 -0.593016542
O   O67       1.0  0.05490  0.74250  0.63060  1.0000 -0.593016542
O   O68       1.0  0.88810  0.75750  0.81240  1.0000 -0.593016542
O   O69       1.0  0.61190  0.42430  0.86940  1.0000 -0.593016542
O   O70       1.0  0.63060  0.05490  0.74250  1.0000 -0.593016542
O   O71       1.0  0.81240  0.88810  0.75750  1.0000 -0.593016542
O   O72       1.0  0.86940  0.61190  0.42430  1.0000 -0.593016542
O   O73       1.0  0.90590  0.21800  0.47250  1.0000 -0.56847364
O   O74       1.0  0.47250  0.90590  0.21800  1.0000 -0.56847364
O   O75       1.0  0.21800  0.47250  0.90590  1.0000 -0.56847364
O   O76       1.0  0.24550  0.43340  0.02750  1.0000 -0.56847364
O   O77       1.0  0.25450  0.28200  0.18790  1.0000 -0.56847364
O   O78       1.0  0.59410  0.06660  0.31210  1.0000 -0.56847364
O   O79       1.0  0.02750  0.24550  0.43340  1.0000 -0.56847364
O   O80       1.0  0.18790  0.25450  0.28200  1.0000 -0.56847364
O   O81       1.0  0.31210  0.59410  0.06660  1.0000 -0.56847364
O   O82       1.0  0.43340  0.02750  0.24550  1.0000 -0.56847364
O   O83       1.0  0.28200  0.18790  0.25450  1.0000 -0.56847364
O   O84       1.0  0.06660  0.31210  0.59410  1.0000 -0.56847364
O   O85       1.0  0.09410  0.78200  0.52750  1.0000 -0.56847364
O   O86       1.0  0.52750  0.09410  0.78200  1.0000 -0.56847364
O   O87       1.0  0.78200  0.52750  0.09410  1.0000 -0.56847364
O   O88       1.0  0.75450  0.56660  0.97250  1.0000 -0.56847364
O   O89       1.0  0.74550  0.71800  0.81210  1.0000 -0.56847364
O   O90       1.0  0.40590  0.93340  0.68790  1.0000 -0.56847364
O   O91       1.0  0.97250  0.75450  0.56660  1.0000 -0.56847364
O   O92       1.0  0.81210  0.74550  0.71800  1.0000 -0.56847364
O   O93       1.0  0.68790  0.40590  0.93340  1.0000 -0.56847364
O   O94       1.0  0.56660  0.97250  0.75450  1.0000 -0.56847364
O   O95       1.0  0.71800  0.81210  0.74550  1.0000 -0.56847364
O   O96       1.0  0.93340  0.68790  0.40590  1.0000 -0.56847364
