# DDEC6 charges by PACMAN v1.1 (https://github.com/mtap-research/PACMAN-charge/)
data_2005[Mn][lvt]2[FSR]1
_chemical_formula_sum              "Mn24 H368 C360 N72 O80"
_cell_length_a       30.0541
_cell_length_b       30.0541
_cell_length_c       30.0541
_cell_angle_alpha    94.8982
_cell_angle_beta     94.8982
_cell_angle_gamma    146.019

_symmetry_space_group_name_H-M    "P 1"
_symmetry_Int_Tables_number       1

loop_
  _symmetry_equiv_pos_as_xyz
  'x, y, z'

loop_
  _atom_site_type_symbol
  _atom_site_label
  _atom_site_symmetry_multiplicity
  _atom_site_fract_x
  _atom_site_fract_y
  _atom_site_fract_z
  _atom_site_occupancy
  _atom_site_charge
Mn  Mn1       1.0  0.50357  0.28319  0.37108  1.0000 0.9843328331
Mn  Mn2       1.0  0.38249  0.25357  0.72038  1.0000 0.9843328331
Mn  Mn3       1.0  0.53319  0.66211  0.27962  1.0000 0.9866076941
Mn  Mn4       1.0  0.91211  0.13249  0.62892  1.0000 0.9843328331
Mn  Mn5       1.0  0.74643  0.46681  0.12892  1.0000 0.9866076941
Mn  Mn6       1.0  0.86751  0.49643  0.77962  1.0000 0.9843328331
Mn  Mn7       1.0  0.71681  0.08789  0.22038  1.0000 0.9843328331
Mn  Mn8       1.0  0.33789  0.61751  0.87108  1.0000 0.9843328331
Mn  Mn9       1.0  0.41544  0.08908  0.24732  1.0000 0.9204031313
Mn  Mn10      1.0  0.41812  0.16544  0.82636  1.0000 0.9204031313
Mn  Mn11      1.0  0.33908  0.59176  0.17364  1.0000 0.9204031313
Mn  Mn12      1.0  0.84176  0.16812  0.75268  1.0000 0.9204031313
Mn  Mn13      1.0  0.83456  0.66092  0.25268  1.0000 0.9204031313
Mn  Mn14      1.0  0.83188  0.58456  0.67364  1.0000 0.9204031313
Mn  Mn15      1.0  0.91092  0.15824  0.32636  1.0000 0.9204031313
Mn  Mn16      1.0  0.40824  0.58188  0.74732  1.0000 0.9204031313
Mn  Mn17      1.0  0.62772  0.52071  0.33535  1.0000 0.9114621131
Mn  Mn18      1.0  0.54237  0.37772  0.60701  1.0000 0.9029626781
Mn  Mn19      1.0  0.77071  0.93536  0.39299  1.0000 0.9114621131
Mn  Mn20      1.0  0.18536  0.29237  0.66465  1.0000 0.9114621131
Mn  Mn21      1.0  0.62228  0.22929  0.16465  1.0000 0.9114621131
Mn  Mn22      1.0  0.70763  0.37228  0.89299  1.0000 0.9114621131
Mn  Mn23      1.0  0.47929  0.81464  0.10701  1.0000 0.9114621131
Mn  Mn24      1.0  0.06464  0.45763  0.83535  1.0000 0.9114621131
H   H1        1.0  0.28600  0.18300  0.36360  1.0000 0.1307522361
H   H2        1.0  0.17240  0.03600  0.60300  1.0000 0.1307522361
H   H3        1.0  0.43300  0.56940  0.39700  1.0000 0.1307522361
H   H4        1.0  0.81940  0.92240  0.63640  1.0000 0.1307522361
H   H5        1.0  0.96400  0.56700  0.13640  1.0000 0.1307522361
H   H6        1.0  0.07760  0.71400  0.89700  1.0000 0.1307522361
H   H7        1.0  0.81700  0.18060  0.10300  1.0000 0.1307522361
H   H8        1.0  0.43060  0.82760  0.86360  1.0000 0.1307522361
H   H9        1.0  0.14940  0.05720  0.32380  1.0000 0.1015164921
H   H10       1.0  0.07560  0.89940  0.59220  1.0000 0.1015164921
H   H11       1.0  0.30720  0.48340  0.40780  1.0000 0.1015164921
H   H12       1.0  0.73340  0.82560  0.67620  1.0000 0.1015164921
H   H13       1.0  0.10060  0.69280  0.17620  1.0000 0.1015164921
H   H14       1.0  0.17440  0.85060  0.90780  1.0000 0.1015164921
H   H15       1.0  0.94280  0.26660  0.09220  1.0000 0.1015164921
H   H16       1.0  0.51660  0.92440  0.82380  1.0000 0.1015164921
H   H17       1.0  0.10460  0.95280  0.27740  1.0000 0.1198895769
H   H18       1.0  0.07720  0.85460  0.65180  1.0000 0.1198895769
H   H19       1.0  0.20280  0.42540  0.34820  1.0000 0.1198895769
H   H20       1.0  0.67540  0.82720  0.72260  1.0000 0.1198895769
H   H21       1.0  0.14540  0.79720  0.22260  1.0000 0.1198895769
H   H22       1.0  0.17280  0.89540  0.84820  1.0000 0.1198895769
H   H23       1.0  0.04720  0.32460  0.15180  1.0000 0.1198895769
H   H24       1.0  0.57460  0.92280  0.77740  1.0000 0.1198895769
H   H25       1.0  0.20460  0.98350  0.26690  1.0000 0.1113136933
H   H26       1.0  0.18770  0.95460  0.72110  1.0000 0.1113136933
H   H27       1.0  0.23350  0.46660  0.27890  1.0000 0.1113136933
H   H28       1.0  0.71660  0.93770  0.73310  1.0000 0.1113136933
H   H29       1.0  0.04540  0.76650  0.23310  1.0000 0.1113136933
H   H30       1.0  0.06230  0.79540  0.77890  1.0000 0.1113136933
H   H31       1.0  0.01650  0.28340  0.22110  1.0000 0.1113136933
H   H32       1.0  0.53340  0.81230  0.76690  1.0000 0.1113136933
H   H33       1.0  0.61170  0.23700  0.32790  1.0000 0.1198895769
H   H34       1.0  0.53380  0.36170  0.87470  1.0000 0.1198895769
H   H35       1.0  0.48700  0.65910  0.12530  1.0000 0.1198895769
H   H36       1.0  0.90910  0.28380  0.67210  1.0000 0.1198895769
H   H37       1.0  0.63830  0.51300  0.17210  1.0000 0.1198895769
H   H38       1.0  0.71620  0.38830  0.62530  1.0000 0.1198895769
H   H39       1.0  0.76300  0.09090  0.37470  1.0000 0.1198895769
H   H40       1.0  0.34090  0.46620  0.82790  1.0000 0.1198895769
H   H41       1.0  0.64030  0.29390  0.29620  1.0000 0.1307522361
H   H42       1.0  0.59410  0.39030  0.84640  1.0000 0.1307522361
H   H43       1.0  0.54390  0.74770  0.15360  1.0000 0.1307522361
H   H44       1.0  0.99770  0.34410  0.70380  1.0000 0.1307522361
H   H45       1.0  0.60970  0.45610  0.20380  1.0000 0.1307522361
H   H46       1.0  0.65590  0.35970  0.65360  1.0000 0.1307522361
H   H47       1.0  0.70610  0.00230  0.34640  1.0000 0.1307522361
H   H48       1.0  0.25230  0.40590  0.79620  1.0000 0.1307522361
H   H49       1.0  0.71270  0.35440  0.39390  1.0000 0.1113136933
H   H50       1.0  0.56880  0.46270  0.85830  1.0000 0.1113136933
H   H51       1.0  0.60440  0.71050  0.14170  1.0000 0.1113136933
H   H52       1.0  0.96050  0.31880  0.60610  1.0000 0.1113136933
H   H53       1.0  0.53730  0.39560  0.10610  1.0000 0.1113136933
H   H54       1.0  0.68120  0.28730  0.64170  1.0000 0.1113136933
H   H55       1.0  0.64560  0.03950  0.35830  1.0000 0.1113136933
H   H56       1.0  0.28950  0.43120  0.89390  1.0000 0.1113136933
H   H57       1.0  0.75410  0.36700  0.35550  1.0000 0.1113136933
H   H58       1.0  0.64860  0.50410  0.88710  1.0000 0.1113136933
H   H59       1.0  0.61700  0.76150  0.11290  1.0000 0.1198895769
H   H60       1.0  0.01150  0.39860  0.64450  1.0000 0.1113136933
H   H61       1.0  0.49590  0.38300  0.14450  1.0000 0.1113136933
H   H62       1.0  0.60140  0.24590  0.61290  1.0000 0.1113136933
H   H63       1.0  0.63300  0.98850  0.38710  1.0000 0.1113136933
H   H64       1.0  0.23850  0.35140  0.85550  1.0000 0.1113136933
H   H65       1.0  0.74300  0.41070  0.36090  1.0000 0.1307522361
H   H66       1.0  0.63210  0.49300  0.83230  1.0000 0.1307522361
H   H67       1.0  0.66070  0.79980  0.16770  1.0000 0.1307522361
H   H68       1.0  0.04980  0.38210  0.63910  1.0000 0.1307522361
H   H69       1.0  0.50700  0.33930  0.13910  1.0000 0.1307522361
H   H70       1.0  0.61790  0.25700  0.66770  1.0000 0.1307522361
H   H71       1.0  0.58930  0.95020  0.33230  1.0000 0.1307522361
H   H72       1.0  0.20020  0.36790  0.86090  1.0000 0.1307522361
H   H73       1.0  0.58630  0.27830  0.43420  1.0000 0.1015164921
H   H74       1.0  0.40210  0.33630  0.80800  1.0000 0.1015164921
H   H75       1.0  0.52830  0.59410  0.19200  1.0000 0.1015164921
H   H76       1.0  0.84410  0.15210  0.56580  1.0000 0.1015164921
H   H77       1.0  0.66370  0.47170  0.06580  1.0000 0.1015164921
H   H78       1.0  0.84790  0.41370  0.69200  1.0000 0.1015164921
H   H79       1.0  0.72170  0.15590  0.30800  1.0000 0.1015164921
H   H80       1.0  0.40590  0.59790  0.93420  1.0000 0.1015164921
H   H81       1.0  0.44350  0.16990  0.49760  1.0000 0.1391962532
H   H82       1.0  0.19590  0.19350  0.77360  1.0000 0.1391962532
H   H83       1.0  0.41990  0.42230  0.22640  1.0000 0.1391962532
H   H84       1.0  0.67230  0.94590  0.50240  1.0000 0.1391962532
H   H85       1.0  0.80650  0.58010  0.00240  1.0000 0.1391962532
H   H86       1.0  0.05410  0.55650  0.72640  1.0000 0.1391962532
H   H87       1.0  0.83010  0.32770  0.27360  1.0000 0.1391962532
H   H88       1.0  0.57770  0.80410  0.99760  1.0000 0.1391962532
H   H89       1.0  0.49580  0.18390  0.53730  1.0000 0.1391962532
H   H90       1.0  0.20850  0.24580  0.81190  1.0000 0.1391962532
H   H91       1.0  0.43390  0.39660  0.18810  1.0000 0.1391962532
H   H92       1.0  0.64660  0.95850  0.46270  1.0000 0.1391962532
H   H93       1.0  0.75420  0.56610  0.96270  1.0000 0.1391962532
H   H94       1.0  0.04150  0.50420  0.68810  1.0000 0.1391962532
H   H95       1.0  0.81610  0.35340  0.31190  1.0000 0.1391962532
H   H96       1.0  0.60340  0.79150  0.03730  1.0000 0.1391962532
H   H97       1.0  0.52160  0.25650  0.53710  1.0000 0.1469615484
H   H98       1.0  0.23450  0.27160  0.76510  1.0000 0.1469615484
H   H99       1.0  0.50650  0.46940  0.23490  1.0000 0.1469615484
H   H100      1.0  0.71940  0.98450  0.46290  1.0000 0.1469615484
H   H101      1.0  0.72840  0.49350  0.96290  1.0000 0.1469615484
H   H102      1.0  0.01550  0.47840  0.73490  1.0000 0.1469615484
H   H103      1.0  0.74350  0.28060  0.26510  1.0000 0.1469615484
H   H104      1.0  0.53060  0.76550  0.03710  1.0000 0.1469615484
H   H105      1.0  0.66010  0.31750  0.53380  1.0000 0.1391962532
H   H106      1.0  0.37630  0.41010  0.84260  1.0000 0.1391962532
H   H107      1.0  0.56750  0.53370  0.15740  1.0000 0.1391962532
H   H108      1.0  0.78370  0.12630  0.46620  1.0000 0.1391962532
H   H109      1.0  0.58990  0.43250  0.96620  1.0000 0.1391962532
H   H110      1.0  0.87370  0.33990  0.65740  1.0000 0.1391962532
H   H111      1.0  0.68250  0.21630  0.34260  1.0000 0.1391962532
H   H112      1.0  0.46630  0.62370  0.03380  1.0000 0.1391962532
H   H113      1.0  0.59490  0.22230  0.52120  1.0000 0.1391962532
H   H114      1.0  0.32370  0.34490  0.87260  1.0000 0.1391962532
H   H115      1.0  0.47230  0.45110  0.12740  1.0000 0.1391962532
H   H116      1.0  0.70110  0.07370  0.47880  1.0000 0.1391962532
H   H117      1.0  0.65510  0.52770  0.97880  1.0000 0.1391962532
H   H118      1.0  0.92630  0.40510  0.62740  1.0000 0.1391962532
H   H119      1.0  0.77770  0.29890  0.37260  1.0000 0.1391962532
H   H120      1.0  0.54890  0.67630  0.02120  1.0000 0.1391962532
H   H121      1.0  0.64130  0.27380  0.48410  1.0000 0.1307522361
H   H122      1.0  0.40720  0.39130  0.86750  1.0000 0.1307522361
H   H123      1.0  0.52380  0.53970  0.13250  1.0000 0.1307522361
H   H124      1.0  0.78970  0.15720  0.51590  1.0000 0.1307522361
H   H125      1.0  0.60870  0.47620  0.01590  1.0000 0.1307522361
H   H126      1.0  0.84280  0.35870  0.63250  1.0000 0.1307522361
H   H127      1.0  0.72620  0.21030  0.36750  1.0000 0.1307522361
H   H128      1.0  0.46030  0.59280  0.98410  1.0000 0.1307522361
H   H129      1.0  0.40190  0.96180  0.32330  1.0000 0.1307522361
H   H130      1.0  0.32860  0.15190  0.94010  1.0000 0.1307522361
H   H131      1.0  0.21180  0.38850  0.05990  1.0000 0.1307522361
H   H132      1.0  0.63850  0.07860  0.67670  1.0000 0.1307522361
H   H133      1.0  0.84810  0.78820  0.17670  1.0000 0.1307522361
H   H134      1.0  0.92140  0.59810  0.55990  1.0000 0.1307522361
H   H135      1.0  0.03820  0.36150  0.44010  1.0000 0.1307522361
H   H136      1.0  0.61150  0.67140  0.82330  1.0000 0.1307522361
H   H137      1.0  0.46360  0.94540  0.32400  1.0000 0.1113136933
H   H138      1.0  0.38960  0.21360  0.01820  1.0000 0.1113136933
H   H139      1.0  0.19540  0.37140  0.98180  1.0000 0.1113136933
H   H140      1.0  0.62140  0.13960  0.67600  1.0000 0.1113136933
H   H141      1.0  0.78640  0.80460  0.17600  1.0000 0.1113136933
H   H142      1.0  0.86040  0.53640  0.48180  1.0000 0.1113136933
H   H143      1.0  0.05460  0.37860  0.51820  1.0000 0.1113136933
H   H144      1.0  0.62860  0.61040  0.82400  1.0000 0.1113136933
H   H145      1.0  0.56100  0.01060  0.28140  1.0000 0.1198895769
H   H146      1.0  0.52960  0.31100  0.05040  1.0000 0.1198895769
H   H147      1.0  0.26060  0.47920  0.94960  1.0000 0.1198895769
H   H148      1.0  0.72920  0.27960  0.71860  1.0000 0.1198895769
H   H149      1.0  0.68900  0.73940  0.21860  1.0000 0.1198895769
H   H150      1.0  0.72040  0.43900  0.44960  1.0000 0.1198895769
H   H151      1.0  0.98940  0.27080  0.55040  1.0000 0.1198895769
H   H152      1.0  0.52080  0.47040  0.78140  1.0000 0.1198895769
H   H153      1.0  0.59100  0.09020  0.23740  1.0000 0.1113136933
H   H154      1.0  0.60360  0.34100  0.00080  1.0000 0.1113136933
H   H155      1.0  0.34020  0.60280  0.99920  1.0000 0.1113136933
H   H156      1.0  0.85280  0.35360  0.76260  1.0000 0.1113136933
H   H157      1.0  0.65900  0.65980  0.26260  1.0000 0.1113136933
H   H158      1.0  0.64640  0.40900  0.49920  1.0000 0.1113136933
H   H159      1.0  0.90980  0.14720  0.50080  1.0000 0.1113136933
H   H160      1.0  0.39720  0.39640  0.73740  1.0000 0.1113136933
H   H161      1.0  0.51250  0.26020  0.15870  1.0000 0.1391962532
H   H162      1.0  0.60380  0.26250  0.75230  1.0000 0.1391962532
H   H163      1.0  0.51020  0.85150  0.24770  1.0000 0.1391962532
H   H164      1.0  0.10150  0.35380  0.84130  1.0000 0.1391962532
H   H165      1.0  0.73750  0.48980  0.34130  1.0000 0.1391962532
H   H166      1.0  0.64620  0.48750  0.74770  1.0000 0.1391962532
H   H167      1.0  0.73980  0.89850  0.25230  1.0000 0.1391962532
H   H168      1.0  0.14850  0.39620  0.65870  1.0000 0.1391962532
H   H169      1.0  0.49820  0.20650  0.12050  1.0000 0.1307522361
H   H170      1.0  0.62770  0.24820  0.79170  1.0000 0.1307522361
H   H171      1.0  0.45650  0.83600  0.20830  1.0000 0.1307522361
H   H172      1.0  0.08600  0.37770  0.87950  1.0000 0.1307522361
H   H173      1.0  0.75180  0.54350  0.37950  1.0000 0.1307522361
H   H174      1.0  0.62230  0.50180  0.70830  1.0000 0.1307522361
H   H175      1.0  0.79350  0.91400  0.29170  1.0000 0.1307522361
H   H176      1.0  0.16400  0.37230  0.62050  1.0000 0.1307522361
H   H177      1.0  0.36620  0.14670  0.14150  1.0000 0.1198895769
H   H178      1.0  0.47470  0.11620  0.71950  1.0000 0.1198895769
H   H179      1.0  0.39670  0.75520  0.28050  1.0000 0.1198895769
H   H180      1.0  0.00520  0.22470  0.85850  1.0000 0.1198895769
H   H181      1.0  0.88380  0.60330  0.35850  1.0000 0.1198895769
H   H182      1.0  0.77530  0.63380  0.78050  1.0000 0.1198895769
H   H183      1.0  0.85330  0.99480  0.21950  1.0000 0.1198895769
H   H184      1.0  0.24480  0.52530  0.64150  1.0000 0.1198895769
H   H185      1.0  0.39830  0.17870  0.09680  1.0000 0.1113136933
H   H186      1.0  0.55150  0.14830  0.71960  1.0000 0.1113136933
H   H187      1.0  0.42870  0.83190  0.28040  1.0000 0.1113136933
H   H188      1.0  0.08190  0.30150  0.90320  1.0000 0.1113136933
H   H189      1.0  0.85170  0.57130  0.40320  1.0000 0.1113136933
H   H190      1.0  0.69850  0.60170  0.78040  1.0000 0.1113136933
H   H191      1.0  0.82130  0.91810  0.21960  1.0000 0.1113136933
H   H192      1.0  0.16810  0.44850  0.59680  1.0000 0.1113136933
H   H193      1.0  0.35410  0.09630  0.10160  1.0000 0.1198895769
H   H194      1.0  0.50250  0.10410  0.75780  1.0000 0.1198895769
H   H195      1.0  0.34630  0.74470  0.24220  1.0000 0.1198895769
H   H196      1.0  0.99470  0.25250  0.89840  1.0000 0.1198895769
H   H197      1.0  0.89590  0.65370  0.39840  1.0000 0.1198895769
H   H198      1.0  0.74750  0.64590  0.74220  1.0000 0.1198895769
H   H199      1.0  0.90370  0.00530  0.25780  1.0000 0.1198895769
H   H200      1.0  0.25530  0.49750  0.60160  1.0000 0.1198895769
H   H201      1.0  0.33640  0.93700  0.18220  1.0000 0.1015164921
H   H202      1.0  0.40420  0.08640  0.89940  1.0000 0.1015164921
H   H203      1.0  0.18700  0.50480  0.10060  1.0000 0.1015164921
H   H204      1.0  0.75480  0.15420  0.81780  1.0000 0.1015164921
H   H205      1.0  0.91360  0.81300  0.31780  1.0000 0.1015164921
H   H206      1.0  0.84580  0.66360  0.60060  1.0000 0.1015164921
H   H207      1.0  0.06300  0.24520  0.39940  1.0000 0.1015164921
H   H208      1.0  0.49520  0.59580  0.68220  1.0000 0.1015164921
H   H209      1.0  0.22790  0.81920  0.12070  1.0000 0.1391962532
H   H210      1.0  0.35720  0.97790  0.90870  1.0000 0.1391962532
H   H211      1.0  0.06920  0.44850  0.09130  1.0000 0.1391962532
H   H212      1.0  0.69850  0.10720  0.87930  1.0000 0.1391962532
H   H213      1.0  0.02210  0.93080  0.37930  1.0000 0.1391962532
H   H214      1.0  0.89280  0.77210  0.59130  1.0000 0.1391962532
H   H215      1.0  0.18080  0.30150  0.40870  1.0000 0.1391962532
H   H216      1.0  0.55150  0.64280  0.62070  1.0000 0.1391962532
H   H217      1.0  0.14390  0.87610  0.11280  1.0000 0.1307522361
H   H218      1.0  0.28110  0.89390  0.76780  1.0000 0.1307522361
H   H219      1.0  0.12610  0.51330  0.23220  1.0000 0.1307522361
H   H220      1.0  0.76330  0.03110  0.88720  1.0000 0.1307522361
H   H221      1.0  0.10610  0.87390  0.38720  1.0000 0.1307522361
H   H222      1.0  0.96890  0.85610  0.73220  1.0000 0.1307522361
H   H223      1.0  0.12390  0.23670  0.26780  1.0000 0.1307522361
H   H224      1.0  0.48670  0.71890  0.61280  1.0000 0.1307522361
H   H225      1.0  0.25160  0.98710  0.18030  1.0000 0.1198895769
H   H226      1.0  0.32130  0.00160  0.76450  1.0000 0.1198895769
H   H227      1.0  0.23710  0.55680  0.23550  1.0000 0.1198895769
H   H228      1.0  0.80680  0.07130  0.81970  1.0000 0.1198895769
H   H229      1.0  0.99840  0.76290  0.31970  1.0000 0.1198895769
H   H230      1.0  0.92870  0.74840  0.73550  1.0000 0.1198895769
H   H231      1.0  0.01290  0.19320  0.26450  1.0000 0.1198895769
H   H232      1.0  0.44320  0.67870  0.68030  1.0000 0.1198895769
H   H233      1.0  0.08620  0.71190  0.07110  1.0000 0.1307522361
H   H234      1.0  0.26510  0.83620  0.87430  1.0000 0.1307522361
H   H235      1.0  0.96190  0.39080  0.12570  1.0000 0.1307522361
H   H236      1.0  0.64080  0.01510  0.92890  1.0000 0.1307522361
H   H237      1.0  0.16380  0.03810  0.42890  1.0000 0.1307522361
H   H238      1.0  0.98490  0.91380  0.62570  1.0000 0.1307522361
H   H239      1.0  0.28810  0.35920  0.37430  1.0000 0.1307522361
H   H240      1.0  0.60920  0.73490  0.57110  1.0000 0.1307522361
H   H241      1.0  0.11980  0.77240  0.04100  1.0000 0.1198895769
H   H242      1.0  0.32880  0.86980  0.84740  1.0000 0.1198895769
H   H243      1.0  0.02240  0.48140  0.15260  1.0000 0.1198895769
H   H244      1.0  0.73140  0.07880  0.95900  1.0000 0.1198895769
H   H245      1.0  0.13020  0.97760  0.45900  1.0000 0.1198895769
H   H246      1.0  0.92120  0.88020  0.65260  1.0000 0.1198895769
H   H247      1.0  0.22760  0.26860  0.34740  1.0000 0.1198895769
H   H248      1.0  0.51860  0.67120  0.54100  1.0000 0.1198895769
H   H249      1.0  0.74190  0.69140  0.46710  1.0000 0.1307522361
H   H250      1.0  0.52480  0.49190  0.55050  1.0000 0.1307522361
H   H251      1.0  0.94140  0.97430  0.44950  1.0000 0.1307522361
H   H252      1.0  0.22430  0.27480  0.53290  1.0000 0.1307522361
H   H253      1.0  0.50810  0.05860  0.03290  1.0000 0.1307522361
H   H254      1.0  0.72520  0.25810  0.94950  1.0000 0.1307522361
H   H255      1.0  0.30860  0.77570  0.05050  1.0000 0.1307522361
H   H256      1.0  0.02570  0.47520  0.96710  1.0000 0.1307522361
H   H257      1.0  0.73880  0.67870  0.54230  1.0000 0.1015164921
H   H258      1.0  0.44650  0.48880  0.56010  1.0000 0.1015164921
H   H259      1.0  0.92870  0.88640  0.43990  1.0000 0.1015164921
H   H260      1.0  0.13640  0.19650  0.45770  1.0000 0.1015164921
H   H261      1.0  0.51120  0.07130  0.95770  1.0000 0.1015164921
H   H262      1.0  0.80350  0.26120  0.93990  1.0000 0.1015164921
H   H263      1.0  0.32130  0.86360  0.06010  1.0000 0.1015164921
H   H264      1.0  0.11360  0.55350  0.04230  1.0000 0.1015164921
H   H265      1.0  0.67390  0.56230  0.55740  1.0000 0.1198895769
H   H266      1.0  0.36650  0.42390  0.61160  1.0000 0.1198895769
H   H267      1.0  0.81230  0.75490  0.38840  1.0000 0.1198895769
H   H268      1.0  0.00490  0.11650  0.44260  1.0000 0.1198895769
H   H269      1.0  0.57610  0.18770  0.94260  1.0000 0.1198895769
H   H270      1.0  0.88350  0.32610  0.88840  1.0000 0.1198895769
H   H271      1.0  0.43770  0.99510  0.11160  1.0000 0.1198895769
H   H272      1.0  0.24510  0.63350  0.05740  1.0000 0.1198895769
H   H273      1.0  0.61230  0.45760  0.49730  1.0000 0.1198895769
H   H274      1.0  0.36500  0.36230  0.65470  1.0000 0.1198895769
H   H275      1.0  0.70760  0.71030  0.34530  1.0000 0.1198895769
H   H276      1.0  0.96030  0.11500  0.50270  1.0000 0.1198895769
H   H277      1.0  0.63770  0.29240  0.00270  1.0000 0.1198895769
H   H278      1.0  0.88500  0.38770  0.84530  1.0000 0.1198895769
H   H279      1.0  0.54240  0.03970  0.15470  1.0000 0.1198895769
H   H280      1.0  0.28970  0.63500  0.99730  1.0000 0.1198895769
H   H281      1.0  0.48990  0.27130  0.25980  1.0000 0.1391962532
H   H282      1.0  0.48010  0.23990  0.71860  1.0000 0.1391962532
H   H283      1.0  0.52130  0.76150  0.28140  1.0000 0.1391962532
H   H284      1.0  0.01150  0.23010  0.74020  1.0000 0.1391962532
H   H285      1.0  0.76010  0.47870  0.24020  1.0000 0.1391962532
H   H286      1.0  0.76990  0.51010  0.78140  1.0000 0.1391962532
H   H287      1.0  0.72870  0.98850  0.21860  1.0000 0.1391962532
H   H288      1.0  0.23850  0.51990  0.75980  1.0000 0.1391962532
H   H289      1.0  0.52310  0.32720  0.22530  1.0000 0.1391962532
H   H290      1.0  0.54780  0.27310  0.69590  1.0000 0.1391962532
H   H291      1.0  0.57720  0.85190  0.30410  1.0000 0.1391962532
H   H292      1.0  0.10190  0.29780  0.77470  1.0000 0.1391962532
H   H293      1.0  0.72690  0.42280  0.27470  1.0000 0.1391962532
H   H294      1.0  0.70220  0.47690  0.80410  1.0000 0.1391962532
H   H295      1.0  0.67280  0.89810  0.19590  1.0000 0.1391962532
H   H296      1.0  0.14810  0.45220  0.72530  1.0000 0.1391962532
H   H297      1.0  0.36510  0.21370  0.25080  1.0000 0.1198895769
H   H298      1.0  0.36430  0.11510  0.65140  1.0000 0.1198895769
H   H299      1.0  0.46370  0.71290  0.34860  1.0000 0.1198895769
H   H300      1.0  0.96290  0.11430  0.74920  1.0000 0.1198895769
H   H301      1.0  0.88490  0.53630  0.24920  1.0000 0.1198895769
H   H302      1.0  0.88570  0.63490  0.84860  1.0000 0.1198895769
H   H303      1.0  0.78630  0.03710  0.15140  1.0000 0.1198895769
H   H304      1.0  0.28710  0.63570  0.75080  1.0000 0.1198895769
H   H305      1.0  0.37120  0.20980  0.19860  1.0000 0.1391962532
H   H306      1.0  0.42260  0.12120  0.66140  1.0000 0.1391962532
H   H307      1.0  0.45980  0.76120  0.33860  1.0000 0.1391962532
H   H308      1.0  0.01120  0.17260  0.80140  1.0000 0.1391962532
H   H309      1.0  0.87880  0.54020  0.30140  1.0000 0.1391962532
H   H310      1.0  0.82740  0.62880  0.83860  1.0000 0.1391962532
H   H311      1.0  0.79020  0.98880  0.16140  1.0000 0.1391962532
H   H312      1.0  0.23880  0.57740  0.69860  1.0000 0.1391962532
H   H313      1.0  0.40340  0.28320  0.22780  1.0000 0.1198895769
H   H314      1.0  0.42560  0.15340  0.62020  1.0000 0.1198895769
H   H315      1.0  0.53320  0.80540  0.37980  1.0000 0.1198895769
H   H316      1.0  0.05540  0.17560  0.77220  1.0000 0.1198895769
H   H317      1.0  0.84660  0.46680  0.27220  1.0000 0.1198895769
H   H318      1.0  0.82440  0.59660  0.87980  1.0000 0.1198895769
H   H319      1.0  0.71680  0.94460  0.12020  1.0000 0.1198895769
H   H320      1.0  0.19460  0.57440  0.72780  1.0000 0.1198895769
H   H321      1.0  0.89150  0.56370  0.91240  1.0000 0.1113136933
H   H322      1.0  0.22910  0.64150  0.82780  1.0000 0.1113136933
H   H323      1.0  0.81370  0.40130  0.17220  1.0000 0.1113136933
H   H324      1.0  0.65130  0.97910  0.08760  1.0000 0.1113136933
H   H325      1.0  0.35850  0.18630  0.58760  1.0000 0.1113136933
H   H326      1.0  0.02090  0.10850  0.67220  1.0000 0.1113136933
H   H327      1.0  0.43630  0.34870  0.32780  1.0000 0.1113136933
H   H328      1.0  0.59870  0.77090  0.41240  1.0000 0.1113136933
H   H329      1.0  0.00380  0.68620  0.97020  1.0000 0.1391962532
H   H330      1.0  0.28360  0.75380  0.81760  1.0000 0.1391962532
H   H331      1.0  0.93620  0.46600  0.18240  1.0000 0.1391962532
H   H332      1.0  0.71600  0.03360  0.02980  1.0000 0.1391962532
H   H333      1.0  0.24620  0.06380  0.52980  1.0000 0.1391962532
H   H334      1.0  0.96640  0.99620  0.68240  1.0000 0.1391962532
H   H335      1.0  0.31380  0.28400  0.31760  1.0000 0.1391962532
H   H336      1.0  0.53400  0.71640  0.47020  1.0000 0.1391962532
H   H337      1.0  0.88690  0.55990  0.06420  1.0000 0.1391962532
H   H338      1.0  0.07270  0.63690  0.82700  1.0000 0.1391962532
H   H339      1.0  0.80990  0.24570  0.17300  1.0000 0.1391962532
H   H340      1.0  0.49570  0.82270  0.93580  1.0000 0.1391962532
H   H341      1.0  0.36310  0.19010  0.43580  1.0000 0.1391962532
H   H342      1.0  0.17730  0.11310  0.67300  1.0000 0.1391962532
H   H343      1.0  0.44010  0.50430  0.32700  1.0000 0.1391962532
H   H344      1.0  0.75430  0.92730  0.56420  1.0000 0.1391962532
H   H345      1.0  0.77690  0.43980  0.00330  1.0000 0.1198895769
H   H346      1.0  0.02360  0.52690  0.83710  1.0000 0.1198895769
H   H347      1.0  0.68980  0.18650  0.16290  1.0000 0.1198895769
H   H348      1.0  0.43650  0.77360  0.99670  1.0000 0.1198895769
H   H349      1.0  0.47310  0.31020  0.49670  1.0000 0.1198895769
H   H350      1.0  0.22640  0.22310  0.66290  1.0000 0.1198895769
H   H351      1.0  0.56020  0.56350  0.33710  1.0000 0.1198895769
H   H352      1.0  0.81350  0.97640  0.50330  1.0000 0.1198895769
H   H353      1.0  0.01160  0.70810  0.09150  1.0000 0.1307522361
H   H354      1.0  0.17010  0.76160  0.80350  1.0000 0.1307522361
H   H355      1.0  0.95810  0.36660  0.19650  1.0000 0.1307522361
H   H356      1.0  0.61660  0.92010  0.90850  1.0000 0.1307522361
H   H357      1.0  0.23840  0.04190  0.40850  1.0000 0.1307522361
H   H358      1.0  0.07990  0.98840  0.69650  1.0000 0.1307522361
H   H359      1.0  0.29190  0.38340  0.30350  1.0000 0.1307522361
H   H360      1.0  0.63340  0.82990  0.59150  1.0000 0.1307522361
H   H361      1.0  0.03870  0.75830  0.05480  1.0000 0.1307522361
H   H362      1.0  0.23390  0.78870  0.78040  1.0000 0.1307522361
H   H363      1.0  0.00830  0.45350  0.21960  1.0000 0.1307522361
H   H364      1.0  0.70350  0.98390  0.94520  1.0000 0.1307522361
H   H365      1.0  0.21130  0.99170  0.44520  1.0000 0.1307522361
H   H366      1.0  0.01610  0.96130  0.71960  1.0000 0.1307522361
H   H367      1.0  0.24170  0.29650  0.28040  1.0000 0.1307522361
H   H368      1.0  0.54650  0.76610  0.55480  1.0000 0.1307522361
C   C1        1.0  0.33084  0.16212  0.34096  1.0000 0.3068576912
C   C2        1.0  0.23988  0.08084  0.66872  1.0000 0.3068576912
C   C3        1.0  0.41212  0.57116  0.33128  1.0000 0.3068576912
C   C4        1.0  0.82116  0.98988  0.65904  1.0000 0.3068576912
C   C5        1.0  0.91916  0.58788  0.15904  1.0000 0.3068576912
C   C6        1.0  0.01012  0.66916  0.83128  1.0000 0.3068576912
C   C7        1.0  0.83788  0.17884  0.16872  1.0000 0.3068576912
C   C8        1.0  0.42884  0.76012  0.84096  1.0000 0.3068576912
C   C9        1.0  0.26989  0.14265  0.34434  1.0000 -0.2386870906
C   C10       1.0  0.17555  0.01989  0.62724  1.0000 -0.2386870906
C   C11       1.0  0.39265  0.54831  0.37276  1.0000 -0.2386870906
C   C12       1.0  0.79831  0.92555  0.65566  1.0000 -0.2386870906
C   C13       1.0  0.98011  0.60735  0.15566  1.0000 -0.2386870906
C   C14       1.0  0.07445  0.73011  0.87276  1.0000 -0.2386870906
C   C15       1.0  0.85735  0.20169  0.12724  1.0000 -0.2386870906
C   C16       1.0  0.45169  0.82445  0.84434  1.0000 -0.2386870906
C   C17       1.0  0.18857  0.06771  0.32088  1.0000 -0.0675109741
C   C18       1.0  0.11769  0.93857  0.62086  1.0000 -0.0675109741
C   C19       1.0  0.31771  0.49683  0.37914  1.0000 -0.0675109741
C   C20       1.0  0.74683  0.86769  0.67912  1.0000 -0.0675109741
C   C21       1.0  0.06143  0.68229  0.17912  1.0000 -0.0675109741
C   C22       1.0  0.13231  0.81143  0.87914  1.0000 -0.0675109741
C   C23       1.0  0.93229  0.25317  0.12086  1.0000 -0.0675109741
C   C24       1.0  0.50317  0.88231  0.82088  1.0000 -0.0675109741
C   C25       1.0  0.16179  0.00593  0.29252  1.0000 -0.1604651725
C   C26       1.0  0.11927  0.91179  0.65586  1.0000 -0.1604651725
C   C27       1.0  0.25593  0.46341  0.34414  1.0000 -0.1604651725
C   C28       1.0  0.71341  0.86927  0.70748  1.0000 -0.1604651725
C   C29       1.0  0.08821  0.74407  0.20748  1.0000 -0.1604651725
C   C30       1.0  0.13073  0.83821  0.84414  1.0000 -0.1604651725
C   C31       1.0  0.99407  0.28659  0.15586  1.0000 -0.1604651725
C   C32       1.0  0.53659  0.88073  0.79252  1.0000 -0.1604651725
C   C33       1.0  0.22154  0.02414  0.28688  1.0000 -0.0894968603
C   C34       1.0  0.18466  0.97154  0.69740  1.0000 -0.0894968603
C   C35       1.0  0.27414  0.48726  0.30260  1.0000 -0.0894968603
C   C36       1.0  0.73726  0.93466  0.71312  1.0000 -0.0894968603
C   C37       1.0  0.02846  0.72586  0.21312  1.0000 -0.0894968603
C   C38       1.0  0.06534  0.77846  0.80260  1.0000 -0.0894968603
C   C39       1.0  0.97586  0.26274  0.19740  1.0000 -0.0894968603
C   C40       1.0  0.51274  0.81534  0.78688  1.0000 -0.0894968603
C   C41       1.0  0.30476  0.10089  0.31025  1.0000 -0.1604651725
C   C42       1.0  0.24451  0.05476  0.70387  1.0000 -0.1604651725
C   C43       1.0  0.35089  0.54064  0.29613  1.0000 -0.1604651725
C   C44       1.0  0.79064  0.99451  0.68975  1.0000 -0.1604651725
C   C45       1.0  0.94524  0.64911  0.18975  1.0000 -0.1604651725
C   C46       1.0  0.00549  0.69524  0.79613  1.0000 -0.1604651725
C   C47       1.0  0.89911  0.20936  0.20387  1.0000 -0.1604651725
C   C48       1.0  0.45936  0.75549  0.81025  1.0000 -0.1604651725
C   C49       1.0  0.36386  0.11683  0.30149  1.0000 0.4408484471
C   C50       1.0  0.31237  0.11386  0.74703  1.0000 0.4408484471
C   C51       1.0  0.36683  0.56534  0.25297  1.0000 0.4408484471
C   C52       1.0  0.81534  0.06237  0.69851  1.0000 0.4408484471
C   C53       1.0  0.88614  0.63317  0.19851  1.0000 0.4408484471
C   C54       1.0  0.93763  0.63614  0.75297  1.0000 0.4408484471
C   C55       1.0  0.88317  0.18466  0.24703  1.0000 0.4408484471
C   C56       1.0  0.43466  0.68763  0.80149  1.0000 0.4408484471
C   C57       1.0  0.57048  0.26601  0.33503  1.0000 0.447716468
C   C58       1.0  0.48545  0.32048  0.80447  1.0000 0.447716468
C   C59       1.0  0.51601  0.68098  0.19553  1.0000 0.447716468
C   C60       1.0  0.93098  0.23545  0.66497  1.0000 0.447716468
C   C61       1.0  0.67952  0.48399  0.16497  1.0000 0.447716468
C   C62       1.0  0.76455  0.42952  0.69553  1.0000 0.447716468
C   C63       1.0  0.73399  0.06902  0.30447  1.0000 0.447716468
C   C64       1.0  0.31902  0.51455  0.83503  1.0000 0.447716468
C   C65       1.0  0.63353  0.28562  0.32755  1.0000 -0.2649034923
C   C66       1.0  0.55598  0.38353  0.84791  1.0000 -0.2649034923
C   C67       1.0  0.53562  0.70807  0.15209  1.0000 -0.2649034923
C   C68       1.0  0.95807  0.30598  0.67245  1.0000 -0.2649034923
C   C69       1.0  0.61647  0.46438  0.17245  1.0000 -0.2649034923
C   C70       1.0  0.69402  0.36647  0.65209  1.0000 -0.2649034923
C   C71       1.0  0.71438  0.04193  0.34791  1.0000 -0.2649034923
C   C72       1.0  0.29193  0.44402  0.82755  1.0000 -0.2649034923
C   C73       1.0  0.71829  0.36110  0.36259  1.0000 -0.3473583837
C   C74       1.0  0.60570  0.46829  0.85719  1.0000 -0.3473583837
C   C75       1.0  0.61110  0.74851  0.14281  1.0000 -0.3473583837
C   C76       1.0  0.99851  0.35570  0.63741  1.0000 -0.3473583837
C   C77       1.0  0.53171  0.38890  0.13741  1.0000 -0.3473583837
C   C78       1.0  0.64430  0.28171  0.64281  1.0000 -0.3473583837
C   C79       1.0  0.63890  0.00149  0.35719  1.0000 -0.3473583837
C   C80       1.0  0.25149  0.39430  0.86259  1.0000 -0.3473583837
C   C81       1.0  0.54628  0.25413  0.44981  1.0000 0.2742434973
C   C82       1.0  0.34647  0.29628  0.79215  1.0000 0.2742434973
C   C83       1.0  0.50413  0.55432  0.20785  1.0000 0.2753048772
C   C84       1.0  0.80432  0.09647  0.55019  1.0000 0.2742434973
C   C85       1.0  0.70372  0.49587  0.05019  1.0000 0.2753048772
C   C86       1.0  0.90353  0.45372  0.70785  1.0000 0.2742434973
C   C87       1.0  0.74587  0.19568  0.29215  1.0000 0.2742434973
C   C88       1.0  0.44568  0.65353  0.94981  1.0000 0.2742434973
C   C89       1.0  0.49904  0.21047  0.51751  1.0000 -0.3189231285
C   C90       1.0  0.23153  0.24904  0.78857  1.0000 -0.3189231285
C   C91       1.0  0.46047  0.44296  0.21143  1.0000 -0.3189231285
C   C92       1.0  0.69296  0.98153  0.48249  1.0000 -0.3189231285
C   C93       1.0  0.75096  0.53953  0.98249  1.0000 -0.3189231285
C   C94       1.0  0.01847  0.50096  0.71143  1.0000 -0.3189231285
C   C95       1.0  0.78953  0.30704  0.28857  1.0000 -0.3189231285
C   C96       1.0  0.55704  0.76847  0.01751  1.0000 -0.3189231285
C   C97       1.0  0.61716  0.26560  0.50876  1.0000 -0.3473583837
C   C98       1.0  0.35840  0.36716  0.85156  1.0000 -0.3473583837
C   C99       1.0  0.51560  0.50684  0.14844  1.0000 -0.3473583837
C   C100      1.0  0.75684  0.10840  0.49124  1.0000 -0.3473583837
C   C101      1.0  0.63284  0.48440  0.99124  1.0000 -0.3473583837
C   C102      1.0  0.89160  0.38284  0.64844  1.0000 -0.3473583837
C   C103      1.0  0.73440  0.24316  0.35156  1.0000 -0.3473583837
C   C104      1.0  0.49316  0.64160  0.00876  1.0000 -0.3473583837
C   C105      1.0  0.45629  0.03465  0.27874  1.0000 0.2918681921
C   C106      1.0  0.42755  0.20629  0.92164  1.0000 0.2918681921
C   C107      1.0  0.28465  0.50591  0.07836  1.0000 0.2918681921
C   C108      1.0  0.75591  0.17755  0.72126  1.0000 0.2918681921
C   C109      1.0  0.79371  0.71535  0.22126  1.0000 0.2918681921
C   C110      1.0  0.82245  0.54371  0.57836  1.0000 0.2918681921
C   C111      1.0  0.96535  0.24409  0.42164  1.0000 0.2918681921
C   C112      1.0  0.49409  0.57245  0.77874  1.0000 0.2918681921
C   C113      1.0  0.43993  0.98764  0.30537  1.0000 -0.2106603159
C   C114      1.0  0.38456  0.18993  0.95229  1.0000 -0.2106603159
C   C115      1.0  0.23764  0.43227  0.04771  1.0000 -0.2106603159
C   C116      1.0  0.68227  0.13456  0.69463  1.0000 -0.2106603159
C   C117      1.0  0.81007  0.76236  0.19463  1.0000 -0.2106603159
C   C118      1.0  0.86544  0.56007  0.54771  1.0000 -0.2106603159
C   C119      1.0  0.01236  0.31773  0.45229  1.0000 -0.2106603159
C   C120      1.0  0.56773  0.61544  0.80537  1.0000 -0.2106603159
C   C121      1.0  0.47677  0.97832  0.30609  1.0000 -0.0675109741
C   C122      1.0  0.42068  0.22677  0.99845  1.0000 -0.0675109741
C   C123      1.0  0.22832  0.42223  0.00155  1.0000 -0.0675109741
C   C124      1.0  0.67223  0.17068  0.69391  1.0000 -0.0675109741
C   C125      1.0  0.77323  0.77168  0.19391  1.0000 -0.0675109741
C   C126      1.0  0.82932  0.52323  0.50155  1.0000 -0.0675109741
C   C127      1.0  0.02168  0.32777  0.49845  1.0000 -0.0675109741
C   C128      1.0  0.57777  0.57932  0.80609  1.0000 -0.0675109741
C   C129      1.0  0.53469  0.01677  0.28066  1.0000 -0.1501636105
C   C130      1.0  0.50403  0.28469  0.01792  1.0000 -0.1501636105
C   C131      1.0  0.26677  0.48611  0.98208  1.0000 -0.1501636105
C   C132      1.0  0.73611  0.25403  0.71934  1.0000 -0.1501636105
C   C133      1.0  0.71531  0.73323  0.21934  1.0000 -0.1501636105
C   C134      1.0  0.74597  0.46531  0.48208  1.0000 -0.1501636105
C   C135      1.0  0.98323  0.26389  0.51792  1.0000 -0.1501636105
C   C136      1.0  0.51389  0.49597  0.78066  1.0000 -0.1501636105
C   C137      1.0  0.55193  0.06368  0.25461  1.0000 -0.0894968603
C   C138      1.0  0.54732  0.30193  0.98825  1.0000 -0.0894968603
C   C139      1.0  0.31368  0.55907  0.01175  1.0000 -0.0894968603
C   C140      1.0  0.80907  0.29732  0.74539  1.0000 -0.0894968603
C   C141      1.0  0.69807  0.68632  0.24539  1.0000 -0.0894968603
C   C142      1.0  0.70268  0.44807  0.51175  1.0000 -0.0894968603
C   C143      1.0  0.93632  0.19093  0.48825  1.0000 -0.0894968603
C   C144      1.0  0.44093  0.45268  0.75461  1.0000 -0.0894968603
C   C145      1.0  0.51355  0.07304  0.25299  1.0000 -0.1501636105
C   C146      1.0  0.51056  0.26355  0.94051  1.0000 -0.1501636105
C   C147      1.0  0.32304  0.57005  0.05949  1.0000 -0.1501636105
C   C148      1.0  0.82005  0.26056  0.74701  1.0000 -0.1501636105
C   C149      1.0  0.73645  0.67696  0.24701  1.0000 -0.1501636105
C   C150      1.0  0.73944  0.48645  0.55949  1.0000 -0.1501636105
C   C151      1.0  0.92696  0.17995  0.44051  1.0000 -0.1501636105
C   C152      1.0  0.42995  0.48944  0.75299  1.0000 -0.1501636105
C   C153      1.0  0.53277  0.12069  0.22174  1.0000 0.4408484471
C   C154      1.0  0.56103  0.28277  0.91208  1.0000 0.4408484471
C   C155      1.0  0.37069  0.64895  0.08792  1.0000 0.4408484471
C   C156      1.0  0.89895  0.31103  0.77826  1.0000 0.4408484471
C   C157      1.0  0.71723  0.62931  0.27826  1.0000 0.4408484471
C   C158      1.0  0.68897  0.46723  0.58792  1.0000 0.4408484471
C   C159      1.0  0.87931  0.10105  0.41208  1.0000 0.4408484471
C   C160      1.0  0.35105  0.43897  0.72174  1.0000 0.4408484471
C   C161      1.0  0.47024  0.16903  0.17987  1.0000 0.4572373917
C   C162      1.0  0.54037  0.22024  0.80121  1.0000 0.4572373917
C   C163      1.0  0.41903  0.73916  0.19879  1.0000 0.4572373917
C   C164      1.0  0.98916  0.29037  0.82013  1.0000 0.4572373917
C   C165      1.0  0.77976  0.58097  0.32013  1.0000 0.4572373917
C   C166      1.0  0.70963  0.52976  0.69879  1.0000 0.4572373917
C   C167      1.0  0.83097  0.01084  0.30121  1.0000 0.4572373917
C   C168      1.0  0.26084  0.45963  0.67987  1.0000 0.4572373917
C   C169      1.0  0.47452  0.20319  0.14371  1.0000 -0.2497593081
C   C170      1.0  0.58081  0.22452  0.77133  1.0000 -0.2497593081
C   C171      1.0  0.45319  0.80948  0.22867  1.0000 -0.2497593081
C   C172      1.0  0.05948  0.33081  0.85629  1.0000 -0.2497593081
C   C173      1.0  0.77548  0.54681  0.35629  1.0000 -0.2497593081
C   C174      1.0  0.66919  0.52548  0.72867  1.0000 -0.2497593081
C   C175      1.0  0.79681  0.94052  0.27133  1.0000 -0.2497593081
C   C176      1.0  0.19052  0.41919  0.64371  1.0000 -0.2497593081
C   C177      1.0  0.39084  0.15164  0.11868  1.0000 -0.331872548
C   C178      1.0  0.52216  0.14084  0.73920  1.0000 -0.331872548
C   C179      1.0  0.40164  0.78296  0.26080  1.0000 -0.331872548
C   C180      1.0  0.03296  0.27216  0.88132  1.0000 -0.331872548
C   C181      1.0  0.85916  0.59836  0.38132  1.0000 -0.331872548
C   C182      1.0  0.72784  0.60916  0.76080  1.0000 -0.331872548
C   C183      1.0  0.84836  0.96704  0.23920  1.0000 -0.331872548
C   C184      1.0  0.21704  0.47784  0.61868  1.0000 -0.331872548
C   C185      1.0  0.29407  0.92192  0.16939  1.0000 0.0925440276
C   C186      1.0  0.37468  0.04407  0.87215  1.0000 0.0925440276
C   C187      1.0  0.17192  0.50253  0.12785  1.0000 0.0925440276
C   C188      1.0  0.75253  0.12468  0.83061  1.0000 0.0925440276
C   C189      1.0  0.95593  0.82808  0.33061  1.0000 0.0925440276
C   C190      1.0  0.87532  0.70593  0.62785  1.0000 0.0925440276
C   C191      1.0  0.07808  0.24747  0.37215  1.0000 0.0925440276
C   C192      1.0  0.49747  0.62532  0.66939  1.0000 0.0925440276
C   C193      1.0  0.22990  0.85156  0.13186  1.0000 -0.2106603159
C   C194      1.0  0.34804  0.97990  0.87834  1.0000 -0.2106603159
C   C195      1.0  0.10156  0.46970  0.12166  1.0000 -0.2106603159
C   C196      1.0  0.71970  0.09804  0.86814  1.0000 -0.2106603159
C   C197      1.0  0.02010  0.89844  0.36814  1.0000 -0.2106603159
C   C198      1.0  0.90196  0.77010  0.62166  1.0000 -0.2106603159
C   C199      1.0  0.14844  0.28030  0.37834  1.0000 -0.2106603159
C   C200      1.0  0.53030  0.65196  0.63186  1.0000 -0.2106603159
C   C201      1.0  0.17250  0.83083  0.11233  1.0000 0.1588090258
C   C202      1.0  0.31017  0.92250  0.84167  1.0000 0.1588090258
C   C203      1.0  0.08083  0.46850  0.15833  1.0000 0.1588090258
C   C204      1.0  0.71850  0.06017  0.88767  1.0000 0.1588090258
C   C205      1.0  0.07750  0.91917  0.38767  1.0000 0.1588090258
C   C206      1.0  0.93983  0.82750  0.65833  1.0000 0.1588090258
C   C207      1.0  0.16917  0.28150  0.34167  1.0000 0.1588090258
C   C208      1.0  0.53150  0.68983  0.61233  1.0000 0.1588090258
C   C209      1.0  0.18094  0.88569  0.12843  1.0000 -0.2106603159
C   C210      1.0  0.30251  0.93094  0.79525  1.0000 -0.2106603159
C   C211      1.0  0.13569  0.50726  0.20475  1.0000 -0.2106603159
C   C212      1.0  0.75726  0.05251  0.87157  1.0000 -0.2106603159
C   C213      1.0  0.06906  0.86431  0.37157  1.0000 -0.2106603159
C   C214      1.0  0.94749  0.81906  0.70475  1.0000 -0.2106603159
C   C215      1.0  0.11431  0.24274  0.29525  1.0000 -0.2106603159
C   C216      1.0  0.49274  0.69749  0.62843  1.0000 -0.2106603159
C   C217      1.0  0.24619  0.95237  0.16776  1.0000 0.0815505767
C   C218      1.0  0.32843  0.99619  0.79382  1.0000 0.0815505767
C   C219      1.0  0.20237  0.53461  0.20618  1.0000 0.0815505767
C   C220      1.0  0.78461  0.07843  0.83224  1.0000 0.0815505767
C   C221      1.0  0.00381  0.79763  0.33224  1.0000 0.0815505767
C   C222      1.0  0.92157  0.75381  0.70618  1.0000 0.0815505767
C   C223      1.0  0.04763  0.21539  0.29382  1.0000 0.0815505767
C   C224      1.0  0.46539  0.67157  0.66776  1.0000 0.0815505767
C   C225      1.0  0.09990  0.75483  0.06893  1.0000 -0.2240443723
C   C226      1.0  0.28097  0.84990  0.84507  1.0000 -0.2240443723
C   C227      1.0  0.00483  0.43590  0.15493  1.0000 -0.2240443723
C   C228      1.0  0.68590  0.03097  0.93107  1.0000 -0.2240443723
C   C229      1.0  0.15010  0.99517  0.43107  1.0000 -0.2240443723
C   C230      1.0  0.96903  0.90010  0.65493  1.0000 -0.2240443723
C   C231      1.0  0.24517  0.31410  0.34507  1.0000 -0.2240443723
C   C232      1.0  0.56410  0.71903  0.56893  1.0000 -0.2240443723
C   C233      1.0  0.67857  0.58152  0.43549  1.0000 0.2999338442
C   C234      1.0  0.49308  0.42857  0.59705  1.0000 0.2999338442
C   C235      1.0  0.83152  0.89603  0.40295  1.0000 0.2999338442
C   C236      1.0  0.14603  0.24308  0.56451  1.0000 0.2999338442
C   C237      1.0  0.57143  0.16848  0.06451  1.0000 0.2999338442
C   C238      1.0  0.75692  0.32143  0.90295  1.0000 0.2999338442
C   C239      1.0  0.41848  0.85397  0.09705  1.0000 0.2999338442
C   C240      1.0  0.10397  0.50692  0.93549  1.0000 0.2999338442
C   C241      1.0  0.71518  0.64332  0.47270  1.0000 -0.2106603159
C   C242      1.0  0.49248  0.46518  0.57186  1.0000 -0.2106603159
C   C243      1.0  0.89332  0.92062  0.42814  1.0000 -0.2106603159
C   C244      1.0  0.17062  0.24248  0.52730  1.0000 -0.2106603159
C   C245      1.0  0.53482  0.10668  0.02730  1.0000 -0.2106603159
C   C246      1.0  0.75752  0.28482  0.92814  1.0000 -0.2106603159
C   C247      1.0  0.35668  0.82938  0.07186  1.0000 -0.2106603159
C   C248      1.0  0.07938  0.50752  0.97270  1.0000 -0.2106603159
C   C249      1.0  0.71336  0.63581  0.51757  1.0000 -0.0803341223
C   C250      1.0  0.44579  0.46336  0.57755  1.0000 -0.0803341223
C   C251      1.0  0.88581  0.86824  0.42245  1.0000 -0.0803341223
C   C252      1.0  0.11824  0.19579  0.48243  1.0000 -0.0803341223
C   C253      1.0  0.53664  0.11419  0.98243  1.0000 -0.0803341223
C   C254      1.0  0.80421  0.28664  0.92245  1.0000 -0.0803341223
C   C255      1.0  0.36419  0.88176  0.07755  1.0000 -0.0803341223
C   C256      1.0  0.13176  0.55421  0.01757  1.0000 -0.0803341223
C   C257      1.0  0.67518  0.56718  0.52656  1.0000 -0.1408547582
C   C258      1.0  0.39862  0.42518  0.60800  1.0000 -0.1408547582
C   C259      1.0  0.81718  0.79062  0.39200  1.0000 -0.1408547582
C   C260      1.0  0.04062  0.14862  0.47344  1.0000 -0.1408547582
C   C261      1.0  0.57482  0.18282  0.97344  1.0000 -0.1408547582
C   C262      1.0  0.85138  0.32482  0.89200  1.0000 -0.1408547582
C   C263      1.0  0.43282  0.95938  0.10800  1.0000 -0.1408547582
C   C264      1.0  0.20938  0.60138  0.02656  1.0000 -0.1408547582
C   C265      1.0  0.63852  0.50502  0.49074  1.0000 -0.0803341223
C   C266      1.0  0.39778  0.38852  0.63350  1.0000 -0.0803341223
C   C267      1.0  0.75502  0.76428  0.36650  1.0000 -0.0803341223
C   C268      1.0  0.01428  0.14778  0.50926  1.0000 -0.0803341223
C   C269      1.0  0.61148  0.24498  0.00926  1.0000 -0.0803341223
C   C270      1.0  0.85222  0.36148  0.86650  1.0000 -0.0803341223
C   C271      1.0  0.49498  0.98572  0.13350  1.0000 -0.0803341223
C   C272      1.0  0.23572  0.60222  0.99074  1.0000 -0.0803341223
C   C273      1.0  0.63919  0.51062  0.44457  1.0000 -0.1604651725
C   C274      1.0  0.44462  0.38919  0.62857  1.0000 -0.1604651725
C   C275      1.0  0.76062  0.81605  0.37143  1.0000 -0.1604651725
C   C276      1.0  0.06605  0.19462  0.55543  1.0000 -0.1604651725
C   C277      1.0  0.61081  0.23938  0.05543  1.0000 -0.1604651725
C   C278      1.0  0.80538  0.36081  0.87143  1.0000 -0.1604651725
C   C279      1.0  0.48938  0.93395  0.12857  1.0000 -0.1604651725
C   C280      1.0  0.18395  0.55538  0.94457  1.0000 -0.1604651725
C   C281      1.0  0.59877  0.44195  0.40816  1.0000 0.4408484471
C   C282      1.0  0.44061  0.34877  0.65682  1.0000 0.4408484471
C   C283      1.0  0.69195  0.78379  0.34318  1.0000 0.4408484471
C   C284      1.0  0.03379  0.19061  0.59184  1.0000 0.4408484471
C   C285      1.0  0.65123  0.30805  0.09184  1.0000 0.4408484471
C   C286      1.0  0.80939  0.40123  0.84318  1.0000 0.4408484471
C   C287      1.0  0.55805  0.96621  0.15682  1.0000 0.4408484471
C   C288      1.0  0.21621  0.55939  0.90816  1.0000 0.4408484471
C   C289      1.0  0.53820  0.37281  0.28941  1.0000 0.4572373917
C   C290      1.0  0.49879  0.28820  0.66539  1.0000 0.4572373917
C   C291      1.0  0.62281  0.83340  0.33461  1.0000 0.4572373917
C   C292      1.0  0.08340  0.24879  0.71059  1.0000 0.4572373917
C   C293      1.0  0.71180  0.37719  0.21059  1.0000 0.4572373917
C   C294      1.0  0.75121  0.46180  0.83461  1.0000 0.4572373917
C   C295      1.0  0.62719  0.91660  0.16539  1.0000 0.4572373917
C   C296      1.0  0.16660  0.50121  0.78941  1.0000 0.4572373917
C   C297      1.0  0.49387  0.30486  0.24973  1.0000 -0.3084653383
C   C298      1.0  0.49414  0.24387  0.68901  1.0000 -0.3084653383
C   C299      1.0  0.55486  0.80513  0.31099  1.0000 -0.3084653383
C   C300      1.0  0.05513  0.24414  0.75027  1.0000 -0.3084653383
C   C301      1.0  0.75613  0.44514  0.25027  1.0000 -0.3084653383
C   C302      1.0  0.75586  0.50613  0.81099  1.0000 -0.3084653383
C   C303      1.0  0.69514  0.94487  0.18901  1.0000 -0.3084653383
C   C304      1.0  0.19487  0.50586  0.74973  1.0000 -0.3084653383
C   C305      1.0  0.39830  0.24670  0.22960  1.0000 -0.3627121439
C   C306      1.0  0.41870  0.14830  0.65160  1.0000 -0.3627121439
C   C307      1.0  0.49670  0.76710  0.34840  1.0000 -0.3627121439
C   C308      1.0  0.01710  0.16870  0.77040  1.0000 -0.3627121439
C   C309      1.0  0.85170  0.50330  0.27040  1.0000 -0.3627121439
C   C310      1.0  0.83130  0.60170  0.84840  1.0000 -0.3627121439
C   C311      1.0  0.75330  0.98290  0.15160  1.0000 -0.3627121439
C   C312      1.0  0.23290  0.58130  0.72960  1.0000 -0.3627121439
C   C313      1.0  0.88993  0.56261  0.94374  1.0000 0.0815505767
C   C314      1.0  0.19619  0.63993  0.82732  1.0000 0.0815505767
C   C315      1.0  0.81261  0.36887  0.17268  1.0000 0.0815505767
C   C316      1.0  0.61887  0.94619  0.05626  1.0000 0.0815505767
C   C317      1.0  0.36007  0.18739  0.55626  1.0000 0.0815505767
C   C318      1.0  0.05381  0.11007  0.67268  1.0000 0.0815505767
C   C319      1.0  0.43739  0.38113  0.32732  1.0000 0.0815505767
C   C320      1.0  0.63113  0.80381  0.44374  1.0000 0.0815505767
C   C321      1.0  0.95704  0.63626  0.97810  1.0000 -0.2106603159
C   C322      1.0  0.22894  0.70704  0.82078  1.0000 -0.2106603159
C   C323      1.0  0.88626  0.40816  0.17922  1.0000 -0.2106603159
C   C324      1.0  0.65816  0.97894  0.02190  1.0000 -0.2106603159
C   C325      1.0  0.29296  0.11374  0.52190  1.0000 -0.2106603159
C   C326      1.0  0.02106  0.04296  0.67922  1.0000 -0.2106603159
C   C327      1.0  0.36374  0.34184  0.32078  1.0000 -0.2106603159
C   C328      1.0  0.59184  0.77106  0.47810  1.0000 -0.2106603159
C   C329      1.0  0.95659  0.63776  0.02335  1.0000 0.1588090258
C   C330      1.0  0.18324  0.70659  0.81883  1.0000 0.1588090258
C   C331      1.0  0.88776  0.36441  0.18117  1.0000 0.1588090258
C   C332      1.0  0.61441  0.93324  0.97665  1.0000 0.1588090258
C   C333      1.0  0.29341  0.11224  0.47665  1.0000 0.1588090258
C   C334      1.0  0.06676  0.04341  0.68117  1.0000 0.1588090258
C   C335      1.0  0.36224  0.38559  0.31883  1.0000 0.1588090258
C   C336      1.0  0.63559  0.81676  0.52335  1.0000 0.1588090258
C   C337      1.0  0.88866  0.56238  0.03304  1.0000 -0.191384404
C   C338      1.0  0.10562  0.63866  0.82628  1.0000 -0.191384404
C   C339      1.0  0.81238  0.27934  0.17372  1.0000 -0.191384404
C   C340      1.0  0.52934  0.85562  0.96696  1.0000 -0.191384404
C   C341      1.0  0.36134  0.18762  0.46696  1.0000 -0.191384404
C   C342      1.0  0.14438  0.11134  0.67372  1.0000 -0.191384404
C   C343      1.0  0.43762  0.47066  0.32628  1.0000 -0.191384404
C   C344      1.0  0.72066  0.89438  0.53304  1.0000 -0.191384404
C   C345      1.0  0.82364  0.49097  0.99641  1.0000 0.1015164921
C   C346      1.0  0.07723  0.57364  0.83267  1.0000 0.1015164921
C   C347      1.0  0.74097  0.24456  0.16733  1.0000 0.1015164921
C   C348      1.0  0.49456  0.82723  0.00359  1.0000 0.1015164921
C   C349      1.0  0.42636  0.25903  0.50359  1.0000 0.1015164921
C   C350      1.0  0.17277  0.17636  0.66733  1.0000 0.1015164921
C   C351      1.0  0.50903  0.50544  0.33267  1.0000 0.1015164921
C   C352      1.0  0.75544  0.92277  0.49641  1.0000 0.1015164921
C   C353      1.0  0.02798  0.71889  0.06227  1.0000 -0.2386870906
C   C354      1.0  0.21571  0.77798  0.80909  1.0000 -0.2386870906
C   C355      1.0  0.96889  0.40662  0.19091  1.0000 -0.2386870906
C   C356      1.0  0.65662  0.96571  0.93773  1.0000 -0.2386870906
C   C357      1.0  0.22202  0.03111  0.43773  1.0000 -0.2386870906
C   C358      1.0  0.03429  0.97202  0.69091  1.0000 -0.2386870906
C   C359      1.0  0.28111  0.34338  0.30909  1.0000 -0.2386870906
C   C360      1.0  0.59338  0.78429  0.56227  1.0000 -0.2386870906
N   N1        1.0  0.44334  0.18814  0.32284  1.0000 -0.331872548
N   N2        1.0  0.37050  0.19334  0.75520  1.0000 -0.331872548
N   N3        1.0  0.43814  0.61530  0.24480  1.0000 -0.331872548
N   N4        1.0  0.86530  0.12050  0.67716  1.0000 -0.331872548
N   N5        1.0  0.80666  0.56186  0.17716  1.0000 -0.331872548
N   N6        1.0  0.87950  0.55666  0.74480  1.0000 -0.331872548
N   N7        1.0  0.81186  0.13470  0.25520  1.0000 -0.331872548
N   N8        1.0  0.38470  0.62950  0.82284  1.0000 -0.331872548
N   N9        1.0  0.49316  0.19560  0.31044  1.0000 -0.3189231285
N   N10       1.0  0.43272  0.24316  0.79756  1.0000 -0.3189231285
N   N11       1.0  0.44560  0.63516  0.20244  1.0000 -0.3189231285
N   N12       1.0  0.88516  0.18272  0.68956  1.0000 -0.3189231285
N   N13       1.0  0.75684  0.55440  0.18956  1.0000 -0.3189231285
N   N14       1.0  0.81728  0.50684  0.70244  1.0000 -0.3189231285
N   N15       1.0  0.80440  0.11484  0.29756  1.0000 -0.3189231285
N   N16       1.0  0.36484  0.56728  0.81044  1.0000 -0.3189231285
N   N17       1.0  0.55071  0.24050  0.48981  1.0000 0.0379708195
N   N18       1.0  0.31090  0.30071  0.81021  1.0000 0.0379708195
N   N19       1.0  0.49050  0.50069  0.18979  1.0000 0.0379708195
N   N20       1.0  0.75069  0.06090  0.51019  1.0000 0.0379708195
N   N21       1.0  0.69929  0.50950  0.01019  1.0000 0.0379708195
N   N22       1.0  0.93910  0.44929  0.68979  1.0000 0.0379708195
N   N23       1.0  0.75950  0.24931  0.31021  1.0000 0.0379708195
N   N24       1.0  0.49931  0.68910  0.98981  1.0000 0.0379708195
N   N25       1.0  0.49293  0.12539  0.21638  1.0000 -0.3381998091
N   N26       1.0  0.52655  0.24293  0.86754  1.0000 -0.3381998091
N   N27       1.0  0.37539  0.65901  0.13246  1.0000 -0.3381998091
N   N28       1.0  0.90901  0.27655  0.78362  1.0000 -0.3381998091
N   N29       1.0  0.75707  0.62461  0.28362  1.0000 -0.3381998091
N   N30       1.0  0.72345  0.50707  0.63246  1.0000 -0.3381998091
N   N31       1.0  0.87461  0.09099  0.36754  1.0000 -0.3381998091
N   N32       1.0  0.34099  0.47345  0.71638  1.0000 -0.3381998091
N   N33       1.0  0.50923  0.16400  0.18179  1.0000 -0.3189231285
N   N34       1.0  0.57744  0.25923  0.84523  1.0000 -0.3189231285
N   N35       1.0  0.41400  0.73221  0.15477  1.0000 -0.3189231285
N   N36       1.0  0.98221  0.32744  0.81821  1.0000 -0.3189231285
N   N37       1.0  0.74077  0.58600  0.31821  1.0000 -0.3189231285
N   N38       1.0  0.67256  0.49077  0.65477  1.0000 -0.3189231285
N   N39       1.0  0.83600  0.01779  0.34523  1.0000 -0.3189231285
N   N40       1.0  0.26779  0.42256  0.68179  1.0000 -0.3189231285
N   N41       1.0  0.30213  0.96932  0.18865  1.0000 -0.2240443723
N   N42       1.0  0.36348  0.05213  0.83281  1.0000 -0.2240443723
N   N43       1.0  0.21932  0.53067  0.16719  1.0000 -0.2240443723
N   N44       1.0  0.78067  0.11348  0.81135  1.0000 -0.2240443723
N   N45       1.0  0.94787  0.78068  0.31135  1.0000 -0.2240443723
N   N46       1.0  0.88652  0.69787  0.66719  1.0000 -0.2240443723
N   N47       1.0  0.03068  0.21933  0.33281  1.0000 -0.2240443723
N   N48       1.0  0.46933  0.63652  0.68865  1.0000 -0.2240443723
N   N49       1.0  0.59155  0.44179  0.36404  1.0000 -0.3473583837
N   N50       1.0  0.47751  0.34155  0.64976  1.0000 -0.3381998091
N   N51       1.0  0.69179  0.82775  0.35024  1.0000 -0.3473583837
N   N52       1.0  0.07775  0.22751  0.63596  1.0000 -0.3473583837
N   N53       1.0  0.65845  0.30821  0.13596  1.0000 -0.3473583837
N   N54       1.0  0.77249  0.40845  0.85024  1.0000 -0.3381998091
N   N55       1.0  0.55821  0.92225  0.14976  1.0000 -0.3473583837
N   N56       1.0  0.17225  0.52249  0.86404  1.0000 -0.3473583837
N   N57       1.0  0.54837  0.37058  0.33193  1.0000 -0.3381998091
N   N58       1.0  0.46644  0.29837  0.67779  1.0000 -0.3381998091
N   N59       1.0  0.62058  0.78865  0.32221  1.0000 -0.3381998091
N   N60       1.0  0.03865  0.21644  0.66807  1.0000 -0.3381998091
N   N61       1.0  0.70163  0.37942  0.16807  1.0000 -0.3381998091
N   N62       1.0  0.78356  0.45163  0.82221  1.0000 -0.3381998091
N   N63       1.0  0.62942  0.96135  0.17779  1.0000 -0.3381998091
N   N64       1.0  0.21135  0.53356  0.83193  1.0000 -0.3381998091
N   N65       1.0  0.82289  0.48992  0.95199  1.0000 -0.2293977859
N   N66       1.0  0.12090  0.57289  0.83297  1.0000 -0.2293977859
N   N67       1.0  0.73992  0.28793  0.16703  1.0000 -0.2293977859
N   N68       1.0  0.53793  0.87090  0.04801  1.0000 -0.2293977859
N   N69       1.0  0.42711  0.26008  0.54801  1.0000 -0.2293977859
N   N70       1.0  0.12910  0.17711  0.66703  1.0000 -0.2293977859
N   N71       1.0  0.51008  0.46207  0.33297  1.0000 -0.2293977859
N   N72       1.0  0.71207  0.87910  0.45199  1.0000 -0.2293977859
O   O1        1.0  0.40610  0.23309  0.36727  1.0000 -0.4777392537
O   O2        1.0  0.28883  0.15610  0.67301  1.0000 -0.4777392537
O   O3        1.0  0.48309  0.61582  0.32699  1.0000 -0.4777392537
O   O4        1.0  0.86582  0.03883  0.63273  1.0000 -0.4777392537
O   O5        1.0  0.84390  0.51691  0.13273  1.0000 -0.4777392537
O   O6        1.0  0.96117  0.59390  0.82699  1.0000 -0.4777392537
O   O7        1.0  0.76691  0.13418  0.17301  1.0000 -0.4777392537
O   O8        1.0  0.38418  0.71117  0.86727  1.0000 -0.4777392537
O   O9        1.0  0.33571  0.05893  0.27216  1.0000 -0.4777392537
O   O10       1.0  0.31355  0.08571  0.77678  1.0000 -0.4777392537
O   O11       1.0  0.30893  0.53677  0.22322  1.0000 -0.4777392537
O   O12       1.0  0.78677  0.06355  0.72784  1.0000 -0.4777392537
O   O13       1.0  0.91429  0.69107  0.22784  1.0000 -0.4777392537
O   O14       1.0  0.93645  0.66429  0.72322  1.0000 -0.4777392537
O   O15       1.0  0.94107  0.21323  0.27678  1.0000 -0.4777392537
O   O16       1.0  0.46323  0.68645  0.77216  1.0000 -0.4777392537
O   O17       1.0  0.59396  0.31942  0.36666  1.0000 -0.5199621608
O   O18       1.0  0.47730  0.34396  0.77454  1.0000 -0.5199621608
O   O19       1.0  0.56942  0.70276  0.22546  1.0000 -0.5199621608
O   O20       1.0  0.95276  0.22730  0.63334  1.0000 -0.5199621608
O   O21       1.0  0.65604  0.43058  0.13334  1.0000 -0.5199621608
O   O22       1.0  0.77270  0.40604  0.72546  1.0000 -0.5199621608
O   O23       1.0  0.68058  0.04724  0.27454  1.0000 -0.5199621608
O   O24       1.0  0.29724  0.52270  0.86666  1.0000 -0.5199621608
O   O25       1.0  0.49388  0.23763  0.43133  1.0000 -0.44817797
O   O26       1.0  0.31255  0.24388  0.75625  1.0000 -0.44817797
O   O27       1.0  0.48763  0.55630  0.24375  1.0000 -0.44817797
O   O28       1.0  0.80630  0.06255  0.56867  1.0000 -0.44817797
O   O29       1.0  0.75612  0.51237  0.06867  1.0000 -0.44817797
O   O30       1.0  0.93745  0.50612  0.74375  1.0000 -0.44817797
O   O31       1.0  0.76237  0.19370  0.25625  1.0000 -0.44817797
O   O32       1.0  0.44370  0.68745  0.93133  1.0000 -0.44817797
O   O33       1.0  0.41542  0.03876  0.27958  1.0000 -0.4696541121
O   O34       1.0  0.38584  0.16542  0.87666  1.0000 -0.4696541121
O   O35       1.0  0.28876  0.50918  0.12334  1.0000 -0.4696541121
O   O36       1.0  0.75918  0.13584  0.72042  1.0000 -0.4696541121
O   O37       1.0  0.83458  0.71124  0.22042  1.0000 -0.4696541121
O   O38       1.0  0.86416  0.58458  0.62334  1.0000 -0.4696541121
O   O39       1.0  0.96124  0.24082  0.37666  1.0000 -0.4696541121
O   O40       1.0  0.49082  0.61416  0.77958  1.0000 -0.4696541121
O   O41       1.0  0.58727  0.15505  0.20062  1.0000 -0.4696541121
O   O42       1.0  0.63665  0.33727  0.93222  1.0000 -0.4696541121
O   O43       1.0  0.40505  0.70443  0.06778  1.0000 -0.4696541121
O   O44       1.0  0.95443  0.38665  0.79938  1.0000 -0.4696541121
O   O45       1.0  0.66273  0.59495  0.29938  1.0000 -0.4696541121
O   O46       1.0  0.61335  0.41273  0.56778  1.0000 -0.4696541121
O   O47       1.0  0.84495  0.04557  0.43222  1.0000 -0.4696541121
O   O48       1.0  0.29557  0.36335  0.70062  1.0000 -0.4696541121
O   O49       1.0  0.42502  0.14322  0.20774  1.0000 -0.489249873
O   O50       1.0  0.46728  0.17502  0.78180  1.0000 -0.489249873
O   O51       1.0  0.39322  0.68548  0.21820  1.0000 -0.489249873
O   O52       1.0  0.93548  0.21728  0.79226  1.0000 -0.489249873
O   O53       1.0  0.82498  0.60678  0.29226  1.0000 -0.489249873
O   O54       1.0  0.78272  0.57498  0.71820  1.0000 -0.489249873
O   O55       1.0  0.85678  0.06452  0.28180  1.0000 -0.489249873
O   O56       1.0  0.31452  0.53272  0.70774  1.0000 -0.489249873
O   O57       1.0  0.68359  0.59478  0.39355  1.0000 -0.489249873
O   O58       1.0  0.54004  0.43359  0.58881  1.0000 -0.489249873
O   O59       1.0  0.84478  0.95123  0.41119  1.0000 -0.489249873
O   O60       1.0  0.20123  0.29004  0.60645  1.0000 -0.489249873
O   O61       1.0  0.56641  0.15522  0.10645  1.0000 -0.489249873
O   O62       1.0  0.70996  0.31641  0.91119  1.0000 -0.489249873
O   O63       1.0  0.40522  0.79877  0.08881  1.0000 -0.489249873
O   O64       1.0  0.04877  0.45996  0.89355  1.0000 -0.489249873
O   O65       1.0  0.56973  0.38229  0.41962  1.0000 -0.4777392537
O   O66       1.0  0.40011  0.31973  0.68744  1.0000 -0.4777392537
O   O67       1.0  0.63229  0.71267  0.31256  1.0000 -0.4777392537
O   O68       1.0  0.96267  0.15011  0.58038  1.0000 -0.4777392537
O   O69       1.0  0.68027  0.36771  0.08038  1.0000 -0.4777392537
O   O70       1.0  0.84989  0.43027  0.81256  1.0000 -0.4777392537
O   O71       1.0  0.61771  0.03733  0.18744  1.0000 -0.4777392537
O   O72       1.0  0.28733  0.59989  0.91962  1.0000 -0.4777392537
O   O73       1.0  0.56518  0.43294  0.28006  1.0000 -0.489249873
O   O74       1.0  0.53512  0.31518  0.63224  1.0000 -0.489249873
O   O75       1.0  0.68294  0.90288  0.36776  1.0000 -0.489249873
O   O76       1.0  0.15288  0.28512  0.71994  1.0000 -0.489249873
O   O77       1.0  0.68482  0.31706  0.21994  1.0000 -0.489249873
O   O78       1.0  0.71488  0.43482  0.86776  1.0000 -0.489249873
O   O79       1.0  0.56706  0.84712  0.13224  1.0000 -0.489249873
O   O80       1.0  0.09712  0.46488  0.78006  1.0000 -0.489249873
