# DDEC6 charges by PACMAN v1.1 (https://github.com/mtap-research/PACMAN-charge/)
data_2005[Mn][lvt]3[FSR]4
_chemical_formula_sum              "Mn24 H512 C432 N72 O80"
_cell_length_a       30.1339
_cell_length_b       30.1339
_cell_length_c       30.1339
_cell_angle_alpha    94.8046
_cell_angle_beta     94.8046
_cell_angle_gamma    146.355

_symmetry_space_group_name_H-M    "P 1"
_symmetry_Int_Tables_number       1

loop_
  _symmetry_equiv_pos_as_xyz
  'x, y, z'

loop_
  _atom_site_type_symbol
  _atom_site_label
  _atom_site_symmetry_multiplicity
  _atom_site_fract_x
  _atom_site_fract_y
  _atom_site_fract_z
  _atom_site_occupancy
  _atom_site_charge
Mn  Mn1       1.0  0.11945  0.78593  0.10636  1.0000 0.7664015882
Mn  Mn2       1.0  0.26309  0.86945  0.83352  1.0000 0.7664015882
Mn  Mn3       1.0  0.03593  0.42957  0.16648  1.0000 0.7664015882
Mn  Mn4       1.0  0.67957  0.01309  0.89364  1.0000 0.7620510026
Mn  Mn5       1.0  0.13055  0.96407  0.39364  1.0000 0.7664015882
Mn  Mn6       1.0  0.98691  0.88055  0.66648  1.0000 0.7664015882
Mn  Mn7       1.0  0.21407  0.32043  0.33352  1.0000 0.7664015882
Mn  Mn8       1.0  0.57043  0.73691  0.60636  1.0000 0.7664015882
Mn  Mn9       1.0  0.98321  0.61554  0.21437  1.0000 0.8572566673
Mn  Mn10      1.0  0.01884  0.73321  0.86767  1.0000 0.852933602
Mn  Mn11      1.0  0.86554  0.15117  0.13233  1.0000 0.852933602
Mn  Mn12      1.0  0.40117  0.76884  0.78563  1.0000 0.852933602
Mn  Mn13      1.0  0.26679  0.13446  0.28563  1.0000 0.852933602
Mn  Mn14      1.0  0.23116  0.01679  0.63233  1.0000 0.852933602
Mn  Mn15      1.0  0.38446  0.59883  0.36767  1.0000 0.852933602
Mn  Mn16      1.0  0.84883  0.98116  0.71437  1.0000 0.852933602
Mn  Mn17      1.0  0.32975  0.07784  0.17159  1.0000 0.7379949703
Mn  Mn18      1.0  0.40816  0.07975  0.75191  1.0000 0.7379949703
Mn  Mn19      1.0  0.32784  0.65625  0.24809  1.0000 0.7379949703
Mn  Mn20      1.0  0.90625  0.15816  0.82841  1.0000 0.7379949703
Mn  Mn21      1.0  0.92025  0.67216  0.32841  1.0000 0.7379949703
Mn  Mn22      1.0  0.84184  0.67025  0.74809  1.0000 0.7379949703
Mn  Mn23      1.0  0.92216  0.09375  0.25191  1.0000 0.7379949703
Mn  Mn24      1.0  0.34375  0.59184  0.67159  1.0000 0.7379949703
H   H1        1.0  0.24920  0.78410  0.05810  1.0000 0.1297333832
H   H2        1.0  0.44110  0.99920  0.96510  1.0000 0.1297333832
H   H3        1.0  0.03410  0.47600  0.03490  1.0000 0.1297333832
H   H4        1.0  0.72600  0.19110  0.94190  1.0000 0.1297333832
H   H5        1.0  0.00080  0.96590  0.44190  1.0000 0.1297333832
H   H6        1.0  0.80890  0.75080  0.53490  1.0000 0.1297333832
H   H7        1.0  0.21590  0.27400  0.46510  1.0000 0.1297333832
H   H8        1.0  0.52400  0.55890  0.55810  1.0000 0.1297333832
H   H9        1.0  0.24440  0.70520  0.06600  1.0000 0.1097577146
H   H10       1.0  0.42840  0.99440  0.03920  1.0000 0.1097577146
H   H11       1.0  0.95520  0.38920  0.96080  1.0000 0.1097577146
H   H12       1.0  0.63920  0.17840  0.93400  1.0000 0.1097577146
H   H13       1.0  0.00560  0.04480  0.43400  1.0000 0.1097577146
H   H14       1.0  0.82160  0.75560  0.46080  1.0000 0.1097577146
H   H15       1.0  0.29480  0.36080  0.53920  1.0000 0.1097577146
H   H16       1.0  0.61080  0.57160  0.56600  1.0000 0.1097577146
H   H17       1.0  0.16800  0.61380  0.11300  1.0000 0.1202440233
H   H18       1.0  0.30500  0.91800  0.05420  1.0000 0.1202440233
H   H19       1.0  0.86380  0.25080  0.94580  1.0000 0.1202440233
H   H20       1.0  0.50080  0.05500  0.88700  1.0000 0.1202440233
H   H21       1.0  0.08200  0.13620  0.38700  1.0000 0.1202440233
H   H22       1.0  0.94500  0.83200  0.44580  1.0000 0.1202440233
H   H23       1.0  0.38620  0.49920  0.55420  1.0000 0.1202440233
H   H24       1.0  0.74920  0.69500  0.61300  1.0000 0.1202440233
H   H25       1.0  0.09890  0.60580  0.15130  1.0000 0.1202440233
H   H26       1.0  0.19760  0.84890  0.99310  1.0000 0.1202440233
H   H27       1.0  0.85580  0.20450  0.00690  1.0000 0.1202440233
H   H28       1.0  0.45450  0.94760  0.84870  1.0000 0.1202440233
H   H29       1.0  0.15110  0.14420  0.34870  1.0000 0.1202440233
H   H30       1.0  0.05240  0.90110  0.50690  1.0000 0.1202440233
H   H31       1.0  0.39420  0.54550  0.49310  1.0000 0.1202440233
H   H32       1.0  0.79550  0.80240  0.65130  1.0000 0.1202440233
H   H33       1.0  0.95200  0.69550  0.20470  1.0000 0.1379326937
H   H34       1.0  0.99730  0.70200  0.75650  1.0000 0.1379326937
H   H35       1.0  0.94550  0.24080  0.24350  1.0000 0.1379326937
H   H36       1.0  0.49080  0.74730  0.79530  1.0000 0.1379326937
H   H37       1.0  0.29800  0.05450  0.29530  1.0000 0.1379326937
H   H38       1.0  0.25270  0.04800  0.74350  1.0000 0.1379326937
H   H39       1.0  0.30450  0.50920  0.25650  1.0000 0.1379326937
H   H40       1.0  0.75920  0.00270  0.70470  1.0000 0.1379326937
H   H41       1.0  0.98720  0.76580  0.18440  1.0000 0.1297333832
H   H42       1.0  0.05280  0.73720  0.72140  1.0000 0.1297333832
H   H43       1.0  0.01580  0.33140  0.27860  1.0000 0.1297333832
H   H44       1.0  0.58140  0.80280  0.81560  1.0000 0.1297333832
H   H45       1.0  0.26280  0.98420  0.31560  1.0000 0.1297333832
H   H46       1.0  0.19720  0.01280  0.77860  1.0000 0.1297333832
H   H47       1.0  0.23420  0.41860  0.22140  1.0000 0.1297333832
H   H48       1.0  0.66860  0.94720  0.68440  1.0000 0.1297333832
H   H49       1.0  0.84380  0.58960  0.13240  1.0000 0.0911643892
H   H50       1.0  0.96140  0.59380  0.75420  1.0000 0.0911643892
H   H51       1.0  0.83960  0.20720  0.24580  1.0000 0.0911643892
H   H52       1.0  0.45720  0.71140  0.86760  1.0000 0.0911643892
H   H53       1.0  0.40620  0.16040  0.36760  1.0000 0.0911643892
H   H54       1.0  0.28860  0.15620  0.74580  1.0000 0.0911643892
H   H55       1.0  0.41040  0.54280  0.25420  1.0000 0.0911643892
H   H56       1.0  0.79280  0.03860  0.63240  1.0000 0.0911643892
H   H57       1.0  0.88190  0.65890  0.10880  1.0000 0.0911643892
H   H58       1.0  0.02310  0.63190  0.72300  1.0000 0.0911643892
H   H59       1.0  0.90890  0.30010  0.27700  1.0000 0.0911643892
H   H60       1.0  0.55010  0.77310  0.89120  1.0000 0.0911643892
H   H61       1.0  0.36810  0.09110  0.39120  1.0000 0.0911643892
H   H62       1.0  0.22690  0.11810  0.77700  1.0000 0.0911643892
H   H63       1.0  0.34110  0.44990  0.22300  1.0000 0.0911643892
H   H64       1.0  0.69990  0.97690  0.60880  1.0000 0.0911643892
H   H65       1.0  0.83580  0.67660  0.14780  1.0000 0.1202440233
H   H66       1.0  0.93800  0.58580  0.65920  1.0000 0.1202440233
H   H67       1.0  0.92660  0.27880  0.34080  1.0000 0.1202440233
H   H68       1.0  0.52880  0.68800  0.85220  1.0000 0.1202440233
H   H69       1.0  0.41420  0.07340  0.35220  1.0000 0.1202440233
H   H70       1.0  0.31200  0.16420  0.84080  1.0000 0.1202440233
H   H71       1.0  0.32340  0.47120  0.15920  1.0000 0.1202440233
H   H72       1.0  0.72120  0.06200  0.64780  1.0000 0.1202440233
H   H73       1.0  0.83610  0.64820  0.19010  1.0000 0.1297333832
H   H74       1.0  0.89600  0.58610  0.68790  1.0000 0.1297333832
H   H75       1.0  0.89820  0.20810  0.31210  1.0000 0.1297333832
H   H76       1.0  0.45810  0.64600  0.80990  1.0000 0.1297333832
H   H77       1.0  0.41390  0.10180  0.30990  1.0000 0.1297333832
H   H78       1.0  0.35400  0.16390  0.81210  1.0000 0.1297333832
H   H79       1.0  0.35180  0.54190  0.18790  1.0000 0.1297333832
H   H80       1.0  0.79190  0.10400  0.69010  1.0000 0.1297333832
H   H81       1.0  0.73000  0.55340  0.10660  1.0000 0.1097577146
H   H82       1.0  0.87340  0.48000  0.67660  1.0000 0.1097577146
H   H83       1.0  0.80340  0.19680  0.32340  1.0000 0.1097577146
H   H84       1.0  0.44680  0.62340  0.89340  1.0000 0.1097577146
H   H85       1.0  0.52000  0.19660  0.39340  1.0000 0.1097577146
H   H86       1.0  0.37660  0.27000  0.82340  1.0000 0.1097577146
H   H87       1.0  0.44660  0.55320  0.17660  1.0000 0.1097577146
H   H88       1.0  0.80320  0.12660  0.60660  1.0000 0.1097577146
H   H89       1.0  0.73080  0.52400  0.14800  1.0000 0.1097577146
H   H90       1.0  0.83280  0.48080  0.70680  1.0000 0.1097577146
H   H91       1.0  0.77400  0.12600  0.29320  1.0000 0.1097577146
H   H92       1.0  0.37600  0.58280  0.85200  1.0000 0.1097577146
H   H93       1.0  0.51920  0.22600  0.35200  1.0000 0.1097577146
H   H94       1.0  0.41720  0.26920  0.79320  1.0000 0.1097577146
H   H95       1.0  0.47600  0.62400  0.20680  1.0000 0.1097577146
H   H96       1.0  0.87400  0.16720  0.64800  1.0000 0.1097577146
H   H97       1.0  0.71180  0.60580  0.16000  1.0000 0.1202440233
H   H98       1.0  0.80180  0.46180  0.60600  1.0000 0.1202440233
H   H99       1.0  0.85580  0.19580  0.39400  1.0000 0.1202440233
H   H100      1.0  0.44580  0.55180  0.84000  1.0000 0.1202440233
H   H101      1.0  0.53820  0.14420  0.34000  1.0000 0.1202440233
H   H102      1.0  0.44820  0.28820  0.89400  1.0000 0.1202440233
H   H103      1.0  0.39420  0.55420  0.10600  1.0000 0.1202440233
H   H104      1.0  0.80420  0.19820  0.66000  1.0000 0.1202440233
H   H105      1.0  0.63200  0.50640  0.14420  1.0000 0.1297333832
H   H106      1.0  0.73780  0.38200  0.62560  1.0000 0.1297333832
H   H107      1.0  0.75640  0.11220  0.37440  1.0000 0.1297333832
H   H108      1.0  0.36220  0.48780  0.85580  1.0000 0.1297333832
H   H109      1.0  0.61800  0.24360  0.35580  1.0000 0.1297333832
H   H110      1.0  0.51220  0.36800  0.87440  1.0000 0.1297333832
H   H111      1.0  0.49360  0.63780  0.12560  1.0000 0.1297333832
H   H112      1.0  0.88780  0.26220  0.64420  1.0000 0.1297333832
H   H113      1.0  0.69600  0.55830  0.19470  1.0000 0.1097577146
H   H114      1.0  0.75130  0.44600  0.63770  1.0000 0.1097577146
H   H115      1.0  0.80830  0.11360  0.36230  1.0000 0.1097577146
H   H116      1.0  0.36360  0.50130  0.80530  1.0000 0.1097577146
H   H117      1.0  0.55400  0.19170  0.30530  1.0000 0.1097577146
H   H118      1.0  0.49870  0.30400  0.86230  1.0000 0.1097577146
H   H119      1.0  0.44170  0.63640  0.13770  1.0000 0.1097577146
H   H120      1.0  0.88640  0.24870  0.69470  1.0000 0.1097577146
H   H121      1.0  0.06070  0.71890  0.99600  1.0000 0.1202440233
H   H122      1.0  0.31470  0.81070  0.84180  1.0000 0.1202440233
H   H123      1.0  0.96890  0.47290  0.15820  1.0000 0.1202440233
H   H124      1.0  0.72290  0.06470  0.00400  1.0000 0.1202440233
H   H125      1.0  0.18930  0.03110  0.50400  1.0000 0.1202440233
H   H126      1.0  0.93530  0.93930  0.65820  1.0000 0.1202440233
H   H127      1.0  0.28110  0.27710  0.34180  1.0000 0.1202440233
H   H128      1.0  0.52710  0.68530  0.49600  1.0000 0.1202440233
H   H129      1.0  0.94700  0.60210  0.93450  1.0000 0.1494534788
H   H130      1.0  0.26250  0.69700  0.84490  1.0000 0.1494534788
H   H131      1.0  0.85210  0.41760  0.15510  1.0000 0.1494534788
H   H132      1.0  0.66760  0.01250  0.06550  1.0000 0.1494534788
H   H133      1.0  0.30300  0.14790  0.56550  1.0000 0.1494534788
H   H134      1.0  0.98750  0.05300  0.65510  1.0000 0.1494534788
H   H135      1.0  0.39790  0.33240  0.34490  1.0000 0.1494534788
H   H136      1.0  0.58240  0.73750  0.43450  1.0000 0.1494534788
H   H137      1.0  0.81440  0.47960  0.02560  1.0000 0.1379326937
H   H138      1.0  0.03880  0.56440  0.83480  1.0000 0.1379326937
H   H139      1.0  0.72960  0.20400  0.16520  1.0000 0.1379326937
H   H140      1.0  0.45400  0.78880  0.97440  1.0000 0.1379326937
H   H141      1.0  0.43560  0.27040  0.47440  1.0000 0.1379326937
H   H142      1.0  0.21120  0.18560  0.66520  1.0000 0.1379326937
H   H143      1.0  0.52040  0.54600  0.33480  1.0000 0.1379326937
H   H144      1.0  0.79600  0.96120  0.52560  1.0000 0.1379326937
H   H145      1.0  0.93100  0.59690  0.08470  1.0000 0.1097577146
H   H146      1.0  0.09630  0.68100  0.83410  1.0000 0.1097577146
H   H147      1.0  0.84690  0.26220  0.16590  1.0000 0.1097577146
H   H148      1.0  0.51220  0.84630  0.91530  1.0000 0.1097577146
H   H149      1.0  0.31900  0.15310  0.41530  1.0000 0.1097577146
H   H150      1.0  0.15370  0.06900  0.66590  1.0000 0.1097577146
H   H151      1.0  0.40310  0.48780  0.33410  1.0000 0.1097577146
H   H152      1.0  0.73780  0.90370  0.58470  1.0000 0.1097577146
H   H153      1.0  0.80810  0.44590  0.90960  1.0000 0.1202440233
H   H154      1.0  0.14850  0.55810  0.86220  1.0000 0.1202440233
H   H155      1.0  0.69590  0.28630  0.13780  1.0000 0.1202440233
H   H156      1.0  0.53630  0.89850  0.09040  1.0000 0.1202440233
H   H157      1.0  0.44190  0.30410  0.59040  1.0000 0.1202440233
H   H158      1.0  0.10150  0.19190  0.63780  1.0000 0.1202440233
H   H159      1.0  0.55410  0.46370  0.36220  1.0000 0.1202440233
H   H160      1.0  0.71370  0.85150  0.40960  1.0000 0.1202440233
H   H161      1.0  0.77460  0.46720  0.91500  1.0000 0.1297333832
H   H162      1.0  0.10960  0.52460  0.80740  1.0000 0.1297333832
H   H163      1.0  0.71720  0.30220  0.19260  1.0000 0.1297333832
H   H164      1.0  0.55220  0.85960  0.08500  1.0000 0.1297333832
H   H165      1.0  0.47540  0.28280  0.58500  1.0000 0.1297333832
H   H166      1.0  0.14040  0.22540  0.69260  1.0000 0.1297333832
H   H167      1.0  0.53280  0.44780  0.30740  1.0000 0.1297333832
H   H168      1.0  0.69780  0.89040  0.41500  1.0000 0.1297333832
H   H169      1.0  0.75070  0.40180  0.10390  1.0000 0.1297333832
H   H170      1.0  0.89680  0.50070  0.84890  1.0000 0.1297333832
H   H171      1.0  0.65180  0.04790  0.15110  1.0000 0.1297333832
H   H172      1.0  0.29790  0.64680  0.89610  1.0000 0.1297333832
H   H173      1.0  0.49930  0.34820  0.39610  1.0000 0.1297333832
H   H174      1.0  0.35320  0.24930  0.65110  1.0000 0.1297333832
H   H175      1.0  0.59820  0.70210  0.34890  1.0000 0.1297333832
H   H176      1.0  0.95210  0.10320  0.60390  1.0000 0.1297333832
H   H177      1.0  0.61640  0.30880  0.10200  1.0000 0.1097577146
H   H178      1.0  0.76440  0.36640  0.80760  1.0000 0.1097577146
H   H179      1.0  0.55880  0.95680  0.19240  1.0000 0.1097577146
H   H180      1.0  0.20680  0.51440  0.89800  1.0000 0.1097577146
H   H181      1.0  0.63360  0.44120  0.39800  1.0000 0.1097577146
H   H182      1.0  0.48560  0.38360  0.69240  1.0000 0.1097577146
H   H183      1.0  0.69120  0.79320  0.30760  1.0000 0.1097577146
H   H184      1.0  0.04320  0.23560  0.60200  1.0000 0.1097577146
H   H185      1.0  0.58490  0.31890  0.16700  1.0000 0.1202440233
H   H186      1.0  0.66790  0.33490  0.76600  1.0000 0.1202440233
H   H187      1.0  0.56890  0.90190  0.23400  1.0000 0.1202440233
H   H188      1.0  0.15190  0.41790  0.83300  1.0000 0.1202440233
H   H189      1.0  0.66510  0.43110  0.33300  1.0000 0.1202440233
H   H190      1.0  0.58210  0.41510  0.73400  1.0000 0.1202440233
H   H191      1.0  0.68110  0.84810  0.26600  1.0000 0.1202440233
H   H192      1.0  0.09810  0.33210  0.66700  1.0000 0.1202440233
H   H193      1.0  0.69440  0.43320  0.23120  1.0000 0.1202440233
H   H194      1.0  0.71320  0.44440  0.76120  1.0000 0.1202440233
H   H195      1.0  0.68320  0.95200  0.23880  1.0000 0.1202440233
H   H196      1.0  0.20200  0.46320  0.76880  1.0000 0.1202440233
H   H197      1.0  0.55560  0.31680  0.26880  1.0000 0.1202440233
H   H198      1.0  0.53680  0.30560  0.73880  1.0000 0.1202440233
H   H199      1.0  0.56680  0.79800  0.26120  1.0000 0.1202440233
H   H200      1.0  0.04800  0.28680  0.73120  1.0000 0.1202440233
H   H201      1.0  0.17760  0.85410  0.32510  1.0000 0.1379326937
H   H202      1.0  0.10250  0.92760  0.82350  1.0000 0.1379326937
H   H203      1.0  0.10410  0.27900  0.17650  1.0000 0.1379326937
H   H204      1.0  0.52900  0.85250  0.67490  1.0000 0.1379326937
H   H205      1.0  0.07240  0.89590  0.17490  1.0000 0.1379326937
H   H206      1.0  0.14750  0.82240  0.67650  1.0000 0.1379326937
H   H207      1.0  0.14590  0.47100  0.32350  1.0000 0.1379326937
H   H208      1.0  0.72100  0.89750  0.82510  1.0000 0.1379326937
H   H209      1.0  0.11600  0.80990  0.35730  1.0000 0.1379326937
H   H210      1.0  0.00870  0.86600  0.80610  1.0000 0.1379326937
H   H211      1.0  0.05990  0.20260  0.19390  1.0000 0.1379326937
H   H212      1.0  0.45260  0.75870  0.64270  1.0000 0.1379326937
H   H213      1.0  0.13400  0.94010  0.14270  1.0000 0.1379326937
H   H214      1.0  0.24130  0.88400  0.69390  1.0000 0.1379326937
H   H215      1.0  0.19010  0.54740  0.30610  1.0000 0.1379326937
H   H216      1.0  0.79740  0.99130  0.85730  1.0000 0.1379326937
H   H217      1.0  0.19600  0.79410  0.34490  1.0000 0.0911643892
H   H218      1.0  0.10110  0.94600  0.90190  1.0000 0.0911643892
H   H219      1.0  0.04410  0.19920  0.09810  1.0000 0.0911643892
H   H220      1.0  0.44920  0.85110  0.65510  1.0000 0.0911643892
H   H221      1.0  0.05400  0.95590  0.15510  1.0000 0.0911643892
H   H222      1.0  0.14890  0.80400  0.59810  1.0000 0.0911643892
H   H223      1.0  0.20590  0.55080  0.40190  1.0000 0.0911643892
H   H224      1.0  0.80080  0.89890  0.84490  1.0000 0.0911643892
H   H225      1.0  0.22950  0.85720  0.38890  1.0000 0.0911643892
H   H226      1.0  0.09060  0.97950  0.87230  1.0000 0.0911643892
H   H227      1.0  0.10720  0.21830  0.12770  1.0000 0.0911643892
H   H228      1.0  0.46830  0.84060  0.61110  1.0000 0.0911643892
H   H229      1.0  0.02050  0.89280  0.11110  1.0000 0.0911643892
H   H230      1.0  0.15940  0.77050  0.62770  1.0000 0.0911643892
H   H231      1.0  0.14280  0.53170  0.37230  1.0000 0.0911643892
H   H232      1.0  0.78170  0.90940  0.88890  1.0000 0.0911643892
H   H233      1.0  0.07390  0.67940  0.36670  1.0000 0.0999662987
H   H234      1.0  0.95720  0.82390  0.89450  1.0000 0.0999662987
H   H235      1.0  0.92940  0.06270  0.10550  1.0000 0.0999662987
H   H236      1.0  0.31270  0.70720  0.63330  1.0000 0.0999662987
H   H237      1.0  0.17610  0.07060  0.13330  1.0000 0.0999662987
H   H238      1.0  0.29280  0.92610  0.60550  1.0000 0.0999662987
H   H239      1.0  0.32060  0.68730  0.39450  1.0000 0.0999662987
H   H240      1.0  0.93730  0.04280  0.86670  1.0000 0.0999662987
H   H241      1.0  0.10220  0.74030  0.40910  1.0000 0.1097577146
H   H242      1.0  0.94310  0.85220  0.86190  1.0000 0.1097577146
H   H243      1.0  0.99030  0.08120  0.13810  1.0000 0.1097577146
H   H244      1.0  0.33120  0.69310  0.59090  1.0000 0.1097577146
H   H245      1.0  0.14780  0.00970  0.09090  1.0000 0.1097577146
H   H246      1.0  0.30690  0.89780  0.63810  1.0000 0.1097577146
H   H247      1.0  0.25970  0.66880  0.36190  1.0000 0.1097577146
H   H248      1.0  0.91880  0.05690  0.90910  1.0000 0.1097577146
H   H249      1.0  0.18690  0.72930  0.40240  1.0000 0.0911643892
H   H250      1.0  0.03450  0.93690  0.95760  1.0000 0.0911643892
H   H251      1.0  0.97930  0.07690  0.04240  1.0000 0.0911643892
H   H252      1.0  0.32690  0.78450  0.59760  1.0000 0.0911643892
H   H253      1.0  0.06310  0.02070  0.09760  1.0000 0.0911643892
H   H254      1.0  0.21550  0.81310  0.54240  1.0000 0.0911643892
H   H255      1.0  0.27070  0.67310  0.45760  1.0000 0.0911643892
H   H256      1.0  0.92310  0.96550  0.90240  1.0000 0.0911643892
H   H257      1.0  0.21460  0.78970  0.44510  1.0000 0.0999662987
H   H258      1.0  0.01950  0.96460  0.92490  1.0000 0.0999662987
H   H259      1.0  0.03970  0.09460  0.07510  1.0000 0.0999662987
H   H260      1.0  0.34460  0.76950  0.55490  1.0000 0.0999662987
H   H261      1.0  0.03540  0.96030  0.05490  1.0000 0.0999662987
H   H262      1.0  0.23050  0.78540  0.57510  1.0000 0.0999662987
H   H263      1.0  0.21030  0.65540  0.42490  1.0000 0.0999662987
H   H264      1.0  0.90540  0.98050  0.94510  1.0000 0.0999662987
H   H265      1.0  0.06070  0.61170  0.42160  1.0000 0.1297333832
H   H266      1.0  0.88910  0.81070  0.94900  1.0000 0.1297333832
H   H267      1.0  0.86170  0.94010  0.05100  1.0000 0.1297333832
H   H268      1.0  0.19010  0.63910  0.57840  1.0000 0.1297333832
H   H269      1.0  0.18930  0.13830  0.07840  1.0000 0.1297333832
H   H270      1.0  0.36090  0.93930  0.55100  1.0000 0.1297333832
H   H271      1.0  0.38830  0.80990  0.44900  1.0000 0.1297333832
H   H272      1.0  0.05990  0.11090  0.92160  1.0000 0.1297333832
H   H273      1.0  0.13890  0.66890  0.46460  1.0000 0.1202440233
H   H274      1.0  0.92430  0.88890  0.97000  1.0000 0.1202440233
H   H275      1.0  0.91890  0.95430  0.03000  1.0000 0.1202440233
H   H276      1.0  0.20430  0.67430  0.53540  1.0000 0.1202440233
H   H277      1.0  0.11110  0.08110  0.03540  1.0000 0.1202440233
H   H278      1.0  0.32570  0.86110  0.53000  1.0000 0.1202440233
H   H279      1.0  0.33110  0.79570  0.47000  1.0000 0.1202440233
H   H280      1.0  0.04570  0.07570  0.96460  1.0000 0.1202440233
H   H281      1.0  0.08870  0.67220  0.46430  1.0000 0.1202440233
H   H282      1.0  0.87440  0.83870  0.91650  1.0000 0.1202440233
H   H283      1.0  0.92220  0.95790  0.08350  1.0000 0.1202440233
H   H284      1.0  0.20790  0.62440  0.53570  1.0000 0.1202440233
H   H285      1.0  0.16130  0.07780  0.03570  1.0000 0.1202440233
H   H286      1.0  0.37560  0.91130  0.58350  1.0000 0.1202440233
H   H287      1.0  0.32780  0.79210  0.41650  1.0000 0.1202440233
H   H288      1.0  0.04210  0.12560  0.96430  1.0000 0.1202440233
H   H289      1.0  0.06770  0.62140  0.28430  1.0000 0.1097577146
H   H290      1.0  0.03340  0.81770  0.94630  1.0000 0.1097577146
H   H291      1.0  0.87140  0.08710  0.05370  1.0000 0.1097577146
H   H292      1.0  0.33710  0.78340  0.71570  1.0000 0.1097577146
H   H293      1.0  0.18230  0.12860  0.21570  1.0000 0.1097577146
H   H294      1.0  0.21660  0.93230  0.55370  1.0000 0.1097577146
H   H295      1.0  0.37860  0.66290  0.44630  1.0000 0.1097577146
H   H296      1.0  0.91290  0.96660  0.78430  1.0000 0.1097577146
H   H297      1.0  0.88760  0.41070  0.25710  1.0000 0.1379326937
H   H298      1.0  0.88050  0.63760  0.97690  1.0000 0.1379326937
H   H299      1.0  0.66070  0.90360  0.02310  1.0000 0.1379326937
H   H300      1.0  0.15360  0.63050  0.74290  1.0000 0.1379326937
H   H301      1.0  0.36240  0.33930  0.24290  1.0000 0.1379326937
H   H302      1.0  0.36950  0.11240  0.52310  1.0000 0.1379326937
H   H303      1.0  0.58930  0.84640  0.47690  1.0000 0.1379326937
H   H304      1.0  0.09640  0.11950  0.75710  1.0000 0.1379326937
H   H305      1.0  0.93630  0.40550  0.26300  1.0000 0.1379326937
H   H306      1.0  0.92330  0.68630  0.03080  1.0000 0.1379326937
H   H307      1.0  0.65550  0.89250  0.96920  1.0000 0.1379326937
H   H308      1.0  0.14250  0.67330  0.73700  1.0000 0.1379326937
H   H309      1.0  0.31370  0.34450  0.23700  1.0000 0.1379326937
H   H310      1.0  0.32670  0.06370  0.46920  1.0000 0.1379326937
H   H311      1.0  0.59450  0.85750  0.53080  1.0000 0.1379326937
H   H312      1.0  0.10750  0.07670  0.76300  1.0000 0.1379326937
H   H313      1.0  0.91160  0.40990  0.30610  1.0000 0.1379326937
H   H314      1.0  0.85550  0.66160  0.00170  1.0000 0.1379326937
H   H315      1.0  0.65990  0.85380  0.99830  1.0000 0.1379326937
H   H316      1.0  0.10380  0.60550  0.69390  1.0000 0.1379326937
H   H317      1.0  0.33840  0.34010  0.19390  1.0000 0.1379326937
H   H318      1.0  0.39450  0.08840  0.49830  1.0000 0.1379326937
H   H319      1.0  0.59010  0.89620  0.50170  1.0000 0.1379326937
H   H320      1.0  0.14620  0.14450  0.80610  1.0000 0.1379326937
H   H321      1.0  0.06610  0.54340  0.35110  1.0000 0.1494534788
H   H322      1.0  0.96500  0.81610  0.02270  1.0000 0.1494534788
H   H323      1.0  0.79340  0.94230  0.97730  1.0000 0.1494534788
H   H324      1.0  0.19230  0.71500  0.64890  1.0000 0.1494534788
H   H325      1.0  0.18390  0.20660  0.14890  1.0000 0.1494534788
H   H326      1.0  0.28500  0.93390  0.47730  1.0000 0.1494534788
H   H327      1.0  0.45660  0.80770  0.52270  1.0000 0.1494534788
H   H328      1.0  0.05770  0.03500  0.85110  1.0000 0.1494534788
H   H329      1.0  0.08270  0.53000  0.30670  1.0000 0.1494534788
H   H330      1.0  0.02600  0.83270  0.05270  1.0000 0.1494534788
H   H331      1.0  0.78000  0.97330  0.94730  1.0000 0.1494534788
H   H332      1.0  0.22330  0.77600  0.69330  1.0000 0.1494534788
H   H333      1.0  0.16730  0.22000  0.19330  1.0000 0.1494534788
H   H334      1.0  0.22400  0.91730  0.44730  1.0000 0.1494534788
H   H335      1.0  0.47000  0.77670  0.55270  1.0000 0.1494534788
H   H336      1.0  0.02670  0.97400  0.80670  1.0000 0.1494534788
H   H337      1.0  0.12690  0.61460  0.32490  1.0000 0.1297333832
H   H338      1.0  0.05200  0.87690  0.01230  1.0000 0.1297333832
H   H339      1.0  0.86460  0.03970  0.98770  1.0000 0.1297333832
H   H340      1.0  0.28970  0.80200  0.67510  1.0000 0.1297333832
H   H341      1.0  0.12310  0.13540  0.17510  1.0000 0.1297333832
H   H342      1.0  0.19800  0.87310  0.48770  1.0000 0.1297333832
H   H343      1.0  0.38540  0.71030  0.51230  1.0000 0.1297333832
H   H344      1.0  0.96030  0.94800  0.82490  1.0000 0.1297333832
H   H345      1.0  0.34320  0.16610  0.05810  1.0000 0.1379326937
H   H346      1.0  0.53510  0.09320  0.67710  1.0000 0.1379326937
H   H347      1.0  0.41610  0.85800  0.32290  1.0000 0.1379326937
H   H348      1.0  0.10800  0.28510  0.94190  1.0000 0.1379326937
H   H349      1.0  0.90680  0.58390  0.44190  1.0000 0.1379326937
H   H350      1.0  0.71490  0.65680  0.82290  1.0000 0.1379326937
H   H351      1.0  0.83390  0.89200  0.17710  1.0000 0.1379326937
H   H352      1.0  0.14200  0.46490  0.55810  1.0000 0.1379326937
H   H353      1.0  0.28320  0.10380  0.97960  1.0000 0.1097577146
H   H354      1.0  0.55360  0.03320  0.67940  1.0000 0.1097577146
H   H355      1.0  0.35380  0.87420  0.32060  1.0000 0.1097577146
H   H356      1.0  0.12420  0.30360  0.02040  1.0000 0.1097577146
H   H357      1.0  0.96680  0.64620  0.52040  1.0000 0.1097577146
H   H358      1.0  0.69640  0.71680  0.82060  1.0000 0.1097577146
H   H359      1.0  0.89620  0.87580  0.17940  1.0000 0.1097577146
H   H360      1.0  0.12580  0.44640  0.47960  1.0000 0.1097577146
H   H361      1.0  0.19550  0.96910  0.94820  1.0000 0.1202440233
H   H362      1.0  0.49730  0.94550  0.72640  1.0000 0.1202440233
H   H363      1.0  0.21910  0.77090  0.27360  1.0000 0.1202440233
H   H364      1.0  0.02090  0.24730  0.05180  1.0000 0.1202440233
H   H365      1.0  0.05450  0.78090  0.55180  1.0000 0.1202440233
H   H366      1.0  0.75270  0.80450  0.77360  1.0000 0.1202440233
H   H367      1.0  0.03090  0.97910  0.22640  1.0000 0.1202440233
H   H368      1.0  0.22910  0.50270  0.44820  1.0000 0.1202440233
H   H369      1.0  0.16230  0.89460  0.99790  1.0000 0.1097577146
H   H370      1.0  0.41440  0.91230  0.76770  1.0000 0.1097577146
H   H371      1.0  0.14460  0.64670  0.23230  1.0000 0.1097577146
H   H372      1.0  0.89670  0.16440  0.00210  1.0000 0.1097577146
H   H373      1.0  0.08770  0.85540  0.50210  1.0000 0.1097577146
H   H374      1.0  0.83560  0.83770  0.73230  1.0000 0.1097577146
H   H375      1.0  0.10540  0.10330  0.26770  1.0000 0.1097577146
H   H376      1.0  0.35330  0.58560  0.49790  1.0000 0.1097577146
H   H377      1.0  0.21220  0.85150  0.21450  1.0000 0.1379326937
H   H378      1.0  0.24770  0.96220  0.86070  1.0000 0.1379326937
H   H379      1.0  0.10150  0.38700  0.13930  1.0000 0.1379326937
H   H380      1.0  0.63700  0.99770  0.78550  1.0000 0.1379326937
H   H381      1.0  0.03780  0.89850  0.28550  1.0000 0.1379326937
H   H382      1.0  0.00230  0.78780  0.63930  1.0000 0.1379326937
H   H383      1.0  0.14850  0.36300  0.36070  1.0000 0.1379326937
H   H384      1.0  0.61300  0.75230  0.71450  1.0000 0.1379326937
H   H385      1.0  0.25330  0.91990  0.25880  1.0000 0.1297333832
H   H386      1.0  0.24450  0.00330  0.83340  1.0000 0.1297333832
H   H387      1.0  0.16990  0.41110  0.16660  1.0000 0.1297333832
H   H388      1.0  0.66110  0.99450  0.74120  1.0000 0.1297333832
H   H389      1.0  0.99670  0.83010  0.24120  1.0000 0.1297333832
H   H390      1.0  0.00550  0.74670  0.66667  1.0000 0.1297333832
H   H391      1.0  0.08010  0.33890  0.33340  1.0000 0.1297333832
H   H392      1.0  0.58890  0.75550  0.75880  1.0000 0.1297333832
H   H393      1.0  0.38960  0.01160  0.25280  1.0000 0.0911643892
H   H394      1.0  0.38680  0.13960  0.87800  1.0000 0.0911643892
H   H395      1.0  0.26160  0.50880  0.12200  1.0000 0.0911643892
H   H396      1.0  0.75880  0.13680  0.74720  1.0000 0.0911643892
H   H397      1.0  0.86040  0.73840  0.24720  1.0000 0.0911643892
H   H398      1.0  0.86320  0.61040  0.62200  1.0000 0.0911643892
H   H399      1.0  0.98840  0.24120  0.37800  1.0000 0.0911643892
H   H400      1.0  0.49120  0.61320  0.75280  1.0000 0.0911643892
H   H401      1.0  0.33860  0.92940  0.26520  1.0000 0.0911643892
H   H402      1.0  0.32340  0.08860  0.90920  1.0000 0.0911643892
H   H403      1.0  0.17940  0.41420  0.09080  1.0000 0.0911643892
H   H404      1.0  0.66420  0.07340  0.73480  1.0000 0.0911643892
H   H405      1.0  0.91140  0.82060  0.23480  1.0000 0.0911643892
H   H406      1.0  0.92660  0.66140  0.59080  1.0000 0.0911643892
H   H407      1.0  0.07060  0.33580  0.40920  1.0000 0.0911643892
H   H408      1.0  0.58580  0.67660  0.76520  1.0000 0.0911643892
H   H409      1.0  0.35370  0.95260  0.17510  1.0000 0.1097577146
H   H410      1.0  0.42860  0.10370  0.90110  1.0000 0.1097577146
H   H411      1.0  0.20260  0.52750  0.09890  1.0000 0.1097577146
H   H412      1.0  0.77750  0.17860  0.82490  1.0000 0.1097577146
H   H413      1.0  0.89630  0.79740  0.32490  1.0000 0.1097577146
H   H414      1.0  0.82140  0.64630  0.59890  1.0000 0.1097577146
H   H415      1.0  0.04740  0.22250  0.40110  1.0000 0.1097577146
H   H416      1.0  0.47250  0.57140  0.67510  1.0000 0.1097577146
H   H417      1.0  0.30120  0.86950  0.18690  1.0000 0.1097577146
H   H418      1.0  0.36430  0.05120  0.93170  1.0000 0.1097577146
H   H419      1.0  0.11950  0.43260  0.06830  1.0000 0.1097577146
H   H420      1.0  0.68260  0.11430  0.81310  1.0000 0.1097577146
H   H421      1.0  0.94880  0.88050  0.31310  1.0000 0.1097577146
H   H422      1.0  0.88570  0.69880  0.56830  1.0000 0.1097577146
H   H423      1.0  0.13050  0.31740  0.43170  1.0000 0.1097577146
H   H424      1.0  0.56740  0.63570  0.68690  1.0000 0.1097577146
H   H425      1.0  0.47830  0.02770  0.22060  1.0000 0.0911643892
H   H426      1.0  0.50770  0.22830  0.95060  1.0000 0.0911643892
H   H427      1.0  0.27770  0.55710  0.04940  1.0000 0.0911643892
H   H428      1.0  0.80710  0.25770  0.77940  1.0000 0.0911643892
H   H429      1.0  0.77170  0.72230  0.27940  1.0000 0.0911643892
H   H430      1.0  0.74230  0.52170  0.54940  1.0000 0.0911643892
H   H431      1.0  0.97230  0.19290  0.45060  1.0000 0.0911643892
H   H432      1.0  0.44290  0.49230  0.72060  1.0000 0.0911643892
H   H433      1.0  0.42640  0.94540  0.23360  1.0000 0.0911643892
H   H434      1.0  0.44280  0.17640  0.98100  1.0000 0.0911643892
H   H435      1.0  0.19540  0.46180  0.01900  1.0000 0.0911643892
H   H436      1.0  0.71180  0.19280  0.76640  1.0000 0.0911643892
H   H437      1.0  0.82360  0.80460  0.26640  1.0000 0.0911643892
H   H438      1.0  0.80720  0.57360  0.51900  1.0000 0.0911643892
H   H439      1.0  0.05460  0.28820  0.48100  1.0000 0.0911643892
H   H440      1.0  0.53820  0.55720  0.73360  1.0000 0.0911643892
H   H441      1.0  0.39120  0.88410  0.15770  1.0000 0.1202440233
H   H442      1.0  0.48350  0.14120  0.00710  1.0000 0.1202440233
H   H443      1.0  0.13410  0.47640  0.99290  1.0000 0.1202440233
H   H444      1.0  0.72640  0.23350  0.84230  1.0000 0.1202440233
H   H445      1.0  0.85880  0.86590  0.34230  1.0000 0.1202440233
H   H446      1.0  0.76650  0.60880  0.49290  1.0000 0.1202440233
H   H447      1.0  0.11590  0.27360  0.50710  1.0000 0.1202440233
H   H448      1.0  0.52360  0.51650  0.65770  1.0000 0.1202440233
H   H449      1.0  0.49030  0.97410  0.17500  1.0000 0.1097577146
H   H450      1.0  0.56530  0.24030  0.01620  1.0000 0.1097577146
H   H451      1.0  0.22410  0.54910  0.98380  1.0000 0.1097577146
H   H452      1.0  0.79910  0.31530  0.82500  1.0000 0.1097577146
H   H453      1.0  0.75970  0.77590  0.32500  1.0000 0.1097577146
H   H454      1.0  0.68470  0.50970  0.48380  1.0000 0.1202440233
H   H455      1.0  0.02590  0.20090  0.51620  1.0000 0.1097577146
H   H456      1.0  0.45090  0.43470  0.67500  1.0000 0.1097577146
H   H457      1.0  0.43380  0.96050  0.14150  1.0000 0.1202440233
H   H458      1.0  0.54230  0.18380  0.97330  1.0000 0.1202440233
H   H459      1.0  0.21050  0.56900  0.02670  1.0000 0.1202440233
H   H460      1.0  0.81900  0.29230  0.85850  1.0000 0.1202440233
H   H461      1.0  0.81620  0.78950  0.35850  1.0000 0.1202440233
H   H462      1.0  0.70770  0.56620  0.52670  1.0000 0.1202440233
H   H463      1.0  0.03950  0.18100  0.47330  1.0000 0.1202440233
H   H464      1.0  0.43100  0.45770  0.64150  1.0000 0.1202440233
H   H465      1.0  0.50800  0.23910  0.82050  1.0000 0.1097577146
H   H466      1.0  0.93750  0.25800  0.76890  1.0000 0.1097577146
H   H467      1.0  0.48910  0.16860  0.23110  1.0000 0.1097577146
H   H468      1.0  0.41860  0.68750  0.17950  1.0000 0.1097577146
H   H469      1.0  0.74200  0.51090  0.67950  1.0000 0.1097577146
H   H470      1.0  0.31250  0.49200  0.73110  1.0000 0.1097577146
H   H471      1.0  0.76090  0.58140  0.26890  1.0000 0.1097577146
H   H472      1.0  0.83140  0.06250  0.32050  1.0000 0.1097577146
H   H473      1.0  0.61070  0.33960  0.89010  1.0000 0.1379326937
H   H474      1.0  0.97060  0.36070  0.77110  1.0000 0.1379326937
H   H475      1.0  0.58960  0.19950  0.22890  1.0000 0.1379326937
H   H476      1.0  0.44950  0.72060  0.10990  1.0000 0.1379326937
H   H477      1.0  0.63930  0.41040  0.60990  1.0000 0.1379326937
H   H478      1.0  0.27940  0.38930  0.72890  1.0000 0.1379326937
H   H479      1.0  0.66040  0.55050  0.27110  1.0000 0.1379326937
H   H480      1.0  0.80050  0.02940  0.39010  1.0000 0.1379326937
H   H481      1.0  0.67180  0.26190  0.88230  1.0000 0.1379326937
H   H482      1.0  0.03950  0.42180  0.90990  1.0000 0.1379326937
H   H483      1.0  0.51190  0.12960  0.09010  1.0000 0.1379326937
H   H484      1.0  0.37960  0.78950  0.11770  1.0000 0.1379326937
H   H485      1.0  0.57820  0.48810  0.61770  1.0000 0.1379326937
H   H486      1.0  0.21050  0.32820  0.59010  1.0000 0.1379326937
H   H487      1.0  0.73810  0.62040  0.40990  1.0000 0.1379326937
H   H488      1.0  0.87040  0.96050  0.38230  1.0000 0.1379326937
H   H489      1.0  0.56360  0.15950  0.81650  1.0000 0.1097577146
H   H490      1.0  0.99710  0.31360  0.90410  1.0000 0.1097577146
H   H491      1.0  0.40950  0.09300  0.09590  1.0000 0.1097577146
H   H492      1.0  0.34300  0.74710  0.18350  1.0000 0.1097577146
H   H493      1.0  0.68640  0.59050  0.68350  1.0000 0.1097577146
H   H494      1.0  0.25290  0.43640  0.59590  1.0000 0.1097577146
H   H495      1.0  0.84050  0.65700  0.40410  1.0000 0.1097577146
H   H496      1.0  0.90700  0.00290  0.31650  1.0000 0.1097577146
H   H497      1.0  0.70000  0.38230  0.96090  1.0000 0.1297333832
H   H498      1.0  0.98910  0.45000  0.81770  1.0000 0.1297333832
H   H499      1.0  0.63230  0.17140  0.18230  1.0000 0.1297333832
H   H500      1.0  0.42140  0.73910  0.03910  1.0000 0.1297333832
H   H501      1.0  0.55000  0.36770  0.53910  1.0000 0.1297333832
H   H502      1.0  0.26090  0.30000  0.68230  1.0000 0.1297333832
H   H503      1.0  0.61770  0.57860  0.31770  1.0000 0.1297333832
H   H504      1.0  0.82860  0.01090  0.46090  1.0000 0.1297333832
H   H505      1.0  0.73420  0.36140  0.95600  1.0000 0.1202440233
H   H506      1.0  0.02820  0.48420  0.87280  1.0000 0.1202440233
H   H507      1.0  0.61140  0.15540  0.12720  1.0000 0.1202440233
H   H508      1.0  0.40540  0.77820  0.04400  1.0000 0.1202440233
H   H509      1.0  0.51580  0.38860  0.54400  1.0000 0.1202440233
H   H510      1.0  0.22180  0.26580  0.62720  1.0000 0.1202440233
H   H511      1.0  0.63860  0.59460  0.37280  1.0000 0.1202440233
H   H512      1.0  0.84460  0.97180  0.45600  1.0000 0.1202440233
C   C1        1.0  0.17550  0.74272  0.09942  1.0000 0.2900814205
C   C2        1.0  0.32608  0.92550  0.93278  1.0000 0.2900814205
C   C3        1.0  0.99272  0.39330  0.06722  1.0000 0.2900814205
C   C4        1.0  0.64330  0.07608  0.90058  1.0000 0.2900814205
C   C5        1.0  0.07450  0.00728  0.40058  1.0000 0.2900814205
C   C6        1.0  0.92392  0.82450  0.56722  1.0000 0.2900814205
C   C7        1.0  0.25728  0.35670  0.43278  1.0000 0.2900814205
C   C8        1.0  0.60670  0.67392  0.59942  1.0000 0.2900814205
C   C9        1.0  0.21779  0.74736  0.07715  1.0000 -0.2105872393
C   C10       1.0  0.39064  0.96779  0.97043  1.0000 -0.2105872393
C   C11       1.0  0.99736  0.42021  0.02957  1.0000 -0.2105872393
C   C12       1.0  0.67021  0.14064  0.92285  1.0000 -0.2105872393
C   C13       1.0  0.03221  0.00264  0.42285  1.0000 -0.2105872393
C   C14       1.0  0.85936  0.78221  0.52957  1.0000 -0.2105872393
C   C15       1.0  0.25264  0.32979  0.47043  1.0000 -0.2105872393
C   C16       1.0  0.57979  0.60936  0.57715  1.0000 -0.2105872393
C   C17       1.0  0.21523  0.70081  0.08184  1.0000 -0.0777206244
C   C18       1.0  0.38339  0.96523  0.01442  1.0000 -0.0777206244
C   C19       1.0  0.95081  0.36897  0.98558  1.0000 -0.0777206244
C   C20       1.0  0.61897  0.13339  0.91816  1.0000 -0.0777206244
C   C21       1.0  0.03477  0.04919  0.41816  1.0000 -0.0777206244
C   C22       1.0  0.86661  0.78477  0.48558  1.0000 -0.0777206244
C   C23       1.0  0.29919  0.38103  0.51442  1.0000 -0.0777206244
C   C24       1.0  0.63103  0.61661  0.58184  1.0000 -0.0777206244
C   C25       1.0  0.17019  0.64668  0.10967  1.0000 -0.1311238738
C   C26       1.0  0.31052  0.92019  0.02351  1.0000 -0.1311238738
C   C27       1.0  0.89668  0.28701  0.97649  1.0000 -0.1311238738
C   C28       1.0  0.53701  0.06052  0.89033  1.0000 -0.1311238738
C   C29       1.0  0.07981  0.10332  0.39033  1.0000 -0.1311238738
C   C30       1.0  0.93948  0.82981  0.47649  1.0000 -0.1311238738
C   C31       1.0  0.35332  0.46299  0.52351  1.0000 -0.1311238738
C   C32       1.0  0.71299  0.68948  0.60967  1.0000 -0.1311238738
C   C33       1.0  0.12926  0.64213  0.13199  1.0000 -0.0863046259
C   C34       1.0  0.24727  0.87926  0.98713  1.0000 -0.0863046259
C   C35       1.0  0.89213  0.26014  0.01287  1.0000 -0.0863046259
C   C36       1.0  0.51014  0.99727  0.86801  1.0000 -0.0863046259
C   C37       1.0  0.12074  0.10787  0.36801  1.0000 -0.0863046259
C   C38       1.0  0.00273  0.87074  0.51287  1.0000 -0.0863046259
C   C39       1.0  0.35787  0.48986  0.48713  1.0000 -0.0863046259
C   C40       1.0  0.73986  0.75273  0.63199  1.0000 -0.0863046259
C   C41       1.0  0.12987  0.68806  0.12773  1.0000 -0.1479418897
C   C42       1.0  0.25214  0.87987  0.94181  1.0000 -0.1479418897
C   C43       1.0  0.93806  0.31033  0.05819  1.0000 -0.1479418897
C   C44       1.0  0.56033  0.00214  0.87227  1.0000 -0.1479418897
C   C45       1.0  0.12013  0.06194  0.37227  1.0000 -0.1479418897
C   C46       1.0  0.99786  0.87013  0.55819  1.0000 -0.1479418897
C   C47       1.0  0.31194  0.43967  0.44181  1.0000 -0.1479418897
C   C48       1.0  0.68967  0.74786  0.62773  1.0000 -0.1479418897
C   C49       1.0  0.08303  0.67790  0.15373  1.0000 0.4336922202
C   C50       1.0  0.17930  0.83303  0.90513  1.0000 0.4336922202
C   C51       1.0  0.92790  0.27417  0.09487  1.0000 0.4336922202
C   C52       1.0  0.52417  0.92930  0.84627  1.0000 0.4336922202
C   C53       1.0  0.16697  0.07210  0.34627  1.0000 0.4336922202
C   C54       1.0  0.07070  0.91697  0.59487  1.0000 0.4336922202
C   C55       1.0  0.32210  0.47583  0.40513  1.0000 0.4336922202
C   C56       1.0  0.72583  0.82070  0.65373  1.0000 0.4336922202
C   C57       1.0  0.01698  0.72954  0.15792  1.0000 0.4550616607
C   C58       1.0  0.10906  0.76698  0.78744  1.0000 0.4550616607
C   C59       1.0  0.97954  0.32162  0.21256  1.0000 0.4550616607
C   C60       1.0  0.57162  0.85906  0.84208  1.0000 0.4550616607
C   C61       1.0  0.23302  0.02046  0.34208  1.0000 0.4550616607
C   C62       1.0  0.14094  0.98302  0.71256  1.0000 0.4550616607
C   C63       1.0  0.27046  0.42838  0.28744  1.0000 0.4550616607
C   C64       1.0  0.67838  0.89094  0.65792  1.0000 0.4550616607
C   C65       1.0  0.96077  0.71372  0.17629  1.0000 -0.3190260764
C   C66       1.0  0.03448  0.71077  0.74705  1.0000 -0.3190260764
C   C67       1.0  0.96372  0.28743  0.25295  1.0000 -0.3190260764
C   C68       1.0  0.53743  0.78448  0.82371  1.0000 -0.3190260764
C   C69       1.0  0.28923  0.03628  0.32371  1.0000 -0.3190260764
C   C70       1.0  0.21552  0.03923  0.75295  1.0000 -0.3190260764
C   C71       1.0  0.28628  0.46257  0.24705  1.0000 -0.3190260764
C   C72       1.0  0.71257  0.96552  0.67629  1.0000 -0.3190260764
C   C73       1.0  0.87308  0.64339  0.13827  1.0000 -0.1311238738
C   C74       1.0  0.98481  0.62308  0.72969  1.0000 -0.1311238738
C   C75       1.0  0.89339  0.25512  0.27031  1.0000 -0.1311238738
C   C76       1.0  0.50512  0.73481  0.86173  1.0000 -0.1311238738
C   C77       1.0  0.37692  0.10661  0.36173  1.0000 -0.1311238738
C   C78       1.0  0.26519  0.12692  0.77031  1.0000 -0.1311238738
C   C79       1.0  0.35661  0.49488  0.22969  1.0000 -0.1311238738
C   C80       1.0  0.74488  0.01519  0.63827  1.0000 -0.1311238738
C   C81       1.0  0.82100  0.63480  0.15580  1.0000 -0.1693810955
C   C82       1.0  0.91520  0.57100  0.68620  1.0000 -0.1693810955
C   C83       1.0  0.88480  0.22900  0.31380  1.0000 -0.1693810955
C   C84       1.0  0.47900  0.66520  0.84420  1.0000 -0.1693810955
C   C85       1.0  0.42900  0.11520  0.34420  1.0000 -0.1693810955
C   C86       1.0  0.33480  0.17900  0.81380  1.0000 -0.1693810955
C   C87       1.0  0.36520  0.52100  0.18620  1.0000 -0.1693810955
C   C88       1.0  0.77100  0.08480  0.65580  1.0000 -0.1693810955
C   C89       1.0  0.74570  0.56630  0.14080  1.0000 -0.1311238738
C   C90       1.0  0.85490  0.49570  0.67940  1.0000 -0.1311238738
C   C91       1.0  0.81630  0.17550  0.32060  1.0000 -0.1311238738
C   C92       1.0  0.42550  0.60490  0.85920  1.0000 -0.1311238738
C   C93       1.0  0.50430  0.18370  0.35920  1.0000 -0.1311238738
C   C94       1.0  0.39510  0.25430  0.82060  1.0000 -0.1311238738
C   C95       1.0  0.43370  0.57450  0.17940  1.0000 -0.1311238738
C   C96       1.0  0.82450  0.14510  0.64080  1.0000 -0.1311238738
C   C97       1.0  0.69070  0.55840  0.16210  1.0000 -0.381389773
C   C98       1.0  0.77860  0.44070  0.63230  1.0000 -0.381389773
C   C99       1.0  0.80840  0.14630  0.36770  1.0000 -0.381389773
C   C100      1.0  0.39630  0.52860  0.83790  1.0000 -0.381389773
C   C101      1.0  0.55930  0.19160  0.33790  1.0000 -0.381389773
C   C102      1.0  0.47140  0.30930  0.86770  1.0000 -0.381389773
C   C103      1.0  0.44160  0.60370  0.13230  1.0000 -0.381389773
C   C104      1.0  0.85370  0.22140  0.66210  1.0000 -0.381389773
C   C105      1.0  0.00961  0.66909  0.00210  1.0000 0.0999662987
C   C106      1.0  0.25751  0.75961  0.84052  1.0000 0.0999662987
C   C107      1.0  0.91909  0.41699  0.15948  1.0000 0.0999662987
C   C108      1.0  0.66699  0.00751  0.99790  1.0000 0.0999662987
C   C109      1.0  0.24039  0.08091  0.49790  1.0000 0.0999662987
C   C110      1.0  0.99249  0.99039  0.65948  1.0000 0.0999662987
C   C111      1.0  0.33091  0.33301  0.34052  1.0000 0.0999662987
C   C112      1.0  0.58301  0.74249  0.50210  1.0000 0.0999662987
C   C113      1.0  0.94164  0.59997  0.96521  1.0000 -0.1896883185
C   C114      1.0  0.22643  0.69164  0.84167  1.0000 -0.1896883185
C   C115      1.0  0.84997  0.38476  0.15833  1.0000 -0.1896883185
C   C116      1.0  0.63476  0.97643  0.03479  1.0000 -0.1896883185
C   C117      1.0  0.30836  0.15003  0.53479  1.0000 -0.1896883185
C   C118      1.0  0.02357  0.05836  0.65833  1.0000 -0.1896883185
C   C119      1.0  0.40003  0.36524  0.34167  1.0000 -0.1896883185
C   C120      1.0  0.61524  0.77357  0.46521  1.0000 -0.1896883185
C   C121      1.0  0.86665  0.52848  0.97273  1.0000 0.1635959861
C   C122      1.0  0.14392  0.61665  0.83817  1.0000 0.1635959861
C   C123      1.0  0.77848  0.30575  0.16183  1.0000 0.1635959861
C   C124      1.0  0.55575  0.89392  0.02727  1.0000 0.1635959861
C   C125      1.0  0.38335  0.22152  0.52727  1.0000 0.1635959861
C   C126      1.0  0.10608  0.13335  0.66183  1.0000 0.1635959861
C   C127      1.0  0.47152  0.44425  0.33817  1.0000 0.1635959861
C   C128      1.0  0.69425  0.85608  0.47273  1.0000 0.1635959861
C   C129      1.0  0.86474  0.52868  0.01862  1.0000 -0.2016830455
C   C130      1.0  0.09612  0.61474  0.83606  1.0000 -0.2016830455
C   C131      1.0  0.77868  0.26006  0.16394  1.0000 -0.2016830455
C   C132      1.0  0.51006  0.84612  0.98138  1.0000 -0.2016830455
C   C133      1.0  0.38526  0.22132  0.48138  1.0000 -0.2016830455
C   C134      1.0  0.15388  0.13526  0.66394  1.0000 -0.2016830455
C   C135      1.0  0.47132  0.48994  0.33606  1.0000 -0.2016830455
C   C136      1.0  0.73994  0.90388  0.51862  1.0000 -0.2016830455
C   C137      1.0  0.93410  0.59836  0.05366  1.0000 0.0717752826
C   C138      1.0  0.13044  0.68410  0.83574  1.0000 0.0717752826
C   C139      1.0  0.84836  0.29470  0.16426  1.0000 0.0717752826
C   C140      1.0  0.54470  0.88044  0.94634  1.0000 0.0717752826
C   C141      1.0  0.31590  0.15164  0.44634  1.0000 0.0717752826
C   C142      1.0  0.11956  0.06590  0.66426  1.0000 0.0717752826
C   C143      1.0  0.40164  0.45530  0.33574  1.0000 0.0717752826
C   C144      1.0  0.70530  0.86956  0.55366  1.0000 0.0717752826
C   C145      1.0  0.79070  0.45340  0.93130  1.0000 -0.2183230258
C   C146      1.0  0.10940  0.54070  0.83730  1.0000 -0.2183230258
C   C147      1.0  0.70340  0.27210  0.16270  1.0000 -0.2183230258
C   C148      1.0  0.52210  0.85940  0.06870  1.0000 -0.2183230258
C   C149      1.0  0.45930  0.29660  0.56870  1.0000 -0.2183230258
C   C150      1.0  0.14060  0.20930  0.66270  1.0000 -0.2183230258
C   C151      1.0  0.54660  0.47790  0.33730  1.0000 -0.2183230258
C   C152      1.0  0.72790  0.89060  0.43130  1.0000 -0.2183230258
C   C153      1.0  0.80625  0.47432  0.16997  1.0000 0.2900814205
C   C154      1.0  0.88628  0.55625  0.83193  1.0000 0.2900814205
C   C155      1.0  0.72432  0.05435  0.16807  1.0000 0.2900814205
C   C156      1.0  0.30435  0.63628  0.83003  1.0000 0.2900814205
C   C157      1.0  0.44375  0.27568  0.33003  1.0000 0.2900814205
C   C158      1.0  0.36372  0.19375  0.66807  1.0000 0.2900814205
C   C159      1.0  0.52568  0.69565  0.33193  1.0000 0.2900814205
C   C160      1.0  0.94565  0.11372  0.66997  1.0000 0.2900814205
C   C161      1.0  0.74009  0.40831  0.13040  1.0000 -0.2490052864
C   C162      1.0  0.85969  0.49009  0.83178  1.0000 -0.2490052864
C   C163      1.0  0.65831  0.02791  0.16822  1.0000 -0.2490052864
C   C164      1.0  0.27791  0.60969  0.86960  1.0000 -0.2490052864
C   C165      1.0  0.50991  0.34169  0.36960  1.0000 -0.2490052864
C   C166      1.0  0.39031  0.25991  0.66822  1.0000 -0.2490052864
C   C167      1.0  0.59169  0.72209  0.33178  1.0000 -0.2490052864
C   C168      1.0  0.97209  0.14031  0.63040  1.0000 -0.2490052864
C   C169      1.0  0.66000  0.35283  0.12943  1.0000 -0.0777206244
C   C170      1.0  0.78057  0.41000  0.80717  1.0000 -0.0777206244
C   C171      1.0  0.60283  0.97340  0.19283  1.0000 -0.0777206244
C   C172      1.0  0.22340  0.53057  0.87057  1.0000 -0.0777206244
C   C173      1.0  0.59000  0.39717  0.37057  1.0000 -0.0777206244
C   C174      1.0  0.46943  0.34000  0.69283  1.0000 -0.0777206244
C   C175      1.0  0.64717  0.77660  0.30717  1.0000 -0.0777206244
C   C176      1.0  0.02660  0.21943  0.62943  1.0000 -0.0777206244
C   C177      1.0  0.64084  0.35922  0.16746  1.0000 -0.1479418897
C   C178      1.0  0.72338  0.39084  0.78162  1.0000 -0.1479418897
C   C179      1.0  0.60922  0.94176  0.21838  1.0000 -0.1479418897
C   C180      1.0  0.19176  0.47338  0.83254  1.0000 -0.1479418897
C   C181      1.0  0.60916  0.39078  0.33254  1.0000 -0.1479418897
C   C182      1.0  0.52662  0.35916  0.71838  1.0000 -0.1479418897
C   C183      1.0  0.64078  0.80824  0.28162  1.0000 -0.1479418897
C   C184      1.0  0.05824  0.27662  0.66746  1.0000 -0.1479418897
C   C185      1.0  0.70595  0.42609  0.20564  1.0000 -0.1050224811
C   C186      1.0  0.75031  0.45595  0.77986  1.0000 -0.1050224811
C   C187      1.0  0.67609  0.97045  0.22014  1.0000 -0.1050224811
C   C188      1.0  0.22045  0.50031  0.79436  1.0000 -0.1050224811
C   C189      1.0  0.54405  0.32391  0.29436  1.0000 -0.1024149295
C   C190      1.0  0.49969  0.29405  0.72014  1.0000 -0.1050224811
C   C191      1.0  0.57391  0.77955  0.27986  1.0000 -0.1050224811
C   C192      1.0  0.02955  0.24969  0.70564  1.0000 -0.1050224811
C   C193      1.0  0.78841  0.48404  0.20845  1.0000 -0.156231089
C   C194      1.0  0.82996  0.53841  0.80437  1.0000 -0.156231089
C   C195      1.0  0.73404  0.02559  0.19563  1.0000 -0.156231089
C   C196      1.0  0.27559  0.57996  0.79155  1.0000 -0.156231089
C   C197      1.0  0.46159  0.26596  0.29155  1.0000 -0.156231089
C   C198      1.0  0.42004  0.21159  0.69563  1.0000 -0.156231089
C   C199      1.0  0.51596  0.72441  0.30437  1.0000 -0.156231089
C   C200      1.0  0.97441  0.17004  0.70845  1.0000 -0.156231089
C   C201      1.0  0.85364  0.55562  0.24946  1.0000 0.4336922202
C   C202      1.0  0.85418  0.60364  0.79802  1.0000 0.4336922202
C   C203      1.0  0.80562  0.05616  0.20198  1.0000 0.4336922202
C   C204      1.0  0.30616  0.60418  0.75054  1.0000 0.4336922202
C   C205      1.0  0.39636  0.19438  0.25054  1.0000 0.4336922202
C   C206      1.0  0.39582  0.14636  0.70198  1.0000 0.4336922202
C   C207      1.0  0.44438  0.69384  0.29802  1.0000 0.4336922202
C   C208      1.0  0.94384  0.14582  0.74946  1.0000 0.4336922202
C   C209      1.0  0.06405  0.72733  0.29698  1.0000 0.4497908499
C   C210      1.0  0.01707  0.81405  0.83672  1.0000 0.4497908499
C   C211      1.0  0.97733  0.18035  0.16328  1.0000 0.4497908499
C   C212      1.0  0.43035  0.76707  0.70302  1.0000 0.4497908499
C   C213      1.0  0.18595  0.02267  0.20302  1.0000 0.4497908499
C   C214      1.0  0.23293  0.93595  0.66328  1.0000 0.4497908499
C   C215      1.0  0.27267  0.56965  0.33672  1.0000 0.4497908499
C   C216      1.0  0.81965  0.98293  0.79698  1.0000 0.4497908499
C   C217      1.0  0.13629  0.80456  0.33705  1.0000 -0.3149554566
C   C218      1.0  0.04924  0.88629  0.83173  1.0000 -0.3190260764
C   C219      1.0  0.05456  0.21751  0.16827  1.0000 -0.3190260764
C   C220      1.0  0.46751  0.79924  0.66295  1.0000 -0.3190260764
C   C221      1.0  0.11371  0.94544  0.16295  1.0000 -0.3190260764
C   C222      1.0  0.20076  0.86371  0.66827  1.0000 -0.3149554566
C   C223      1.0  0.19544  0.53249  0.33173  1.0000 -0.3190260764
C   C224      1.0  0.78249  0.95076  0.83705  1.0000 -0.3149554566
C   C225      1.0  0.17859  0.80254  0.36553  1.0000 -0.1375033171
C   C226      1.0  0.06306  0.92859  0.87605  1.0000 -0.1375033171
C   C227      1.0  0.05254  0.18701  0.12395  1.0000 -0.1375033171
C   C228      1.0  0.43701  0.81306  0.63447  1.0000 -0.1375033171
C   C229      1.0  0.07141  0.94746  0.13447  1.0000 -0.1375033171
C   C230      1.0  0.18694  0.82141  0.62395  1.0000 -0.1375033171
C   C231      1.0  0.19746  0.56299  0.37605  1.0000 -0.1375033171
C   C232      1.0  0.81299  0.93694  0.86553  1.0000 -0.1375033171
C   C233      1.0  0.12283  0.73418  0.39021  1.0000 -0.1896883185
C   C234      1.0  0.98262  0.87283  0.88865  1.0000 -0.1896883185
C   C235      1.0  0.98418  0.09397  0.11135  1.0000 -0.1896883185
C   C236      1.0  0.34397  0.73262  0.60979  1.0000 -0.1896883185
C   C237      1.0  0.12717  0.01582  0.10979  1.0000 -0.1896883185
C   C238      1.0  0.26738  0.87717  0.61135  1.0000 -0.1896883185
C   C239      1.0  0.26582  0.65603  0.38865  1.0000 -0.1896883185
C   C240      1.0  0.90603  0.01738  0.89021  1.0000 -0.1896883185
C   C241      1.0  0.16600  0.73522  0.42122  1.0000 -0.1206692992
C   C242      1.0  0.99478  0.91600  0.93078  1.0000 -0.1206692992
C   C243      1.0  0.98522  0.06400  0.06922  1.0000 -0.1206692992
C   C244      1.0  0.31400  0.74478  0.57878  1.0000 -0.1206692992
C   C245      1.0  0.08400  0.01478  0.07878  1.0000 -0.1206692992
C   C246      1.0  0.25522  0.83400  0.56922  1.0000 -0.1206692992
C   C247      1.0  0.26478  0.68600  0.43078  1.0000 -0.1206692992
C   C248      1.0  0.93600  0.00522  0.92122  1.0000 -0.1206692992
C   C249      1.0  0.10843  0.66580  0.44503  1.0000 -0.3935918235
C   C250      1.0  0.91340  0.85843  0.94263  1.0000 -0.3935918235
C   C251      1.0  0.91580  0.97077  0.05737  1.0000 -0.3935918235
C   C252      1.0  0.22077  0.66340  0.55497  1.0000 -0.3935918235
C   C253      1.0  0.14157  0.08420  0.05497  1.0000 -0.3935918235
C   C254      1.0  0.33660  0.89157  0.55737  1.0000 -0.3935918235
C   C255      1.0  0.33420  0.77923  0.44263  1.0000 -0.3935918235
C   C256      1.0  0.02923  0.08660  0.94503  1.0000 -0.3935918235
C   C257      1.0  0.01438  0.56250  0.27428  1.0000 0.2629382327
C   C258      1.0  0.99010  0.76438  0.95188  1.0000 0.2629382327
C   C259      1.0  0.81250  0.03822  0.04812  1.0000 0.2629382327
C   C260      1.0  0.28822  0.74010  0.72572  1.0000 0.2629382327
C   C261      1.0  0.23562  0.18750  0.22572  1.0000 0.2629382327
C   C262      1.0  0.25990  0.98562  0.54812  1.0000 0.2629382327
C   C263      1.0  0.43750  0.71178  0.45188  1.0000 0.2629382327
C   C264      1.0  0.96178  0.00990  0.77428  1.0000 0.2629382327
C   C265      1.0  0.92959  0.42899  0.27838  1.0000 -0.3362608091
C   C266      1.0  0.90121  0.67959  0.00060  1.0000 -0.3362608091
C   C267      1.0  0.67899  0.90061  0.99940  1.0000 -0.3362608091
C   C268      1.0  0.15061  0.65121  0.72162  1.0000 -0.3362608091
C   C269      1.0  0.32041  0.32101  0.22162  1.0000 -0.3362608091
C   C270      1.0  0.34879  0.07041  0.49940  1.0000 -0.3362608091
C   C271      1.0  0.57101  0.84939  0.50060  1.0000 -0.3362608091
C   C272      1.0  0.09939  0.09879  0.77838  1.0000 -0.3362608091
C   C273      1.0  0.07603  0.55417  0.32080  1.0000 -0.3521136478
C   C274      1.0  0.00523  0.82603  0.02186  1.0000 -0.3521136478
C   C275      1.0  0.80417  0.98337  0.97814  1.0000 -0.3521136478
C   C276      1.0  0.23337  0.75523  0.67920  1.0000 -0.3521136478
C   C277      1.0  0.17397  0.19583  0.17920  1.0000 -0.3521136478
C   C278      1.0  0.24477  0.92397  0.47814  1.0000 -0.3521136478
C   C279      1.0  0.44583  0.76663  0.52186  1.0000 -0.3521136478
C   C280      1.0  0.01663  0.99477  0.82080  1.0000 -0.3521136478
C   C281      1.0  0.28920  0.06747  0.07707  1.0000 0.2822591155
C   C282      1.0  0.46213  0.03920  0.72173  1.0000 0.2822591155
C   C283      1.0  0.31747  0.74040  0.27827  1.0000 0.2822591155
C   C284      1.0  0.99040  0.21213  0.92293  1.0000 0.2822591155
C   C285      1.0  0.96080  0.68253  0.42293  1.0000 0.2822591155
C   C286      1.0  0.78787  0.71080  0.77827  1.0000 0.2822591155
C   C287      1.0  0.93253  0.00960  0.22173  1.0000 0.2822591155
C   C288      1.0  0.25960  0.53787  0.57707  1.0000 0.2822591155
C   C289      1.0  0.30644  0.11052  0.04636  1.0000 -0.2183230258
C   C290      1.0  0.51008  0.05644  0.69592  1.0000 -0.2183230258
C   C291      1.0  0.36052  0.81416  0.30408  1.0000 -0.2183230258
C   C292      1.0  0.06416  0.26008  0.95364  1.0000 -0.2183230258
C   C293      1.0  0.94356  0.63948  0.45364  1.0000 -0.2183230258
C   C294      1.0  0.73992  0.69356  0.80408  1.0000 -0.2183230258
C   C295      1.0  0.88948  0.93584  0.19592  1.0000 -0.2183230258
C   C296      1.0  0.18584  0.48992  0.54636  1.0000 -0.2183230258
C   C297      1.0  0.27105  0.07356  0.99961  1.0000 -0.0685915318
C   C298      1.0  0.52144  0.02105  0.69749  1.0000 -0.0685915318
C   C299      1.0  0.32356  0.82395  0.30251  1.0000 -0.0685915318
C   C300      1.0  0.07395  0.27144  0.00039  1.0000 -0.0685915318
C   C301      1.0  0.97895  0.67644  0.50039  1.0000 -0.0685915318
C   C302      1.0  0.72856  0.72895  0.80251  1.0000 -0.0685915318
C   C303      1.0  0.92644  0.92605  0.19749  1.0000 -0.0685915318
C   C304      1.0  0.17605  0.47856  0.49961  1.0000 -0.0685915318
C   C305      1.0  0.21831  0.99352  0.98083  1.0000 -0.1479418897
C   C306      1.0  0.48748  0.96831  0.72479  1.0000 -0.1479418897
C   C307      1.0  0.24352  0.76269  0.27521  1.0000 -0.1479418897
C   C308      1.0  0.01269  0.23748  0.01917  1.0000 -0.1479418897
C   C309      1.0  0.03169  0.75648  0.51917  1.0000 -0.1479418897
C   C310      1.0  0.76252  0.78169  0.77521  1.0000 -0.1479418897
C   C311      1.0  0.00648  0.98731  0.22479  1.0000 -0.1479418897
C   C312      1.0  0.23731  0.51252  0.48083  1.0000 -0.1479418897
C   C313      1.0  0.19956  0.95018  0.01034  1.0000 -0.1024149295
C   C314      1.0  0.43922  0.94956  0.74938  1.0000 -0.1024149295
C   C315      1.0  0.20018  0.68984  0.25062  1.0000 -0.1024149295
C   C316      1.0  0.93984  0.18922  0.98966  1.0000 -0.1024149295
C   C317      1.0  0.05044  0.79982  0.48966  1.0000 -0.1024149295
C   C318      1.0  0.81078  0.80044  0.75062  1.0000 -0.1024149295
C   C319      1.0  0.04982  0.06016  0.24938  1.0000 -0.1024149295
C   C320      1.0  0.31016  0.56078  0.51034  1.0000 -0.1024149295
C   C321      1.0  0.23384  0.98540  0.05844  1.0000 -0.156231089
C   C322      1.0  0.42540  0.98384  0.74844  1.0000 -0.156231089
C   C323      1.0  0.23540  0.67696  0.25156  1.0000 -0.156231089
C   C324      1.0  0.92696  0.17540  0.94156  1.0000 -0.156231089
C   C325      1.0  0.01616  0.76460  0.44156  1.0000 -0.156231089
C   C326      1.0  0.82460  0.76616  0.75156  1.0000 -0.156231089
C   C327      1.0  0.01460  0.07304  0.24844  1.0000 -0.156231089
C   C328      1.0  0.32304  0.57460  0.55844  1.0000 -0.156231089
C   C329      1.0  0.21004  0.93326  0.08670  1.0000 0.4199418552
C   C330      1.0  0.37334  0.96004  0.77678  1.0000 0.4199418552
C   C331      1.0  0.18326  0.59656  0.22322  1.0000 0.4199418552
C   C332      1.0  0.84656  0.12334  0.91330  1.0000 0.4199418552
C   C333      1.0  0.03996  0.81674  0.41330  1.0000 0.4199418552
C   C334      1.0  0.87666  0.78996  0.72322  1.0000 0.4199418552
C   C335      1.0  0.06674  0.15344  0.27678  1.0000 0.4199418552
C   C336      1.0  0.40344  0.62666  0.58670  1.0000 0.4199418552
C   C337      1.0  0.26772  0.95255  0.19807  1.0000 0.4497908499
C   C338      1.0  0.31965  0.01772  0.81517  1.0000 0.4497908499
C   C339      1.0  0.20255  0.50448  0.18483  1.0000 0.4497908499
C   C340      1.0  0.75448  0.06965  0.80193  1.0000 0.4497908499
C   C341      1.0  0.98228  0.79745  0.30193  1.0000 0.4497908499
C   C342      1.0  0.93035  0.73228  0.68483  1.0000 0.4497908499
C   C343      1.0  0.04745  0.24552  0.31517  1.0000 0.4497908499
C   C344      1.0  0.49552  0.68035  0.69807  1.0000 0.4497908499
C   C345      1.0  0.26127  0.91211  0.22958  1.0000 -0.3190260764
C   C346      1.0  0.28169  0.01127  0.84916  1.0000 -0.3190260764
C   C347      1.0  0.16211  0.43253  0.15084  1.0000 -0.3190260764
C   C348      1.0  0.68253  0.03169  0.77042  1.0000 -0.3190260764
C   C349      1.0  0.98873  0.83789  0.27042  1.0000 -0.3190260764
C   C350      1.0  0.96831  0.73873  0.65084  1.0000 -0.3190260764
C   C351      1.0  0.08789  0.31747  0.34916  1.0000 -0.3190260764
C   C352      1.0  0.56747  0.71831  0.72958  1.0000 -0.3190260764
C   C353      1.0  0.34043  0.95031  0.24054  1.0000 -0.1311238738
C   C354      1.0  0.34989  0.09043  0.89012  1.0000 -0.1311238738
C   C355      1.0  0.20031  0.45977  0.10988  1.0000 -0.1311238738
C   C356      1.0  0.70977  0.09989  0.75946  1.0000 -0.1311238738
C   C357      1.0  0.90957  0.79969  0.25946  1.0000 -0.1311238738
C   C358      1.0  0.90011  0.65957  0.60988  1.0000 -0.1311238738
C   C359      1.0  0.04969  0.29023  0.39012  1.0000 -0.1311238738
C   C360      1.0  0.54023  0.65011  0.74054  1.0000 -0.1311238738
C   C361      1.0  0.35116  0.93082  0.19938  1.0000 -0.1848019943
C   C362      1.0  0.40178  0.10116  0.92034  1.0000 -0.1896883185
C   C363      1.0  0.18082  0.48144  0.07966  1.0000 -0.1896883185
C   C364      1.0  0.73144  0.15178  0.80062  1.0000 -0.1896883185
C   C365      1.0  0.89884  0.81918  0.30062  1.0000 -0.1896883185
C   C366      1.0  0.84822  0.64884  0.57966  1.0000 -0.1896883185
C   C367      1.0  0.06918  0.26856  0.42034  1.0000 -0.1896883185
C   C368      1.0  0.51856  0.59822  0.69938  1.0000 -0.1896883185
C   C369      1.0  0.42808  0.96614  0.20882  1.0000 -0.1050224811
C   C370      1.0  0.46926  0.17808  0.96194  1.0000 -0.1024149295
C   C371      1.0  0.21614  0.50732  0.03806  1.0000 -0.1024149295
C   C372      1.0  0.75732  0.21926  0.79118  1.0000 -0.1024149295
C   C373      1.0  0.82192  0.78386  0.29118  1.0000 -0.1050224811
C   C374      1.0  0.78074  0.57192  0.53806  1.0000 -0.1024149295
C   C375      1.0  0.03386  0.24268  0.46194  1.0000 -0.1024149295
C   C376      1.0  0.49268  0.53074  0.70882  1.0000 -0.1024149295
C   C377      1.0  0.43660  0.94430  0.16710  1.0000 -0.3935918235
C   C378      1.0  0.51950  0.18660  0.99230  1.0000 -0.3935918235
C   C379      1.0  0.19430  0.52720  0.00770  1.0000 -0.3935918235
C   C380      1.0  0.77720  0.26950  0.83290  1.0000 -0.3935918235
C   C381      1.0  0.81340  0.80570  0.33290  1.0000 -0.3935918235
C   C382      1.0  0.73050  0.56340  0.50770  1.0000 -0.3935918235
C   C383      1.0  0.05570  0.22280  0.49230  1.0000 -0.3935918235
C   C384      1.0  0.47280  0.48050  0.66710  1.0000 -0.3935918235
C   C385      1.0  0.54105  0.24288  0.83393  1.0000 0.0717752826
C   C386      1.0  0.95712  0.29105  0.79817  1.0000 0.0717752826
C   C387      1.0  0.49288  0.15895  0.20183  1.0000 0.0717752826
C   C388      1.0  0.40895  0.70712  0.16607  1.0000 0.0717752826
C   C389      1.0  0.70895  0.50712  0.66607  1.0000 0.0717752826
C   C390      1.0  0.29288  0.45895  0.70183  1.0000 0.0717752826
C   C391      1.0  0.75712  0.59105  0.29817  1.0000 0.0717752826
C   C392      1.0  0.84105  0.04288  0.33393  1.0000 0.0717752826
C   C393      1.0  0.60272  0.30347  0.87539  1.0000 -0.2105872393
C   C394      1.0  0.97733  0.35272  0.79925  1.0000 -0.2105872393
C   C395      1.0  0.55347  0.17808  0.20075  1.0000 -0.2105872393
C   C396      1.0  0.42808  0.72733  0.12461  1.0000 -0.2105872393
C   C397      1.0  0.64728  0.44653  0.62461  1.0000 -0.2105872393
C   C398      1.0  0.27267  0.39728  0.70075  1.0000 -0.2105872393
C   C399      1.0  0.69653  0.57192  0.29925  1.0000 -0.2105872393
C   C400      1.0  0.82192  0.02267  0.37539  1.0000 -0.2105872393
C   C401      1.0  0.65224  0.31071  0.89515  1.0000 0.1635959861
C   C402      1.0  0.00709  0.40224  0.84153  1.0000 0.1635959861
C   C403      1.0  0.56071  0.16556  0.15847  1.0000 0.1635959861
C   C404      1.0  0.41556  0.75709  0.10485  1.0000 0.1635959861
C   C405      1.0  0.59776  0.43929  0.60485  1.0000 0.1635959861
C   C406      1.0  0.24291  0.34776  0.65847  1.0000 0.1635959861
C   C407      1.0  0.68929  0.58444  0.34153  1.0000 0.1635959861
C   C408      1.0  0.83444  0.99291  0.39515  1.0000 0.1635959861
C   C409      1.0  0.63744  0.25727  0.87111  1.0000 -0.2183230258
C   C410      1.0  0.01633  0.38744  0.88017  1.0000 -0.2183230258
C   C411      1.0  0.50727  0.13616  0.11983  1.0000 -0.2183230258
C   C412      1.0  0.38616  0.76633  0.12889  1.0000 -0.2183230258
C   C413      1.0  0.61256  0.49273  0.62889  1.0000 -0.2183230258
C   C414      1.0  0.23367  0.36256  0.61983  1.0000 -0.2183230258
C   C415      1.0  0.74273  0.61384  0.38017  1.0000 -0.2183230258
C   C416      1.0  0.86384  0.98367  0.37111  1.0000 -0.2183230258
C   C417      1.0  0.57389  0.19752  0.83121  1.0000 0.0717752826
C   C418      1.0  0.99268  0.32389  0.87637  1.0000 0.0717752826
C   C419      1.0  0.44752  0.11631  0.12363  1.0000 0.0717752826
C   C420      1.0  0.36631  0.74268  0.16879  1.0000 0.0717752826
C   C421      1.0  0.67611  0.55248  0.66879  1.0000 0.0717752826
C   C422      1.0  0.25732  0.42611  0.62363  1.0000 0.0717752826
C   C423      1.0  0.80248  0.63369  0.37637  1.0000 0.0717752826
C   C424      1.0  0.88369  0.00732  0.33121  1.0000 0.0717752826
C   C425      1.0  0.72010  0.37730  0.94020  1.0000 -0.2363006012
C   C426      1.0  0.02990  0.47010  0.84280  1.0000 -0.2363006012
C   C427      1.0  0.62730  0.18710  0.15720  1.0000 -0.2363006012
C   C428      1.0  0.43710  0.77990  0.05980  1.0000 -0.2363006012
C   C429      1.0  0.52990  0.37270  0.55980  1.0000 -0.2363006012
C   C430      1.0  0.22010  0.27990  0.65720  1.0000 -0.2363006012
C   C431      1.0  0.62270  0.56290  0.34280  1.0000 -0.2363006012
C   C432      1.0  0.81290  0.97010  0.44020  1.0000 -0.2363006012
N   N1        1.0  0.07957  0.71795  0.14798  1.0000 -0.3190260764
N   N2        1.0  0.18159  0.82957  0.86162  1.0000 -0.3190260764
N   N3        1.0  0.96795  0.31997  0.13838  1.0000 -0.3190260764
N   N4        1.0  0.56997  0.93159  0.85202  1.0000 -0.3190260764
N   N5        1.0  0.17043  0.03205  0.35202  1.0000 -0.3190260764
N   N6        1.0  0.06841  0.92043  0.63838  1.0000 -0.3190260764
N   N7        1.0  0.28205  0.43003  0.36162  1.0000 -0.3190260764
N   N8        1.0  0.68003  0.81841  0.64798  1.0000 -0.3190260764
N   N9        1.0  0.02933  0.70006  0.17199  1.0000 -0.3190260764
N   N10       1.0  0.10734  0.77933  0.82927  1.0000 -0.3190260764
N   N11       1.0  0.95006  0.27807  0.17073  1.0000 -0.3190260764
N   N12       1.0  0.52807  0.85734  0.82801  1.0000 -0.3190260764
N   N13       1.0  0.22067  0.04994  0.32801  1.0000 -0.3190260764
N   N14       1.0  0.14266  0.97067  0.67073  1.0000 -0.3190260764
N   N15       1.0  0.29994  0.47193  0.32927  1.0000 -0.3190260764
N   N16       1.0  0.72193  0.89266  0.67199  1.0000 -0.3190260764
N   N17       1.0  0.00679  0.66906  0.04585  1.0000 -0.2183230258
N   N18       1.0  0.21094  0.75679  0.83773  1.0000 -0.2183230258
N   N19       1.0  0.91906  0.37321  0.16227  1.0000 -0.2183230258
N   N20       1.0  0.62321  0.96094  0.95415  1.0000 -0.2183230258
N   N21       1.0  0.24321  0.08094  0.45415  1.0000 -0.2183230258
N   N22       1.0  0.03906  0.99321  0.66227  1.0000 -0.2183230258
N   N23       1.0  0.33094  0.37679  0.33773  1.0000 -0.2183230258
N   N24       1.0  0.62679  0.78906  0.54585  1.0000 -0.2183230258
N   N25       1.0  0.93270  0.61204  0.25314  1.0000 -0.3190260764
N   N26       1.0  0.92956  0.68270  0.82066  1.0000 -0.3190260764
N   N27       1.0  0.86204  0.10890  0.17934  1.0000 -0.3190260764
N   N28       1.0  0.35890  0.67956  0.74686  1.0000 -0.3190260764
N   N29       1.0  0.31730  0.13796  0.24686  1.0000 -0.3190260764
N   N30       1.0  0.32044  0.06730  0.67934  1.0000 -0.3190260764
N   N31       1.0  0.38796  0.64110  0.32066  1.0000 -0.3190260764
N   N32       1.0  0.89110  0.07044  0.75314  1.0000 -0.3190260764
N   N33       1.0  0.98969  0.67942  0.29411  1.0000 -0.2900495682
N   N34       1.0  0.94558  0.73969  0.81027  1.0000 -0.2900495682
N   N35       1.0  0.92942  0.13531  0.18973  1.0000 -0.2900495682
N   N36       1.0  0.38531  0.69558  0.70589  1.0000 -0.2900495682
N   N37       1.0  0.26031  0.07058  0.20589  1.0000 -0.2900495682
N   N38       1.0  0.30442  0.01031  0.68973  1.0000 -0.2900495682
N   N39       1.0  0.32058  0.61469  0.31027  1.0000 -0.2900495682
N   N40       1.0  0.86469  0.05442  0.79411  1.0000 -0.2900495682
N   N41       1.0  0.00680  0.51737  0.29137  1.0000 0.0345972064
N   N42       1.0  0.96543  0.75680  0.98943  1.0000 0.0345972064
N   N43       1.0  0.76737  0.97600  0.01057  1.0000 0.0345972064
N   N44       1.0  0.22600  0.71543  0.70863  1.0000 0.0345972064
N   N45       1.0  0.24320  0.23263  0.20863  1.0000 0.0345972064
N   N46       1.0  0.28457  0.99320  0.51057  1.0000 0.0345972064
N   N47       1.0  0.48263  0.77400  0.48943  1.0000 0.0345972064
N   N48       1.0  0.02400  0.03457  0.79137  1.0000 0.0345972064
N   N49       1.0  0.24772  0.96716  0.13144  1.0000 -0.3002442964
N   N50       1.0  0.36628  0.99772  0.78056  1.0000 -0.3002442964
N   N51       1.0  0.21716  0.58572  0.21944  1.0000 -0.3002442964
N   N52       1.0  0.83572  0.11628  0.86856  1.0000 -0.3002442964
N   N53       1.0  0.00228  0.78284  0.36856  1.0000 -0.3002442964
N   N54       1.0  0.88372  0.75228  0.71944  1.0000 -0.3002442964
N   N55       1.0  0.03284  0.16428  0.28056  1.0000 -0.3002442964
N   N56       1.0  0.41428  0.63372  0.63144  1.0000 -0.3002442964
N   N57       1.0  0.22675  0.91495  0.15514  1.0000 -0.2900495682
N   N58       1.0  0.32161  0.97675  0.81180  1.0000 -0.2900495682
N   N59       1.0  0.16495  0.50981  0.18820  1.0000 -0.2900495682
N   N60       1.0  0.75981  0.07161  0.84486  1.0000 -0.2900495682
N   N61       1.0  0.02325  0.83505  0.34486  1.0000 -0.2900495682
N   N62       1.0  0.92839  0.77325  0.68820  1.0000 -0.2900495682
N   N63       1.0  0.08505  0.24019  0.31180  1.0000 -0.2900495682
N   N64       1.0  0.49019  0.67839  0.65514  1.0000 -0.2900495682
N   N65       1.0  0.52639  0.18988  0.81207  1.0000 -0.1896883185
N   N66       1.0  0.96432  0.27639  0.83651  1.0000 -0.1896883185
N   N67       1.0  0.43988  0.12781  0.16349  1.0000 -0.2016830455
N   N68       1.0  0.37781  0.71432  0.18793  1.0000 -0.2016830455
N   N69       1.0  0.72361  0.56012  0.68793  1.0000 -0.1896883185
N   N70       1.0  0.28568  0.47361  0.66349  1.0000 -0.2016830455
N   N71       1.0  0.81012  0.62219  0.33651  1.0000 -0.1896883185
N   N72       1.0  0.87219  0.03568  0.31207  1.0000 -0.2016830455
O   O1        1.0  0.18159  0.79054  0.09237  1.0000 -0.4717668839
O   O2        1.0  0.33922  0.93159  0.89105  1.0000 -0.4717668839
O   O3        1.0  0.04054  0.44817  0.10895  1.0000 -0.4717668839
O   O4        1.0  0.69817  0.08922  0.90763  1.0000 -0.4717668839
O   O5        1.0  0.06841  0.95946  0.40763  1.0000 -0.4717668839
O   O6        1.0  0.91078  0.81841  0.60895  1.0000 -0.4717668839
O   O7        1.0  0.20946  0.30183  0.39105  1.0000 -0.4717668839
O   O8        1.0  0.55183  0.66078  0.59237  1.0000 -0.4717668839
O   O9        1.0  0.04588  0.62947  0.18007  1.0000 -0.4717668839
O   O10       1.0  0.11581  0.79588  0.91641  1.0000 -0.4717668839
O   O11       1.0  0.87947  0.19940  0.08359  1.0000 -0.4717668839
O   O12       1.0  0.44940  0.86581  0.81993  1.0000 -0.4717668839
O   O13       1.0  0.20412  0.12053  0.31993  1.0000 -0.4717668839
O   O14       1.0  0.13419  0.95412  0.58359  1.0000 -0.4717668839
O   O15       1.0  0.37053  0.55060  0.41641  1.0000 -0.4717668839
O   O16       1.0  0.80060  0.88419  0.68007  1.0000 -0.4717668839
O   O17       1.0  0.04876  0.77012  0.12658  1.0000 -0.4880365333
O   O18       1.0  0.17218  0.79876  0.77864  1.0000 -0.4880365333
O   O19       1.0  0.02012  0.39354  0.22136  1.0000 -0.4880365333
O   O20       1.0  0.64354  0.92218  0.87342  1.0000 -0.4880365333
O   O21       1.0  0.20124  0.97988  0.37342  1.0000 -0.4880365333
O   O22       1.0  0.07782  0.95124  0.72136  1.0000 -0.4880365333
O   O23       1.0  0.22988  0.35646  0.27864  1.0000 -0.4880365333
O   O24       1.0  0.60646  0.82782  0.62658  1.0000 -0.4880365333
O   O25       1.0  0.88132  0.52305  0.16909  1.0000 -0.4880365333
O   O26       1.0  0.96223  0.63132  0.85827  1.0000 -0.4849012033
O   O27       1.0  0.77305  0.10396  0.14173  1.0000 -0.4880365333
O   O28       1.0  0.35396  0.71223  0.83091  1.0000 -0.4880365333
O   O29       1.0  0.36868  0.22695  0.33091  1.0000 -0.4880365333
O   O30       1.0  0.28777  0.11868  0.64173  1.0000 -0.4880365333
O   O31       1.0  0.47695  0.64604  0.35827  1.0000 -0.4880365333
O   O32       1.0  0.89604  0.03777  0.66909  1.0000 -0.4880365333
O   O33       1.0  0.83315  0.56296  0.28145  1.0000 -0.4526425027
O   O34       1.0  0.80170  0.58315  0.77019  1.0000 -0.4526425027
O   O35       1.0  0.81296  0.03151  0.22981  1.0000 -0.4526425027
O   O36       1.0  0.28151  0.55170  0.71855  1.0000 -0.4526425027
O   O37       1.0  0.41685  0.18704  0.21855  1.0000 -0.4526425027
O   O38       1.0  0.44830  0.16685  0.72981  1.0000 -0.4526425027
O   O39       1.0  0.43704  0.71849  0.27019  1.0000 -0.4526425027
O   O40       1.0  0.96849  0.19830  0.78145  1.0000 -0.4526425027
O   O41       1.0  0.08000  0.71107  0.26589  1.0000 -0.519860445
O   O42       1.0  0.06411  0.83000  0.86893  1.0000 -0.519860445
O   O43       1.0  0.96107  0.19518  0.13107  1.0000 -0.519860445
O   O44       1.0  0.44518  0.81411  0.73411  1.0000 -0.519860445
O   O45       1.0  0.17000  0.03893  0.23411  1.0000 -0.519860445
O   O46       1.0  0.18589  0.92000  0.63107  1.0000 -0.519860445
O   O47       1.0  0.28893  0.55482  0.36893  1.0000 -0.519860445
O   O48       1.0  0.80482  0.93589  0.76589  1.0000 -0.519860445
O   O49       1.0  0.96046  0.53594  0.24762  1.0000 -0.3994615958
O   O50       1.0  0.96284  0.71046  0.92452  1.0000 -0.3994615958
O   O51       1.0  0.78594  0.03832  0.07548  1.0000 -0.3994615958
O   O52       1.0  0.28832  0.71284  0.75238  1.0000 -0.3994615958
O   O53       1.0  0.28954  0.21406  0.25238  1.0000 -0.3994615958
O   O54       1.0  0.28716  0.03954  0.57548  1.0000 -0.3994615958
O   O55       1.0  0.46406  0.71168  0.42452  1.0000 -0.3994615958
O   O56       1.0  0.96168  0.03716  0.74762  1.0000 -0.3994615958
O   O57       1.0  0.32721  0.10845  0.12176  1.0000 -0.4526425027
O   O58       1.0  0.45545  0.07721  0.71876  1.0000 -0.4526425027
O   O59       1.0  0.35845  0.73669  0.28124  1.0000 -0.4526425027
O   O60       1.0  0.98669  0.20545  0.87824  1.0000 -0.4526425027
O   O61       1.0  0.92279  0.64155  0.37824  1.0000 -0.4526425027
O   O62       1.0  0.79455  0.67279  0.78124  1.0000 -0.4526425027
O   O63       1.0  0.89155  0.01331  0.21876  1.0000 -0.4526425027
O   O64       1.0  0.26331  0.54455  0.62176  1.0000 -0.4526425027
O   O65       1.0  0.15554  0.85721  0.06749  1.0000 -0.4599688337
O   O66       1.0  0.33805  0.90554  0.79833  1.0000 -0.4599688337
O   O67       1.0  0.10721  0.53972  0.20167  1.0000 -0.4599688337
O   O68       1.0  0.78972  0.08805  0.93251  1.0000 -0.4599688337
O   O69       1.0  0.09446  0.89279  0.43251  1.0000 -0.4599688337
O   O70       1.0  0.91195  0.84446  0.70167  1.0000 -0.4599688337
O   O71       1.0  0.14279  0.21028  0.29833  1.0000 -0.4599688337
O   O72       1.0  0.46028  0.66195  0.56749  1.0000 -0.4599688337
O   O73       1.0  0.31983  0.02929  0.21644  1.0000 -0.4880365333
O   O74       1.0  0.35339  0.06983  0.79054  1.0000 -0.4880365333
O   O75       1.0  0.27929  0.56285  0.20946  1.0000 -0.4880365333
O   O76       1.0  0.81285  0.10339  0.78356  1.0000 -0.4880365333
O   O77       1.0  0.93017  0.72071  0.28356  1.0000 -0.4880365333
O   O78       1.0  0.89661  0.68017  0.70946  1.0000 -0.4880365333
O   O79       1.0  0.97071  0.18715  0.29054  1.0000 -0.4880365333
O   O80       1.0  0.43715  0.64661  0.71644  1.0000 -0.4880365333
