# DDEC6 charges by PACMAN v1.1 (https://github.com/mtap-research/PACMAN-charge/)
data_2005[Zn][pcu]3[FSR]7
_chemical_formula_sum              "Zn8 H24 C48 O26"
_cell_length_a       18.2943
_cell_length_b       18.2943
_cell_length_c       18.2943
_cell_angle_alpha    60
_cell_angle_beta     60
_cell_angle_gamma    60

_symmetry_space_group_name_H-M    "P 1"
_symmetry_Int_Tables_number       1

loop_
  _symmetry_equiv_pos_as_xyz
  'x, y, z'

loop_
  _atom_site_type_symbol
  _atom_site_label
  _atom_site_symmetry_multiplicity
  _atom_site_fract_x
  _atom_site_fract_y
  _atom_site_fract_z
  _atom_site_occupancy
  _atom_site_charge
Zn  Zn1       1.0  0.20660  0.20660  0.38020  1.0000 0.9520919586
Zn  Zn2       1.0  0.38020  0.20660  0.20660  1.0000 0.9520919586
Zn  Zn3       1.0  0.20660  0.38020  0.20660  1.0000 0.9520919586
Zn  Zn4       1.0  0.79340  0.79340  0.79340  1.0000 0.9520919586
Zn  Zn5       1.0  0.61980  0.79340  0.79340  1.0000 0.9520919586
Zn  Zn6       1.0  0.79340  0.61980  0.79340  1.0000 0.9520919586
Zn  Zn7       1.0  0.79340  0.79340  0.61980  1.0000 0.9520919586
Zn  Zn8       1.0  0.20660  0.20660  0.20660  1.0000 0.9520919586
H   H1        1.0  0.34430  0.04510  0.56550  1.0000 0.1246312003
H   H2        1.0  0.56550  0.34430  0.04510  1.0000 0.1251764636
H   H3        1.0  0.04510  0.56550  0.34430  1.0000 0.1246312003
H   H4        1.0  0.65570  0.95490  0.95490  1.0000 0.1246312003
H   H5        1.0  0.43450  0.95490  0.95490  1.0000 0.1246312003
H   H6        1.0  0.95490  0.43450  0.65570  1.0000 0.1246312003
H   H7        1.0  0.43450  0.65570  0.95490  1.0000 0.1246312003
H   H8        1.0  0.95490  0.95490  0.43450  1.0000 0.1246312003
H   H9        1.0  0.95490  0.95490  0.65570  1.0000 0.1246312003
H   H10       1.0  0.95490  0.43450  0.95490  1.0000 0.1251764636
H   H11       1.0  0.65570  0.95490  0.43450  1.0000 0.1246312003
H   H12       1.0  0.95490  0.65570  0.95490  1.0000 0.1246312003
H   H13       1.0  0.04510  0.34430  0.04510  1.0000 0.1251764636
H   H14       1.0  0.56550  0.04510  0.34430  1.0000 0.1246312003
H   H15       1.0  0.04510  0.56550  0.04510  1.0000 0.1251764636
H   H16       1.0  0.04510  0.04510  0.34430  1.0000 0.1246312003
H   H17       1.0  0.34430  0.56550  0.04510  1.0000 0.1246312003
H   H18       1.0  0.04510  0.04510  0.56550  1.0000 0.1246312003
H   H19       1.0  0.34430  0.04510  0.04510  1.0000 0.1246312003
H   H20       1.0  0.04510  0.34430  0.56550  1.0000 0.1246312003
H   H21       1.0  0.56550  0.04510  0.04510  1.0000 0.1246312003
H   H22       1.0  0.95490  0.65570  0.43450  1.0000 0.1246312003
H   H23       1.0  0.65570  0.43450  0.95490  1.0000 0.1251764636
H   H24       1.0  0.43450  0.95490  0.65570  1.0000 0.1246312003
C   C1        1.0  0.38853  0.11147  0.38853  1.0000 0.6000999997
C   C2        1.0  0.38853  0.38853  0.11147  1.0000 0.6000999997
C   C3        1.0  0.11147  0.38853  0.38853  1.0000 0.6000999997
C   C4        1.0  0.61147  0.88853  0.88853  1.0000 0.6000999997
C   C5        1.0  0.88853  0.61147  0.61147  1.0000 0.6000999997
C   C6        1.0  0.61147  0.61147  0.88853  1.0000 0.6000999997
C   C7        1.0  0.88853  0.88853  0.61147  1.0000 0.6000999997
C   C8        1.0  0.88853  0.61147  0.88853  1.0000 0.6000999997
C   C9        1.0  0.61147  0.88853  0.61147  1.0000 0.6000999997
C   C10       1.0  0.11147  0.38853  0.11147  1.0000 0.6000999997
C   C11       1.0  0.11147  0.11147  0.38853  1.0000 0.6000999997
C   C12       1.0  0.38853  0.11147  0.11147  1.0000 0.6000999997
C   C13       1.0  0.44626  0.05374  0.44626  1.0000 -0.0366953112
C   C14       1.0  0.44626  0.44626  0.05374  1.0000 -0.0366953112
C   C15       1.0  0.05374  0.44626  0.44626  1.0000 -0.0366953112
C   C16       1.0  0.55374  0.94626  0.94626  1.0000 -0.0366953112
C   C17       1.0  0.94626  0.55374  0.55374  1.0000 -0.0366953112
C   C18       1.0  0.55374  0.55374  0.94626  1.0000 -0.0366953112
C   C19       1.0  0.94626  0.94626  0.55374  1.0000 -0.0366953112
C   C20       1.0  0.94626  0.55374  0.94626  1.0000 -0.0366953112
C   C21       1.0  0.55374  0.94626  0.55374  1.0000 -0.0366953112
C   C22       1.0  0.05374  0.44626  0.05374  1.0000 -0.0366953112
C   C23       1.0  0.05374  0.05374  0.44626  1.0000 -0.0366953112
C   C24       1.0  0.44626  0.05374  0.05374  1.0000 -0.0366953112
C   C25       1.0  0.40761  0.02675  0.53889  1.0000 -0.0944563504
C   C26       1.0  0.53889  0.40761  0.02675  1.0000 -0.0957230587
C   C27       1.0  0.02675  0.53889  0.40761  1.0000 -0.0957230587
C   C28       1.0  0.59239  0.97325  0.97325  1.0000 -0.0944563504
C   C29       1.0  0.46111  0.97325  0.97325  1.0000 -0.0944563504
C   C30       1.0  0.97325  0.46111  0.59239  1.0000 -0.0944563504
C   C31       1.0  0.46111  0.59239  0.97325  1.0000 -0.0944563504
C   C32       1.0  0.97325  0.97325  0.46111  1.0000 -0.0944563504
C   C33       1.0  0.97325  0.97325  0.59239  1.0000 -0.0944563504
C   C34       1.0  0.97325  0.46111  0.97325  1.0000 -0.0944563504
C   C35       1.0  0.59239  0.97325  0.46111  1.0000 -0.0944563504
C   C36       1.0  0.97325  0.59239  0.97325  1.0000 -0.0944563504
C   C37       1.0  0.02675  0.40761  0.02675  1.0000 -0.0957230587
C   C38       1.0  0.53889  0.02675  0.40761  1.0000 -0.0944563504
C   C39       1.0  0.02675  0.53889  0.02675  1.0000 -0.0957230587
C   C40       1.0  0.02675  0.02675  0.40761  1.0000 -0.0944563504
C   C41       1.0  0.40761  0.53889  0.02675  1.0000 -0.0957230587
C   C42       1.0  0.02675  0.02675  0.53889  1.0000 -0.0944563504
C   C43       1.0  0.40761  0.02675  0.02675  1.0000 -0.0944563504
C   C44       1.0  0.02675  0.40761  0.53889  1.0000 -0.0957230587
C   C45       1.0  0.53889  0.02675  0.02675  1.0000 -0.0944563504
C   C46       1.0  0.97325  0.59239  0.46111  1.0000 -0.0944563504
C   C47       1.0  0.59239  0.46111  0.97325  1.0000 -0.0944563504
C   C48       1.0  0.46111  0.97325  0.59239  1.0000 -0.0944563504
O   O1        1.0  0.25000  0.25000  0.25000  1.0000 -1.0411696841
O   O2        1.0  0.75000  0.75000  0.75000  1.0000 -1.0411696841
O   O3        1.0  0.30492  0.13372  0.42764  1.0000 -0.5422739595
O   O4        1.0  0.42764  0.30492  0.13372  1.0000 -0.5422739595
O   O5        1.0  0.13372  0.42764  0.30492  1.0000 -0.5422739595
O   O6        1.0  0.69508  0.86628  0.86628  1.0000 -0.5422739595
O   O7        1.0  0.57236  0.86628  0.86628  1.0000 -0.5422739595
O   O8        1.0  0.86628  0.57236  0.69508  1.0000 -0.5422739595
O   O9        1.0  0.57236  0.69508  0.86628  1.0000 -0.5422739595
O   O10       1.0  0.86628  0.86628  0.57236  1.0000 -0.5422739595
O   O11       1.0  0.86628  0.86628  0.69508  1.0000 -0.5422739595
O   O12       1.0  0.86628  0.57236  0.86628  1.0000 -0.5422739595
O   O13       1.0  0.69508  0.86628  0.57236  1.0000 -0.5422739595
O   O14       1.0  0.86628  0.69508  0.86628  1.0000 -0.5422739595
O   O15       1.0  0.13372  0.30492  0.13372  1.0000 -0.5422739595
O   O16       1.0  0.42764  0.13372  0.30492  1.0000 -0.5422739595
O   O17       1.0  0.13372  0.42764  0.13372  1.0000 -0.5422739595
O   O18       1.0  0.13372  0.13372  0.30492  1.0000 -0.5422739595
O   O19       1.0  0.30492  0.42764  0.13372  1.0000 -0.5422739595
O   O20       1.0  0.13372  0.13372  0.42764  1.0000 -0.5422739595
O   O21       1.0  0.30492  0.13372  0.13372  1.0000 -0.5422739595
O   O22       1.0  0.13372  0.30492  0.42764  1.0000 -0.5422739595
O   O23       1.0  0.42764  0.13372  0.13372  1.0000 -0.5422739595
O   O24       1.0  0.86628  0.69508  0.57236  1.0000 -0.5422739595
O   O25       1.0  0.69508  0.57236  0.86628  1.0000 -0.5422739595
O   O26       1.0  0.57236  0.86628  0.69508  1.0000 -0.5422739595
