# DDEC6 charges by PACMAN v1.1 (https://github.com/mtap-research/PACMAN-charge/)
data_2005[Fe][dia]3[FSR]1
_chemical_formula_sum              "Fe4 C8 Cl4 O18"
_cell_length_a       13.9145
_cell_length_b       12.6764
_cell_length_c       8.71305
_cell_angle_alpha    78.7767
_cell_angle_beta     63.3287
_cell_angle_gamma    37.8946

_symmetry_space_group_name_H-M    "P 1"
_symmetry_Int_Tables_number       1

loop_
  _symmetry_equiv_pos_as_xyz
  'x, y, z'

loop_
  _atom_site_type_symbol
  _atom_site_label
  _atom_site_symmetry_multiplicity
  _atom_site_fract_x
  _atom_site_fract_y
  _atom_site_fract_z
  _atom_site_occupancy
  _atom_site_charge
Fe  Fe1       1.0  0.31605  0.29293  0.03481  1.0000 1.1490698886
Fe  Fe2       1.0  0.35621  0.03481  0.29293  1.0000 1.1490698886
Fe  Fe3       1.0  0.95707  0.93395  0.89379  1.0000 1.1490698886
Fe  Fe4       1.0  0.21519  0.89379  0.93395  1.0000 1.1490698886
C   C1        1.0  0.21660  0.56520  0.86980  1.0000 0.4896673692
C   C2        1.0  0.34840  0.86980  0.56520  1.0000 0.4896673692
C   C3        1.0  0.68480  0.03340  0.90160  1.0000 0.4896673692
C   C4        1.0  0.38020  0.90160  0.03340  1.0000 0.4896673692
C   C5        1.0  0.58860  0.18660  0.03220  1.0000 0.4896673692
C   C6        1.0  0.19260  0.03220  0.18660  1.0000 0.4950304163
C   C7        1.0  0.06340  0.66140  0.05740  1.0000 0.4950304163
C   C8        1.0  0.21780  0.05740  0.66140  1.0000 0.4896673692
Cl  Cl1       1.0  0.24412  0.24644  0.88696  1.0000 -0.2859985921
Cl  Cl2       1.0  0.62248  0.88696  0.24644  1.0000 -0.2859985921
Cl  Cl3       1.0  0.00356  0.00588  0.62752  1.0000 -0.2859985921
Cl  Cl4       1.0  0.36304  0.62752  0.00588  1.0000 -0.2859985921
O   O1        1.0  0.85399  0.89739  0.81961  1.0000 -0.4153973329
O   O2        1.0  0.42901  0.81961  0.89739  1.0000 -0.4149067866
O   O3        1.0  0.35261  0.39601  0.82099  1.0000 -0.4153973329
O   O4        1.0  0.43039  0.82099  0.39601  1.0000 -0.4153973329
O   O5        1.0  0.68478  0.17138  0.04882  1.0000 -0.3641842472
O   O6        1.0  0.09502  0.04882  0.17138  1.0000 -0.3641842472
O   O7        1.0  0.07862  0.56522  0.15498  1.0000 -0.3661042917
O   O8        1.0  0.20118  0.15498  0.56522  1.0000 -0.3661042917
O   O9        1.0  0.19715  0.66375  0.76765  1.0000 -0.3889272603
O   O10       1.0  0.37145  0.76765  0.66375  1.0000 -0.3889272603
O   O11       1.0  0.58625  0.05285  0.87855  1.0000 -0.3889272603
O   O12       1.0  0.48235  0.87855  0.05285  1.0000 -0.3889272603
O   O13       1.0  0.42058  0.31898  0.11602  1.0000 -0.3889272603
O   O14       1.0  0.14442  0.11602  0.31898  1.0000 -0.3889272603
O   O15       1.0  0.93102  0.82942  0.10558  1.0000 -0.3889272603
O   O16       1.0  0.13398  0.10558  0.82942  1.0000 -0.3889272603
O   O17       1.0  0.26240  0.23760  0.23760  1.0000 -0.5750045645
O   O18       1.0  0.01240  0.98760  0.98760  1.0000 -0.572251724
