# DDEC6 charges by PACMAN v1.1 (https://github.com/mtap-research/PACMAN-charge/)
data_2005[In][nan]3[FSR]1
_chemical_formula_sum              "In6 H8 C40 O36"
_cell_length_a       7.2104
_cell_length_b       13.637
_cell_length_c       17.379
_cell_angle_alpha    90
_cell_angle_beta     100.657
_cell_angle_gamma    90

_symmetry_space_group_name_H-M    "P 1"
_symmetry_Int_Tables_number       1

loop_
  _symmetry_equiv_pos_as_xyz
  'x, y, z'

loop_
  _atom_site_type_symbol
  _atom_site_label
  _atom_site_symmetry_multiplicity
  _atom_site_fract_x
  _atom_site_fract_y
  _atom_site_fract_z
  _atom_site_occupancy
  _atom_site_charge
In  In1       1.0  0.53303  0.90123  0.55327  1.0000 1.4484271184
In  In2       1.0  0.46697  0.40123  0.94673  1.0000 1.4484271184
In  In3       1.0  0.46697  0.09877  0.44673  1.0000 1.4484271184
In  In4       1.0  0.53303  0.59877  0.05327  1.0000 1.4484271184
In  In5       1.0  0.00000  0.00000  0.50000  1.0000 1.5397071318
In  In6       1.0  0.00000  0.50000  0.00000  1.0000 1.5397071318
H   H1        1.0  0.79690  0.77330  0.22290  1.0000 0.1395544187
H   H2        1.0  0.20310  0.27330  0.27710  1.0000 0.1395544187
H   H3        1.0  0.20310  0.22670  0.77710  1.0000 0.1395544187
H   H4        1.0  0.79690  0.72670  0.72290  1.0000 0.1395544187
H   H5        1.0  0.45850  0.78960  0.27660  1.0000 0.1508667395
H   H6        1.0  0.54150  0.28960  0.22340  1.0000 0.1508667395
H   H7        1.0  0.54150  0.21040  0.72340  1.0000 0.1508667395
H   H8        1.0  0.45850  0.71040  0.77660  1.0000 0.1508667395
C   C1        1.0  0.22040  0.82980  0.31560  1.0000 -0.0072779965
C   C2        1.0  0.77960  0.32980  0.18440  1.0000 -0.0072779965
C   C3        1.0  0.77960  0.17020  0.68440  1.0000 -0.0072779965
C   C4        1.0  0.22040  0.67020  0.81560  1.0000 -0.0072779965
C   C5        1.0  0.02380  0.82240  0.30040  1.0000 -0.0256254598
C   C6        1.0  0.97620  0.32240  0.19960  1.0000 -0.0242821741
C   C7        1.0  0.97620  0.17760  0.69960  1.0000 -0.0256254598
C   C8        1.0  0.02380  0.67760  0.80040  1.0000 -0.0256254598
C   C9        1.0  0.93090  0.77540  0.23410  1.0000 -0.09737771
C   C10       1.0  0.06910  0.27540  0.26590  1.0000 -0.09737771
C   C11       1.0  0.06910  0.22460  0.76590  1.0000 -0.09737771
C   C12       1.0  0.93090  0.72460  0.73410  1.0000 -0.09737771
C   C13       1.0  0.03490  0.73130  0.18400  1.0000 -0.0372053347
C   C14       1.0  0.96510  0.23130  0.31600  1.0000 -0.0372053347
C   C15       1.0  0.96510  0.26870  0.81600  1.0000 -0.0372053347
C   C16       1.0  0.03490  0.76870  0.68400  1.0000 -0.0372053347
C   C17       1.0  0.23360  0.73690  0.20010  1.0000 -0.0072779965
C   C18       1.0  0.76640  0.23690  0.29990  1.0000 -0.0072779965
C   C19       1.0  0.76640  0.26310  0.79990  1.0000 -0.0072779965
C   C20       1.0  0.23360  0.76310  0.70010  1.0000 -0.0072779965
C   C21       1.0  0.32470  0.78590  0.26570  1.0000 -0.1084258407
C   C22       1.0  0.67530  0.28590  0.23430  1.0000 -0.1084258407
C   C23       1.0  0.67530  0.21410  0.73430  1.0000 -0.1084258407
C   C24       1.0  0.32470  0.71410  0.76570  1.0000 -0.1084258407
C   C25       1.0  0.32820  0.88820  0.38250  1.0000 0.6560598389
C   C26       1.0  0.67180  0.38820  0.11750  1.0000 0.6560598389
C   C27       1.0  0.67180  0.11180  0.61750  1.0000 0.6560598389
C   C28       1.0  0.32820  0.61180  0.88250  1.0000 0.6560598389
C   C29       1.0  0.91440  0.86710  0.35850  1.0000 0.5886260495
C   C30       1.0  0.08560  0.36710  0.14150  1.0000 0.5886260495
C   C31       1.0  0.08560  0.13290  0.64150  1.0000 0.5886260495
C   C32       1.0  0.91440  0.63290  0.85850  1.0000 0.5886260495
C   C33       1.0  0.93600  0.66820  0.11740  1.0000 0.6232987717
C   C34       1.0  0.06400  0.16820  0.38260  1.0000 0.6232987717
C   C35       1.0  0.06400  0.33180  0.88260  1.0000 0.6232987717
C   C36       1.0  0.93600  0.83180  0.61740  1.0000 0.6232987717
C   C37       1.0  0.34980  0.68950  0.14750  1.0000 0.5508334265
C   C38       1.0  0.65020  0.18950  0.35250  1.0000 0.5508334265
C   C39       1.0  0.65020  0.31050  0.85250  1.0000 0.5508334265
C   C40       1.0  0.34980  0.81050  0.64750  1.0000 0.5508334265
O   O1        1.0  0.42590  0.84160  0.43810  1.0000 -0.4621860683
O   O2        1.0  0.57410  0.34160  0.06190  1.0000 -0.4621860683
O   O3        1.0  0.57410  0.15840  0.56190  1.0000 -0.4621860683
O   O4        1.0  0.42590  0.65840  0.93810  1.0000 -0.4621860683
O   O5        1.0  0.31910  0.98030  0.37420  1.0000 -0.5002456977
O   O6        1.0  0.68090  0.48030  0.12580  1.0000 -0.5002456977
O   O7        1.0  0.68090  0.01970  0.62580  1.0000 -0.5002456977
O   O8        1.0  0.31910  0.51970  0.87420  1.0000 -0.5002456977
O   O9        1.0  0.01380  0.88000  0.42620  1.0000 -0.520513691
O   O10       1.0  0.98620  0.38000  0.07380  1.0000 -0.520513691
O   O11       1.0  0.98620  0.12000  0.57380  1.0000 -0.520513691
O   O12       1.0  0.01380  0.62000  0.92620  1.0000 -0.520513691
O   O13       1.0  0.74550  0.88870  0.33760  1.0000 -0.4333329721
O   O14       1.0  0.25450  0.38870  0.16240  1.0000 -0.4358248636
O   O15       1.0  0.25450  0.11130  0.66240  1.0000 -0.4358248636
O   O16       1.0  0.74550  0.61130  0.83760  1.0000 -0.4333329721
O   O17       1.0  0.76780  0.69370  0.08690  1.0000 -0.5142962262
O   O18       1.0  0.23220  0.19370  0.41310  1.0000 -0.5142962262
O   O19       1.0  0.23220  0.30630  0.91310  1.0000 -0.5142962262
O   O20       1.0  0.76780  0.80630  0.58690  1.0000 -0.5142962262
O   O21       1.0  0.02380  0.59520  0.09970  1.0000 -0.5002456977
O   O22       1.0  0.97620  0.09520  0.40030  1.0000 -0.5002456977
O   O23       1.0  0.97620  0.40480  0.90030  1.0000 -0.5002456977
O   O24       1.0  0.02380  0.90480  0.59970  1.0000 -0.5002456977
O   O25       1.0  0.33610  0.71920  0.07810  1.0000 -0.4764883145
O   O26       1.0  0.66390  0.21920  0.42190  1.0000 -0.4764883145
O   O27       1.0  0.66390  0.28080  0.92190  1.0000 -0.4764883145
O   O28       1.0  0.33610  0.78080  0.57810  1.0000 -0.4764883145
O   O29       1.0  0.46770  0.62400  0.17440  1.0000 -0.4684714674
O   O30       1.0  0.53230  0.12400  0.32560  1.0000 -0.4684714674
O   O31       1.0  0.53230  0.37600  0.82560  1.0000 -0.4684714674
O   O32       1.0  0.46770  0.87600  0.67440  1.0000 -0.4684714674
O   O33       1.0  0.30870  0.01230  0.52870  1.0000 -0.7676393315
O   O34       1.0  0.69130  0.51230  0.97130  1.0000 -0.7676393315
O   O35       1.0  0.69130  0.98770  0.47130  1.0000 -0.7676393315
O   O36       1.0  0.30870  0.48770  0.02870  1.0000 -0.7676393315
