# DDEC6 charges by PACMAN v1.1 (https://github.com/mtap-research/PACMAN-charge/)
data_2005[Fe][srs]3[FSR]1
_chemical_formula_sum              "Fe8 H160 C216 S16 N64 O8"
_cell_length_a       15.772
_cell_length_b       26.984
_cell_length_c       19.254
_cell_angle_alpha    90
_cell_angle_beta     90.019
_cell_angle_gamma    90

_symmetry_space_group_name_H-M    "P 1"
_symmetry_Int_Tables_number       1

loop_
  _symmetry_equiv_pos_as_xyz
  'x, y, z'

loop_
  _atom_site_type_symbol
  _atom_site_label
  _atom_site_symmetry_multiplicity
  _atom_site_fract_x
  _atom_site_fract_y
  _atom_site_fract_z
  _atom_site_occupancy
  _atom_site_charge
Fe  Fe1       1.0  0.04134  0.61800  0.78746  1.0000 0.74345352
Fe  Fe2       1.0  0.95866  0.11800  0.71254  1.0000 0.74345352
Fe  Fe3       1.0  0.53448  0.86668  0.20634  1.0000 0.7329760368
Fe  Fe4       1.0  0.46552  0.36668  0.29366  1.0000 0.7329760368
Fe  Fe5       1.0  0.95866  0.38200  0.21254  1.0000 0.74345352
Fe  Fe6       1.0  0.04134  0.88200  0.28746  1.0000 0.74345352
Fe  Fe7       1.0  0.46552  0.13332  0.79366  1.0000 0.7329760368
Fe  Fe8       1.0  0.53448  0.63332  0.70634  1.0000 0.7329760368
H   H1        1.0  0.66600  0.80190  0.13330  1.0000 0.1100318697
H   H2        1.0  0.33400  0.30190  0.36670  1.0000 0.1100318697
H   H3        1.0  0.76070  0.80030  0.04160  1.0000 0.1369322101
H   H4        1.0  0.23930  0.30030  0.45840  1.0000 0.1369322101
H   H5        1.0  0.70650  0.94470  0.00570  1.0000 0.1369322101
H   H6        1.0  0.29350  0.44470  0.49430  1.0000 0.1369322101
H   H7        1.0  0.61120  0.94200  0.09710  1.0000 0.104351588
H   H8        1.0  0.38880  0.44200  0.40290  1.0000 0.104351588
H   H9        1.0  0.96820  0.67150  0.91860  1.0000 0.1100318697
H   H10       1.0  0.03180  0.17150  0.58140  1.0000 0.1100318697
H   H11       1.0  0.91590  0.74710  0.95670  1.0000 0.1347577447
H   H12       1.0  0.08410  0.24710  0.54330  1.0000 0.1347577447
H   H13       1.0  0.97110  0.80380  0.76690  1.0000 0.1347577447
H   H14       1.0  0.02890  0.30380  0.73310  1.0000 0.1347577447
H   H15       1.0  0.02280  0.72670  0.73480  1.0000 0.1100318697
H   H16       1.0  0.97720  0.22670  0.76520  1.0000 0.1100318697
H   H17       1.0  0.02100  0.00900  0.72220  1.0000 0.1100318697
H   H18       1.0  0.97900  0.50900  0.77780  1.0000 0.1100318697
H   H19       1.0  0.99600  0.93480  0.77920  1.0000 0.1369322101
H   H20       1.0  0.00400  0.43480  0.72080  1.0000 0.1369322101
H   H21       1.0  0.78620  0.99680  0.86370  1.0000 0.1369322101
H   H22       1.0  0.21380  0.49680  0.63630  1.0000 0.1369322101
H   H23       1.0  0.81470  0.06800  0.80090  1.0000 0.1100318697
H   H24       1.0  0.18530  0.56800  0.69910  1.0000 0.1100318697
H   H25       1.0  0.15830  0.68380  0.87360  1.0000 0.104351588
H   H26       1.0  0.84170  0.18380  0.62640  1.0000 0.104351588
H   H27       1.0  0.25550  0.68300  0.96350  1.0000 0.1369322101
H   H28       1.0  0.74450  0.18300  0.53650  1.0000 0.1369322101
H   H29       1.0  0.20600  0.53690  0.99050  1.0000 0.1369322101
H   H30       1.0  0.79400  0.03690  0.50950  1.0000 0.1369322101
H   H31       1.0  0.10890  0.54240  0.90080  1.0000 0.1100318697
H   H32       1.0  0.89110  0.04240  0.59920  1.0000 0.1100318697
H   H33       1.0  0.46880  0.80930  0.07430  1.0000 0.1100318697
H   H34       1.0  0.53120  0.30930  0.42570  1.0000 0.1100318697
H   H35       1.0  0.41320  0.73360  0.04080  1.0000 0.1369322101
H   H36       1.0  0.58680  0.23360  0.45920  1.0000 0.1369322101
H   H37       1.0  0.46430  0.68150  0.23360  1.0000 0.1369322101
H   H38       1.0  0.53570  0.18150  0.26640  1.0000 0.1347577447
H   H39       1.0  0.51690  0.75900  0.26160  1.0000 0.1100318697
H   H40       1.0  0.48310  0.25900  0.23840  1.0000 0.1100318697
H   H41       1.0  0.49500  0.48120  0.30180  1.0000 0.1100318697
H   H42       1.0  0.50500  0.98120  0.19820  1.0000 0.1100318697
H   H43       1.0  0.46210  0.55510  0.24720  1.0000 0.1369322101
H   H44       1.0  0.53790  0.05510  0.25280  1.0000 0.1369322101
H   H45       1.0  0.32110  0.47740  0.10970  1.0000 0.1369322101
H   H46       1.0  0.67890  0.97740  0.39030  1.0000 0.1369322101
H   H47       1.0  0.35760  0.40600  0.16810  1.0000 0.1100318697
H   H48       1.0  0.64240  0.90600  0.33190  1.0000 0.1100318697
H   H49       1.0  0.99300  0.63460  0.65730  1.0000 0.3405060346
H   H50       1.0  0.00700  0.13460  0.84270  1.0000 0.3405060346
H   H51       1.0  0.86010  0.64600  0.65150  1.0000 0.0887124662
H   H52       1.0  0.13990  0.14600  0.84850  1.0000 0.0887124662
H   H53       1.0  0.85120  0.62650  0.72970  1.0000 0.1183834439
H   H54       1.0  0.14880  0.12650  0.77030  1.0000 0.1183834439
H   H55       1.0  0.77690  0.55190  0.73390  1.0000 0.1183834439
H   H56       1.0  0.22310  0.05190  0.76610  1.0000 0.1183834439
H   H57       1.0  0.73860  0.47560  0.68870  1.0000 0.1100318697
H   H58       1.0  0.26140  0.97560  0.81130  1.0000 0.1100318697
H   H59       1.0  0.80310  0.44590  0.58890  1.0000 0.1183834439
H   H60       1.0  0.19690  0.94590  0.91110  1.0000 0.1183834439
H   H61       1.0  0.90230  0.49400  0.53150  1.0000 0.1183834439
H   H62       1.0  0.09770  0.99400  0.96850  1.0000 0.1183834439
H   H63       1.0  0.93820  0.57210  0.57440  1.0000 0.1183834439
H   H64       1.0  0.06180  0.07210  0.92560  1.0000 0.1183834439
H   H65       1.0  0.38700  0.83850  0.25800  1.0000 0.303863662
H   H66       1.0  0.61300  0.33850  0.24200  1.0000 0.303863662
H   H67       1.0  0.33460  0.87540  0.34170  1.0000 0.0887124662
H   H68       1.0  0.66540  0.37540  0.15830  1.0000 0.0887124662
H   H69       1.0  0.38940  0.92040  0.31100  1.0000 0.1100318697
H   H70       1.0  0.61060  0.42040  0.18900  1.0000 0.104351588
H   H71       1.0  0.49050  0.81530  0.38160  1.0000 0.1183834439
H   H72       1.0  0.50950  0.31530  0.11840  1.0000 0.1183834439
H   H73       1.0  0.58030  0.81530  0.47600  1.0000 0.1100318697
H   H74       1.0  0.41970  0.31530  0.02400  1.0000 0.1100318697
H   H75       1.0  0.59290  0.88570  0.54360  1.0000 0.1183834439
H   H76       1.0  0.40710  0.38570  0.95640  1.0000 0.1183834439
H   H77       1.0  0.51370  0.95580  0.52070  1.0000 0.1100318697
H   H78       1.0  0.48630  0.45580  0.97930  1.0000 0.1100318697
H   H79       1.0  0.42130  0.95670  0.42310  1.0000 0.1183834439
H   H80       1.0  0.57870  0.45670  0.07690  1.0000 0.1183834439
H   H81       1.0  0.33400  0.19810  0.86670  1.0000 0.1100318697
H   H82       1.0  0.66600  0.69810  0.63330  1.0000 0.1100318697
H   H83       1.0  0.23930  0.19970  0.95840  1.0000 0.1369322101
H   H84       1.0  0.76070  0.69970  0.54160  1.0000 0.1369322101
H   H85       1.0  0.29350  0.05530  0.99430  1.0000 0.1369322101
H   H86       1.0  0.70650  0.55530  0.50570  1.0000 0.1369322101
H   H87       1.0  0.38880  0.05800  0.90290  1.0000 0.104351588
H   H88       1.0  0.61120  0.55800  0.59710  1.0000 0.104351588
H   H89       1.0  0.03180  0.32850  0.08140  1.0000 0.1100318697
H   H90       1.0  0.96820  0.82850  0.41860  1.0000 0.1100318697
H   H91       1.0  0.08410  0.25290  0.04330  1.0000 0.1347577447
H   H92       1.0  0.91590  0.75290  0.45670  1.0000 0.1347577447
H   H93       1.0  0.02890  0.19620  0.23310  1.0000 0.1347577447
H   H94       1.0  0.97110  0.69620  0.26690  1.0000 0.1347577447
H   H95       1.0  0.97720  0.27330  0.26520  1.0000 0.1100318697
H   H96       1.0  0.02280  0.77330  0.23480  1.0000 0.1100318697
H   H97       1.0  0.97900  0.99100  0.27780  1.0000 0.1100318697
H   H98       1.0  0.02100  0.49100  0.22220  1.0000 0.1100318697
H   H99       1.0  0.00400  0.06520  0.22080  1.0000 0.1369322101
H   H100      1.0  0.99600  0.56520  0.27920  1.0000 0.1369322101
H   H101      1.0  0.21380  0.00320  0.13630  1.0000 0.1369322101
H   H102      1.0  0.78620  0.50320  0.36370  1.0000 0.1369322101
H   H103      1.0  0.18530  0.93200  0.19910  1.0000 0.1100318697
H   H104      1.0  0.81470  0.43200  0.30090  1.0000 0.1100318697
H   H105      1.0  0.84170  0.31620  0.12640  1.0000 0.104351588
H   H106      1.0  0.15830  0.81620  0.37360  1.0000 0.104351588
H   H107      1.0  0.74450  0.31700  0.03650  1.0000 0.1369322101
H   H108      1.0  0.25550  0.81700  0.46350  1.0000 0.1369322101
H   H109      1.0  0.79400  0.46310  0.00950  1.0000 0.1369322101
H   H110      1.0  0.20600  0.96310  0.49050  1.0000 0.1369322101
H   H111      1.0  0.89110  0.45760  0.09920  1.0000 0.1100318697
H   H112      1.0  0.10890  0.95760  0.40080  1.0000 0.1100318697
H   H113      1.0  0.53120  0.19070  0.92570  1.0000 0.1100318697
H   H114      1.0  0.46880  0.69070  0.57430  1.0000 0.1100318697
H   H115      1.0  0.58680  0.26640  0.95920  1.0000 0.1369322101
H   H116      1.0  0.41320  0.76640  0.54080  1.0000 0.1369322101
H   H117      1.0  0.53570  0.31850  0.76640  1.0000 0.1369322101
H   H118      1.0  0.46430  0.81850  0.73360  1.0000 0.1369322101
H   H119      1.0  0.48310  0.24100  0.73840  1.0000 0.1100318697
H   H120      1.0  0.51690  0.74100  0.76160  1.0000 0.1100318697
H   H121      1.0  0.50500  0.51880  0.69820  1.0000 0.1100318697
H   H122      1.0  0.49500  0.01880  0.80180  1.0000 0.1100318697
H   H123      1.0  0.53790  0.44490  0.75280  1.0000 0.1369322101
H   H124      1.0  0.46210  0.94490  0.74720  1.0000 0.1369322101
H   H125      1.0  0.67890  0.52260  0.89030  1.0000 0.1369322101
H   H126      1.0  0.32110  0.02260  0.60970  1.0000 0.1369322101
H   H127      1.0  0.64240  0.59400  0.83190  1.0000 0.1100318697
H   H128      1.0  0.35760  0.09400  0.66810  1.0000 0.1100318697
H   H129      1.0  0.00700  0.36540  0.34270  1.0000 0.3405060346
H   H130      1.0  0.99300  0.86540  0.15730  1.0000 0.3405060346
H   H131      1.0  0.13990  0.35400  0.34850  1.0000 0.0887124662
H   H132      1.0  0.86010  0.85400  0.15150  1.0000 0.0887124662
H   H133      1.0  0.14880  0.37350  0.27030  1.0000 0.1183834439
H   H134      1.0  0.85120  0.87350  0.22970  1.0000 0.1183834439
H   H135      1.0  0.22310  0.44810  0.26610  1.0000 0.1183834439
H   H136      1.0  0.77690  0.94810  0.23390  1.0000 0.1183834439
H   H137      1.0  0.26140  0.52440  0.31130  1.0000 0.1100318697
H   H138      1.0  0.73860  0.02440  0.18870  1.0000 0.1100318697
H   H139      1.0  0.19690  0.55410  0.41110  1.0000 0.1183834439
H   H140      1.0  0.80310  0.05410  0.08890  1.0000 0.1183834439
H   H141      1.0  0.09770  0.50600  0.46850  1.0000 0.1183834439
H   H142      1.0  0.90230  0.00600  0.03150  1.0000 0.1183834439
H   H143      1.0  0.06180  0.42790  0.42560  1.0000 0.1183834439
H   H144      1.0  0.93820  0.92790  0.07440  1.0000 0.1100318697
H   H145      1.0  0.61300  0.16150  0.74200  1.0000 0.303863662
H   H146      1.0  0.38700  0.66150  0.75800  1.0000 0.303863662
H   H147      1.0  0.66540  0.12460  0.65830  1.0000 0.0887124662
H   H148      1.0  0.33460  0.62460  0.84170  1.0000 0.0887124662
H   H149      1.0  0.61060  0.07960  0.68900  1.0000 0.104351588
H   H150      1.0  0.38940  0.57960  0.81100  1.0000 0.104351588
H   H151      1.0  0.50950  0.18470  0.61840  1.0000 0.1183834439
H   H152      1.0  0.49050  0.68470  0.88160  1.0000 0.1183834439
H   H153      1.0  0.41970  0.18470  0.52400  1.0000 0.1100318697
H   H154      1.0  0.58030  0.68470  0.97600  1.0000 0.1100318697
H   H155      1.0  0.40710  0.11430  0.45640  1.0000 0.1183834439
H   H156      1.0  0.59290  0.61430  0.04360  1.0000 0.1183834439
H   H157      1.0  0.48630  0.04420  0.47930  1.0000 0.1100318697
H   H158      1.0  0.51370  0.54420  0.02070  1.0000 0.1100318697
H   H159      1.0  0.57870  0.04330  0.57690  1.0000 0.1183834439
H   H160      1.0  0.42130  0.54330  0.92310  1.0000 0.1183834439
C   C1        1.0  0.20020  0.67970  0.72695  1.0000 0.2670034344
C   C2        1.0  0.79980  0.17970  0.77305  1.0000 0.2670034344
C   C3        1.0  0.90250  0.57499  0.89327  1.0000 0.2613179733
C   C4        1.0  0.09750  0.07499  0.60673  1.0000 0.2613179733
C   C5        1.0  0.39430  0.91670  0.10440  1.0000 0.2613179733
C   C6        1.0  0.60570  0.41670  0.39560  1.0000 0.2613179733
C   C7        1.0  0.68170  0.80842  0.28870  1.0000 0.2613179733
C   C8        1.0  0.31830  0.30842  0.21130  1.0000 0.2613179733
C   C9        1.0  0.67410  0.83113  0.10661  1.0000 0.0791218117
C   C10       1.0  0.32590  0.33113  0.39339  1.0000 0.0791218117
C   C11       1.0  0.73090  0.82997  0.05226  1.0000 -0.1681649362
C   C12       1.0  0.26910  0.32997  0.44774  1.0000 -0.1681649362
C   C13       1.0  0.74415  0.87242  0.01343  1.0000 0.0597571203
C   C14       1.0  0.25585  0.37242  0.48657  1.0000 0.0597571203
C   C15       1.0  0.69870  0.91487  0.03105  1.0000 -0.1513882602
C   C16       1.0  0.30130  0.41487  0.46895  1.0000 -0.1513882602
C   C17       1.0  0.64240  0.91301  0.08569  1.0000 0.0887124662
C   C18       1.0  0.35760  0.41301  0.41431  1.0000 0.0887124662
C   C19       1.0  0.96830  0.69882  0.88739  1.0000 0.0887124662
C   C20       1.0  0.03170  0.19882  0.61261  1.0000 0.0887124662
C   C21       1.0  0.93660  0.74366  0.91063  1.0000 -0.1513882602
C   C22       1.0  0.06340  0.24366  0.58937  1.0000 -0.1513882602
C   C23       1.0  0.93583  0.78336  0.86507  1.0000 0.0597571203
C   C24       1.0  0.06417  0.28336  0.63493  1.0000 0.0597571203
C   C25       1.0  0.96940  0.77695  0.79874  1.0000 -0.1513882602
C   C26       1.0  0.03060  0.27695  0.70126  1.0000 -0.1513882602
C   C27       1.0  0.00010  0.73092  0.78011  1.0000 0.0730015679
C   C28       1.0  0.99990  0.23092  0.71989  1.0000 0.0730015679
C   C29       1.0  0.97220  0.00625  0.75085  1.0000 0.0791218117
C   C30       1.0  0.02780  0.50625  0.74915  1.0000 0.0791218117
C   C31       1.0  0.95830  0.96190  0.78504  1.0000 -0.1588632381
C   C32       1.0  0.04170  0.46190  0.71496  1.0000 -0.1588632381
C   C33       1.0  0.88810  0.95796  0.82808  1.0000 0.0597571203
C   C34       1.0  0.11190  0.45796  0.67192  1.0000 0.0597571203
C   C35       1.0  0.83450  0.99832  0.83429  1.0000 -0.1588632381
C   C36       1.0  0.16550  0.49832  0.66571  1.0000 -0.1588632381
C   C37       1.0  0.85250  0.04069  0.79712  1.0000 0.0791218117
C   C38       1.0  0.14750  0.54069  0.70288  1.0000 0.0791218117
C   C39       1.0  0.80500  0.87226  0.95467  1.0000 0.3605313584
C   C40       1.0  0.19500  0.37226  0.54533  1.0000 0.3605313584
C   C41       1.0  0.89560  0.83072  0.88581  1.0000 0.3690995077
C   C42       1.0  0.10440  0.33072  0.61419  1.0000 0.3690995077
C   C43       1.0  0.87120  0.91180  0.86741  1.0000 0.3605313584
C   C44       1.0  0.12880  0.41180  0.63259  1.0000 0.3605313584
C   C45       1.0  0.16840  0.65363  0.89778  1.0000 0.0791218117
C   C46       1.0  0.83160  0.15363  0.60222  1.0000 0.0791218117
C   C47       1.0  0.22630  0.65347  0.95118  1.0000 -0.1681649362
C   C48       1.0  0.77370  0.15347  0.54882  1.0000 -0.1681649362
C   C49       1.0  0.24170  0.60960  0.98695  1.0000 0.0597571203
C   C50       1.0  0.75830  0.10960  0.51305  1.0000 0.0597571203
C   C51       1.0  0.19720  0.56755  0.96736  1.0000 -0.1588632381
C   C52       1.0  0.80280  0.06755  0.53264  1.0000 -0.1588632381
C   C53       1.0  0.13990  0.57120  0.91361  1.0000 0.0887124662
C   C54       1.0  0.86010  0.07120  0.58639  1.0000 0.0887124662
C   C55       1.0  0.46720  0.78302  0.10715  1.0000 0.0887124662
C   C56       1.0  0.53280  0.28302  0.39285  1.0000 0.0887124662
C   C57       1.0  0.43380  0.73801  0.08676  1.0000 -0.1588632381
C   C58       1.0  0.56620  0.23801  0.41324  1.0000 -0.1588632381
C   C59       1.0  0.43050  0.69950  0.13413  1.0000 0.0597571203
C   C60       1.0  0.56950  0.19950  0.36587  1.0000 0.0597571203
C   C61       1.0  0.46360  0.70740  0.20023  1.0000 -0.1588632381
C   C62       1.0  0.53640  0.20740  0.29977  1.0000 -0.1588632381
C   C63       1.0  0.49530  0.75356  0.21615  1.0000 0.0791218117
C   C64       1.0  0.50470  0.25356  0.28385  1.0000 0.0791218117
C   C65       1.0  0.45940  0.48040  0.26201  1.0000 0.0730015679
C   C66       1.0  0.54060  0.98040  0.23799  1.0000 0.0730015679
C   C67       1.0  0.44030  0.52473  0.22968  1.0000 -0.1791144138
C   C68       1.0  0.55970  0.02473  0.27032  1.0000 -0.1791144138
C   C69       1.0  0.38880  0.52432  0.17111  1.0000 0.0597571203
C   C70       1.0  0.61120  0.02432  0.32889  1.0000 0.0597571203
C   C71       1.0  0.35750  0.47915  0.14898  1.0000 -0.1681649362
C   C72       1.0  0.64250  0.97915  0.35102  1.0000 -0.1681649362
C   C73       1.0  0.37950  0.43671  0.18420  1.0000 0.0791218117
C   C74       1.0  0.62050  0.93671  0.31580  1.0000 0.0791218117
C   C75       1.0  0.30220  0.60946  0.04544  1.0000 0.3605313584
C   C76       1.0  0.69780  0.10946  0.45456  1.0000 0.3605313584
C   C77       1.0  0.39040  0.65189  0.11547  1.0000 0.3605313584
C   C78       1.0  0.60960  0.15189  0.38453  1.0000 0.3605313584
C   C79       1.0  0.36910  0.57044  0.13314  1.0000 0.3543082053
C   C80       1.0  0.63090  0.07044  0.36686  1.0000 0.3605313584
C   C81       1.0  0.88120  0.62115  0.68510  1.0000 -0.0530968577
C   C82       1.0  0.11880  0.12115  0.81490  1.0000 -0.0530968577
C   C83       1.0  0.86090  0.57020  0.65854  1.0000 0.0791218117
C   C84       1.0  0.13910  0.07020  0.84146  1.0000 0.0791218117
C   C85       1.0  0.80230  0.54058  0.69200  1.0000 -0.1432686721
C   C86       1.0  0.19770  0.04058  0.80800  1.0000 -0.1432686721
C   C87       1.0  0.78020  0.49510  0.66570  1.0000 -0.0830533678
C   C88       1.0  0.21980  0.99510  0.83430  1.0000 -0.0830533678
C   C89       1.0  0.81780  0.47765  0.60650  1.0000 -0.0979920117
C   C90       1.0  0.18220  0.97765  0.89350  1.0000 -0.0979920117
C   C91       1.0  0.87630  0.50599  0.57270  1.0000 -0.0830533678
C   C92       1.0  0.12370  0.00599  0.92730  1.0000 -0.0830533678
C   C93       1.0  0.89770  0.55239  0.59840  1.0000 -0.1588632381
C   C94       1.0  0.10230  0.05239  0.90160  1.0000 -0.1588632381
C   C95       1.0  0.39270  0.88617  0.32920  1.0000 -0.0530968577
C   C96       1.0  0.60730  0.38617  0.17080  1.0000 -0.0530968577
C   C97       1.0  0.44840  0.88500  0.39270  1.0000 0.0791218117
C   C98       1.0  0.55160  0.38500  0.10730  1.0000 0.0791218117
C   C99       1.0  0.49510  0.84420  0.40940  1.0000 -0.1255930992
C   C100      1.0  0.50490  0.34420  0.09060  1.0000 -0.1255930992
C   C101      1.0  0.54820  0.84410  0.46500  1.0000 -0.0830533678
C   C102      1.0  0.45180  0.34410  0.03500  1.0000 -0.0830533678
C   C103      1.0  0.55500  0.88580  0.50520  1.0000 -0.0979920117
C   C104      1.0  0.44500  0.38580  0.99480  1.0000 -0.0979920117
C   C105      1.0  0.50880  0.92750  0.49160  1.0000 -0.0942185049
C   C106      1.0  0.49120  0.42750  0.00840  1.0000 -0.0942185049
C   C107      1.0  0.45380  0.92810  0.43390  1.0000 -0.1588632381
C   C108      1.0  0.54620  0.42810  0.06610  1.0000 -0.1588632381
C   C109      1.0  0.79980  0.32030  0.27305  1.0000 0.2670034344
C   C110      1.0  0.20020  0.82030  0.22695  1.0000 0.2670034344
C   C111      1.0  0.09750  0.42501  0.10673  1.0000 0.2613179733
C   C112      1.0  0.90250  0.92501  0.39327  1.0000 0.2613179733
C   C113      1.0  0.60570  0.08330  0.89560  1.0000 0.2613179733
C   C114      1.0  0.39430  0.58330  0.60440  1.0000 0.2613179733
C   C115      1.0  0.31830  0.19158  0.71130  1.0000 0.2613179733
C   C116      1.0  0.68170  0.69158  0.78870  1.0000 0.2613179733
C   C117      1.0  0.32590  0.16887  0.89339  1.0000 0.0791218117
C   C118      1.0  0.67410  0.66887  0.60661  1.0000 0.0791218117
C   C119      1.0  0.26910  0.17003  0.94774  1.0000 -0.1681649362
C   C120      1.0  0.73090  0.67003  0.55226  1.0000 -0.1681649362
C   C121      1.0  0.25585  0.12758  0.98657  1.0000 0.0597571203
C   C122      1.0  0.74415  0.62758  0.51343  1.0000 0.0597571203
C   C123      1.0  0.30130  0.08513  0.96895  1.0000 -0.1513882602
C   C124      1.0  0.69870  0.58513  0.53105  1.0000 -0.1513882602
C   C125      1.0  0.35760  0.08699  0.91431  1.0000 0.0887124662
C   C126      1.0  0.64240  0.58699  0.58569  1.0000 0.0887124662
C   C127      1.0  0.03170  0.30118  0.11261  1.0000 0.0887124662
C   C128      1.0  0.96830  0.80118  0.38739  1.0000 0.0887124662
C   C129      1.0  0.06340  0.25634  0.08937  1.0000 -0.1513882602
C   C130      1.0  0.93660  0.75634  0.41063  1.0000 -0.1513882602
C   C131      1.0  0.06417  0.21664  0.13493  1.0000 0.0597571203
C   C132      1.0  0.93583  0.71664  0.36507  1.0000 0.0597571203
C   C133      1.0  0.03060  0.22305  0.20126  1.0000 -0.1513882602
C   C134      1.0  0.96940  0.72305  0.29874  1.0000 -0.1513882602
C   C135      1.0  0.99990  0.26908  0.21989  1.0000 0.0730015679
C   C136      1.0  0.00010  0.76908  0.28011  1.0000 0.0730015679
C   C137      1.0  0.02780  0.99375  0.24915  1.0000 0.0791218117
C   C138      1.0  0.97220  0.49375  0.25085  1.0000 0.0791218117
C   C139      1.0  0.04170  0.03810  0.21496  1.0000 -0.1588632381
C   C140      1.0  0.95830  0.53810  0.28504  1.0000 -0.1588632381
C   C141      1.0  0.11190  0.04204  0.17192  1.0000 0.0597571203
C   C142      1.0  0.88810  0.54204  0.32808  1.0000 0.0597571203
C   C143      1.0  0.16550  0.00168  0.16571  1.0000 -0.1588632381
C   C144      1.0  0.83450  0.50168  0.33429  1.0000 -0.1588632381
C   C145      1.0  0.14750  0.95931  0.20288  1.0000 0.0791218117
C   C146      1.0  0.85250  0.45931  0.29712  1.0000 0.0791218117
C   C147      1.0  0.19500  0.12774  0.04533  1.0000 0.3605313584
C   C148      1.0  0.80500  0.62774  0.45467  1.0000 0.3605313584
C   C149      1.0  0.10440  0.16928  0.11419  1.0000 0.3690995077
C   C150      1.0  0.89560  0.66928  0.38581  1.0000 0.3690995077
C   C151      1.0  0.12880  0.08820  0.13259  1.0000 0.3605313584
C   C152      1.0  0.87120  0.58820  0.36741  1.0000 0.3605313584
C   C153      1.0  0.83160  0.34637  0.10222  1.0000 0.0791218117
C   C154      1.0  0.16840  0.84637  0.39778  1.0000 0.0791218117
C   C155      1.0  0.77370  0.34653  0.04882  1.0000 -0.1681649362
C   C156      1.0  0.22630  0.84653  0.45118  1.0000 -0.1681649362
C   C157      1.0  0.75830  0.39040  0.01305  1.0000 0.0597571203
C   C158      1.0  0.24170  0.89040  0.48695  1.0000 0.0597571203
C   C159      1.0  0.80280  0.43245  0.03264  1.0000 -0.1588632381
C   C160      1.0  0.19720  0.93245  0.46736  1.0000 -0.1588632381
C   C161      1.0  0.86010  0.42880  0.08639  1.0000 0.0887124662
C   C162      1.0  0.13990  0.92880  0.41361  1.0000 0.0887124662
C   C163      1.0  0.53280  0.21698  0.89285  1.0000 0.0887124662
C   C164      1.0  0.46720  0.71698  0.60715  1.0000 0.0887124662
C   C165      1.0  0.56620  0.26199  0.91324  1.0000 -0.1588632381
C   C166      1.0  0.43380  0.76199  0.58676  1.0000 -0.1588632381
C   C167      1.0  0.56950  0.30050  0.86587  1.0000 0.0597571203
C   C168      1.0  0.43050  0.80050  0.63413  1.0000 0.0597571203
C   C169      1.0  0.53640  0.29260  0.79977  1.0000 -0.1588632381
C   C170      1.0  0.46360  0.79260  0.70023  1.0000 -0.1588632381
C   C171      1.0  0.50470  0.24644  0.78385  1.0000 0.0791218117
C   C172      1.0  0.49530  0.74644  0.71615  1.0000 0.0791218117
C   C173      1.0  0.54060  0.51960  0.73799  1.0000 0.0730015679
C   C174      1.0  0.45940  0.01960  0.76201  1.0000 0.0730015679
C   C175      1.0  0.55970  0.47527  0.77032  1.0000 -0.1791144138
C   C176      1.0  0.44030  0.97527  0.72968  1.0000 -0.1791144138
C   C177      1.0  0.61120  0.47568  0.82889  1.0000 0.0597571203
C   C178      1.0  0.38880  0.97568  0.67111  1.0000 0.0597571203
C   C179      1.0  0.64250  0.52085  0.85102  1.0000 -0.1681649362
C   C180      1.0  0.35750  0.02085  0.64898  1.0000 -0.1681649362
C   C181      1.0  0.62050  0.56329  0.81580  1.0000 0.0791218117
C   C182      1.0  0.37950  0.06329  0.68420  1.0000 0.0791218117
C   C183      1.0  0.69780  0.39054  0.95456  1.0000 0.3605313584
C   C184      1.0  0.30220  0.89054  0.54544  1.0000 0.3605313584
C   C185      1.0  0.60960  0.34811  0.88453  1.0000 0.3605313584
C   C186      1.0  0.39040  0.84811  0.61547  1.0000 0.3605313584
C   C187      1.0  0.63090  0.42956  0.86686  1.0000 0.3605313584
C   C188      1.0  0.36910  0.92956  0.63314  1.0000 0.3605313584
C   C189      1.0  0.11880  0.37885  0.31490  1.0000 -0.0530968577
C   C190      1.0  0.88120  0.87885  0.18510  1.0000 -0.0530968577
C   C191      1.0  0.13910  0.42980  0.34146  1.0000 0.0791218117
C   C192      1.0  0.86090  0.92980  0.15854  1.0000 0.0791218117
C   C193      1.0  0.19770  0.45942  0.30800  1.0000 -0.1432686721
C   C194      1.0  0.80230  0.95942  0.19200  1.0000 -0.1432686721
C   C195      1.0  0.21980  0.50490  0.33430  1.0000 -0.0830533678
C   C196      1.0  0.78020  0.00490  0.16570  1.0000 -0.0830533678
C   C197      1.0  0.18220  0.52235  0.39350  1.0000 -0.0979920117
C   C198      1.0  0.81780  0.02235  0.10650  1.0000 -0.0979920117
C   C199      1.0  0.12370  0.49401  0.42730  1.0000 -0.0830533678
C   C200      1.0  0.87630  0.99401  0.07270  1.0000 -0.0830533678
C   C201      1.0  0.10230  0.44761  0.40160  1.0000 -0.1588632381
C   C202      1.0  0.89770  0.94761  0.09840  1.0000 -0.1588632381
C   C203      1.0  0.60730  0.11383  0.67080  1.0000 -0.0530968577
C   C204      1.0  0.39270  0.61383  0.82920  1.0000 -0.0530968577
C   C205      1.0  0.55160  0.11500  0.60730  1.0000 0.0791218117
C   C206      1.0  0.44840  0.61500  0.89270  1.0000 0.0791218117
C   C207      1.0  0.50490  0.15580  0.59060  1.0000 -0.1255930992
C   C208      1.0  0.49510  0.65580  0.90940  1.0000 -0.1255930992
C   C209      1.0  0.45180  0.15590  0.53500  1.0000 -0.0830533678
C   C210      1.0  0.54820  0.65590  0.96500  1.0000 -0.0830533678
C   C211      1.0  0.44500  0.11420  0.49480  1.0000 -0.0979920117
C   C212      1.0  0.55500  0.61420  0.00520  1.0000 -0.0979920117
C   C213      1.0  0.49120  0.07250  0.50840  1.0000 -0.0942185049
C   C214      1.0  0.50880  0.57250  0.99160  1.0000 -0.0942185049
C   C215      1.0  0.54620  0.07190  0.56610  1.0000 -0.1588632381
C   C216      1.0  0.45380  0.57190  0.93390  1.0000 -0.1588632381
S   S1        1.0  0.31931  0.93774  0.05448  1.0000 -0.4211431084
S   S2        1.0  0.68069  0.43774  0.44552  1.0000 -0.4211431084
S   S3        1.0  0.76484  0.77922  0.31668  1.0000 -0.3463551899
S   S4        1.0  0.23516  0.27922  0.18332  1.0000 -0.3463551899
S   S5        1.0  0.28149  0.71602  0.71409  1.0000 -0.3282668268
S   S6        1.0  0.71851  0.21602  0.78591  1.0000 -0.3282668268
S   S7        1.0  0.84529  0.56265  0.96182  1.0000 -0.3999316424
S   S8        1.0  0.15471  0.06265  0.53818  1.0000 -0.4069193845
S   S9        1.0  0.68069  0.06226  0.94552  1.0000 -0.4211431084
S   S10       1.0  0.31931  0.56226  0.55448  1.0000 -0.4211431084
S   S11       1.0  0.23516  0.22078  0.68332  1.0000 -0.3463551899
S   S12       1.0  0.76484  0.72078  0.81668  1.0000 -0.3463551899
S   S13       1.0  0.71851  0.28398  0.28591  1.0000 -0.3282668268
S   S14       1.0  0.28149  0.78398  0.21409  1.0000 -0.3282668268
S   S15       1.0  0.15471  0.43735  0.03818  1.0000 -0.3999316424
S   S16       1.0  0.84529  0.93735  0.46182  1.0000 -0.3999316424
N   N1        1.0  0.14234  0.65427  0.73583  1.0000 -0.5078510468
N   N2        1.0  0.85766  0.15427  0.76417  1.0000 -0.5078510468
N   N3        1.0  0.94374  0.58447  0.84533  1.0000 -0.4920972412
N   N4        1.0  0.05626  0.08447  0.65467  1.0000 -0.4920972412
N   N5        1.0  0.44785  0.90183  0.14048  1.0000 -0.4986881887
N   N6        1.0  0.55215  0.40183  0.35952  1.0000 -0.4986881887
N   N7        1.0  0.62288  0.82938  0.26850  1.0000 -0.4986881887
N   N8        1.0  0.37712  0.32938  0.23150  1.0000 -0.4986881887
N   N9        1.0  0.62983  0.87181  0.12338  1.0000 -0.2299192349
N   N10       1.0  0.37017  0.37181  0.37662  1.0000 -0.2299192349
N   N11       1.0  0.99923  0.69180  0.82342  1.0000 -0.2395757523
N   N12       1.0  0.00077  0.19180  0.67658  1.0000 -0.2395757523
N   N13       1.0  0.92060  0.04540  0.75591  1.0000 -0.2395757523
N   N14       1.0  0.07940  0.54540  0.74409  1.0000 -0.2395757523
N   N15       1.0  0.84398  0.82949  0.94041  1.0000 -0.3999316424
N   N16       1.0  0.15602  0.32949  0.55959  1.0000 -0.3999316424
N   N17       1.0  0.81576  0.91449  0.91961  1.0000 -0.3999316424
N   N18       1.0  0.18424  0.41449  0.58039  1.0000 -0.3999316424
N   N19       1.0  0.91259  0.87087  0.84771  1.0000 -0.4069193845
N   N20       1.0  0.08741  0.37087  0.65229  1.0000 -0.4069193845
N   N21       1.0  0.12562  0.61303  0.87847  1.0000 -0.2299192349
N   N22       1.0  0.87438  0.11303  0.62153  1.0000 -0.2299192349
N   N23       1.0  0.49731  0.79127  0.17078  1.0000 -0.2395757523
N   N24       1.0  0.50269  0.29127  0.32922  1.0000 -0.2395757523
N   N25       1.0  0.43039  0.43654  0.24034  1.0000 -0.2299192349
N   N26       1.0  0.56961  0.93654  0.25966  1.0000 -0.2299192349
N   N27       1.0  0.33930  0.65257  0.06052  1.0000 -0.3999316424
N   N28       1.0  0.66070  0.15257  0.43948  1.0000 -0.3999316424
N   N29       1.0  0.40683  0.61224  0.15442  1.0000 -0.3999316424
N   N30       1.0  0.59317  0.11224  0.34558  1.0000 -0.3999316424
N   N31       1.0  0.31641  0.56697  0.07889  1.0000 -0.3999316424
N   N32       1.0  0.68359  0.06697  0.42111  1.0000 -0.3999316424
N   N33       1.0  0.85766  0.34573  0.26417  1.0000 -0.5078510468
N   N34       1.0  0.14234  0.84573  0.23583  1.0000 -0.5078510468
N   N35       1.0  0.05626  0.41553  0.15467  1.0000 -0.4920972412
N   N36       1.0  0.94374  0.91553  0.34533  1.0000 -0.4920972412
N   N37       1.0  0.55215  0.09817  0.85952  1.0000 -0.4986881887
N   N38       1.0  0.44785  0.59817  0.64048  1.0000 -0.4986881887
N   N39       1.0  0.37712  0.17062  0.73150  1.0000 -0.4986881887
N   N40       1.0  0.62288  0.67062  0.76850  1.0000 -0.4986881887
N   N41       1.0  0.37017  0.12819  0.87662  1.0000 -0.2299192349
N   N42       1.0  0.62983  0.62819  0.62338  1.0000 -0.2299192349
N   N43       1.0  0.00077  0.30820  0.17658  1.0000 -0.2395757523
N   N44       1.0  0.99923  0.80820  0.32342  1.0000 -0.2395757523
N   N45       1.0  0.07940  0.95460  0.24409  1.0000 -0.2395757523
N   N46       1.0  0.92060  0.45460  0.25591  1.0000 -0.2395757523
N   N47       1.0  0.15602  0.17051  0.05959  1.0000 -0.3999316424
N   N48       1.0  0.84398  0.67051  0.44041  1.0000 -0.3999316424
N   N49       1.0  0.18424  0.08551  0.08039  1.0000 -0.3999316424
N   N50       1.0  0.81576  0.58551  0.41961  1.0000 -0.3938315933
N   N51       1.0  0.08741  0.12913  0.15229  1.0000 -0.4069193845
N   N52       1.0  0.91259  0.62913  0.34771  1.0000 -0.4069193845
N   N53       1.0  0.87438  0.38697  0.12153  1.0000 -0.2299192349
N   N54       1.0  0.12562  0.88697  0.37847  1.0000 -0.2299192349
N   N55       1.0  0.50269  0.20873  0.82922  1.0000 -0.2395757523
N   N56       1.0  0.49731  0.70873  0.67078  1.0000 -0.2395757523
N   N57       1.0  0.56961  0.56346  0.75966  1.0000 -0.2299192349
N   N58       1.0  0.43039  0.06346  0.74034  1.0000 -0.2299192349
N   N59       1.0  0.66070  0.34743  0.93948  1.0000 -0.3999316424
N   N60       1.0  0.33930  0.84743  0.56052  1.0000 -0.3999316424
N   N61       1.0  0.59317  0.38776  0.84558  1.0000 -0.3999316424
N   N62       1.0  0.40683  0.88776  0.65442  1.0000 -0.3999316424
N   N63       1.0  0.68359  0.43303  0.92111  1.0000 -0.3999316424
N   N64       1.0  0.31641  0.93303  0.57889  1.0000 -0.3999316424
O   O1        1.0  0.96994  0.62852  0.69559  1.0000 -0.4211431084
O   O2        1.0  0.03006  0.12852  0.80441  1.0000 -0.4211431084
O   O3        1.0  0.42627  0.85425  0.27730  1.0000 -0.4462312286
O   O4        1.0  0.57373  0.35425  0.22270  1.0000 -0.4462312286
O   O5        1.0  0.03006  0.37148  0.30441  1.0000 -0.4211431084
O   O6        1.0  0.96994  0.87148  0.19559  1.0000 -0.4211431084
O   O7        1.0  0.57373  0.14575  0.72270  1.0000 -0.4462312286
O   O8        1.0  0.42627  0.64575  0.77730  1.0000 -0.4462312286
