# DDEC6 charges by PACMAN v1.1 (https://github.com/mtap-research/PACMAN-charge/)
data_2005[Mn][lvt]3[FSR]5
_chemical_formula_sum              "Mn24 H512 C432 N72 O80"
_cell_length_a       30.0292
_cell_length_b       30.0292
_cell_length_c       30.0292
_cell_angle_alpha    94.7068
_cell_angle_beta     94.7068
_cell_angle_gamma    146.708

_symmetry_space_group_name_H-M    "P 1"
_symmetry_Int_Tables_number       1

loop_
  _symmetry_equiv_pos_as_xyz
  'x, y, z'

loop_
  _atom_site_type_symbol
  _atom_site_label
  _atom_site_symmetry_multiplicity
  _atom_site_fract_x
  _atom_site_fract_y
  _atom_site_fract_z
  _atom_site_occupancy
  _atom_site_charge
Mn  Mn1       1.0  0.26692  0.13631  0.28595  1.0000 0.8508773323
Mn  Mn2       1.0  0.23097  0.01692  0.63061  1.0000 0.8508773323
Mn  Mn3       1.0  0.38631  0.60036  0.36939  1.0000 0.8508773323
Mn  Mn4       1.0  0.85036  0.98097  0.71405  1.0000 0.8508773323
Mn  Mn5       1.0  0.98308  0.61369  0.21405  1.0000 0.8508773323
Mn  Mn6       1.0  0.01903  0.73308  0.86939  1.0000 0.8508773323
Mn  Mn7       1.0  0.86369  0.14964  0.13061  1.0000 0.8508773323
Mn  Mn8       1.0  0.39964  0.76903  0.78595  1.0000 0.8508773323
Mn  Mn9       1.0  0.33207  0.08211  0.17210  1.0000 0.7011259224
Mn  Mn10      1.0  0.40997  0.08207  0.74996  1.0000 0.7011259224
Mn  Mn11      1.0  0.33211  0.66001  0.25004  1.0000 0.7011259224
Mn  Mn12      1.0  0.91001  0.15997  0.82790  1.0000 0.7011259224
Mn  Mn13      1.0  0.91793  0.66789  0.32790  1.0000 0.7011259224
Mn  Mn14      1.0  0.84003  0.66793  0.75004  1.0000 0.7011259224
Mn  Mn15      1.0  0.91789  0.08999  0.24996  1.0000 0.7011259224
Mn  Mn16      1.0  0.33999  0.59003  0.67210  1.0000 0.7011259224
Mn  Mn17      1.0  0.12731  0.96127  0.39316  1.0000 0.7399157758
Mn  Mn18      1.0  0.98415  0.87731  0.66604  1.0000 0.7399157758
Mn  Mn19      1.0  0.21127  0.31811  0.33396  1.0000 0.7399157758
Mn  Mn20      1.0  0.56811  0.73415  0.60684  1.0000 0.7399157758
Mn  Mn21      1.0  0.12269  0.78873  0.10684  1.0000 0.7399157758
Mn  Mn22      1.0  0.26585  0.87269  0.83396  1.0000 0.7399157758
Mn  Mn23      1.0  0.03873  0.43189  0.16604  1.0000 0.7399157758
Mn  Mn24      1.0  0.68189  0.01585  0.89316  1.0000 0.7399157758
H   H1        1.0  0.50050  0.34820  0.39930  1.0000 0.1193973247
H   H2        1.0  0.35120  0.25050  0.65230  1.0000 0.1193973247
H   H3        1.0  0.59820  0.69890  0.34770  1.0000 0.1193973247
H   H4        1.0  0.94890  0.10120  0.60070  1.0000 0.1193973247
H   H5        1.0  0.74950  0.40180  0.10070  1.0000 0.1193973247
H   H6        1.0  0.89880  0.49950  0.84770  1.0000 0.1193973247
H   H7        1.0  0.65180  0.05110  0.15230  1.0000 0.1193973247
H   H8        1.0  0.30110  0.64880  0.89930  1.0000 0.1193973247
H   H9        1.0  0.63670  0.43990  0.40240  1.0000 0.109334016
H   H10       1.0  0.48430  0.38670  0.69680  1.0000 0.109334016
H   H11       1.0  0.68990  0.78750  0.30320  1.0000 0.109334016
H   H12       1.0  0.03750  0.23430  0.59760  1.0000 0.109334016
H   H13       1.0  0.61330  0.31010  0.09760  1.0000 0.109334016
H   H14       1.0  0.76570  0.36330  0.80320  1.0000 0.109334016
H   H15       1.0  0.56010  0.96250  0.19680  1.0000 0.109334016
H   H16       1.0  0.21250  0.51570  0.90240  1.0000 0.109334016
H   H17       1.0  0.66690  0.43040  0.33790  1.0000 0.1193973247
H   H18       1.0  0.57900  0.41690  0.73650  1.0000 0.1193973247
H   H19       1.0  0.68040  0.84250  0.26350  1.0000 0.1193973247
H   H20       1.0  0.09250  0.32900  0.66210  1.0000 0.1193973247
H   H21       1.0  0.58310  0.31960  0.16210  1.0000 0.1193973247
H   H22       1.0  0.67100  0.33310  0.76350  1.0000 0.1193973247
H   H23       1.0  0.56960  0.90750  0.23650  1.0000 0.1193973247
H   H24       1.0  0.15750  0.42100  0.83790  1.0000 0.1193973247
H   H25       1.0  0.55910  0.31910  0.27120  1.0000 0.1193973247
H   H26       1.0  0.53790  0.30910  0.74000  1.0000 0.1193973247
H   H27       1.0  0.56910  0.79790  0.26000  1.0000 0.1193973247
H   H28       1.0  0.04790  0.28790  0.72880  1.0000 0.1193973247
H   H29       1.0  0.69090  0.43090  0.22880  1.0000 0.1193973247
H   H30       1.0  0.71210  0.44090  0.76000  1.0000 0.1193973247
H   H31       1.0  0.68090  0.95210  0.24000  1.0000 0.1193973247
H   H32       1.0  0.20210  0.46210  0.77120  1.0000 0.1193973247
H   H33       1.0  0.13570  0.94430  0.14160  1.0000 0.1387576134
H   H34       1.0  0.24410  0.88570  0.69140  1.0000 0.1387576134
H   H35       1.0  0.19430  0.55270  0.30860  1.0000 0.1387576134
H   H36       1.0  0.80270  0.99410  0.85840  1.0000 0.1387576134
H   H37       1.0  0.11430  0.80570  0.35840  1.0000 0.1387576134
H   H38       1.0  0.00590  0.86430  0.80860  1.0000 0.1387576134
H   H39       1.0  0.05570  0.19730  0.19140  1.0000 0.1387576134
H   H40       1.0  0.44730  0.75590  0.64160  1.0000 0.1387576134
H   H41       1.0  0.07200  0.89730  0.17330  1.0000 0.1387576134
H   H42       1.0  0.14870  0.82200  0.67470  1.0000 0.1387576134
H   H43       1.0  0.14730  0.47400  0.32530  1.0000 0.1387576134
H   H44       1.0  0.72400  0.89870  0.82670  1.0000 0.1387576134
H   H45       1.0  0.17800  0.85270  0.32670  1.0000 0.1387576134
H   H46       1.0  0.10130  0.92800  0.82530  1.0000 0.1387576134
H   H47       1.0  0.10270  0.27600  0.17470  1.0000 0.1387576134
H   H48       1.0  0.52600  0.85130  0.67330  1.0000 0.1387576134
H   H49       1.0  0.02030  0.89520  0.11030  1.0000 0.0913656518
H   H50       1.0  0.16000  0.77030  0.62510  1.0000 0.0913656518
H   H51       1.0  0.14520  0.53490  0.37490  1.0000 0.0913656518
H   H52       1.0  0.78490  0.91000  0.88970  1.0000 0.0913656518
H   H53       1.0  0.22970  0.85480  0.38970  1.0000 0.0913656518
H   H54       1.0  0.09000  0.97970  0.87490  1.0000 0.0913656518
H   H55       1.0  0.10480  0.21510  0.12510  1.0000 0.0913656518
H   H56       1.0  0.46510  0.84000  0.61030  1.0000 0.0913656518
H   H57       1.0  0.05500  0.95930  0.15470  1.0000 0.0913656518
H   H58       1.0  0.15030  0.80500  0.59570  1.0000 0.0913656518
H   H59       1.0  0.20930  0.55460  0.40430  1.0000 0.0913656518
H   H60       1.0  0.80460  0.90030  0.84530  1.0000 0.0913656518
H   H61       1.0  0.19500  0.79070  0.34530  1.0000 0.0913656518
H   H62       1.0  0.09970  0.94500  0.90430  1.0000 0.0913656518
H   H63       1.0  0.04070  0.19540  0.09570  1.0000 0.0913656518
H   H64       1.0  0.44540  0.84970  0.65470  1.0000 0.0913656518
H   H65       1.0  0.17890  0.07490  0.13280  1.0000 0.109334016
H   H66       1.0  0.29610  0.92890  0.60400  1.0000 0.109334016
H   H67       1.0  0.32490  0.69210  0.39600  1.0000 0.109334016
H   H68       1.0  0.94210  0.04610  0.86720  1.0000 0.109334016
H   H69       1.0  0.07110  0.67510  0.36720  1.0000 0.109334016
H   H70       1.0  0.95390  0.82110  0.89600  1.0000 0.109334016
H   H71       1.0  0.92510  0.05790  0.10400  1.0000 0.109334016
H   H72       1.0  0.30790  0.70390  0.63280  1.0000 0.109334016
H   H73       1.0  0.14970  0.01310  0.09020  1.0000 0.109334016
H   H74       1.0  0.30950  0.89970  0.63660  1.0000 0.109334016
H   H75       1.0  0.26310  0.67290  0.36340  1.0000 0.109334016
H   H76       1.0  0.92290  0.05950  0.90980  1.0000 0.109334016
H   H77       1.0  0.10030  0.73690  0.40980  1.0000 0.109334016
H   H78       1.0  0.94050  0.85030  0.86340  1.0000 0.109334016
H   H79       1.0  0.98690  0.07710  0.13660  1.0000 0.109334016
H   H80       1.0  0.32710  0.69050  0.59020  1.0000 0.109334016
H   H81       1.0  0.06550  0.02530  0.09720  1.0000 0.0913656518
H   H82       1.0  0.21830  0.81550  0.54020  1.0000 0.0913656518
H   H83       1.0  0.27530  0.67810  0.45980  1.0000 0.0913656518
H   H84       1.0  0.92810  0.96830  0.90280  1.0000 0.0913656518
H   H85       1.0  0.18450  0.72470  0.40280  1.0000 0.0913656518
H   H86       1.0  0.03170  0.93450  0.95980  1.0000 0.0913656518
H   H87       1.0  0.97470  0.07190  0.04020  1.0000 0.0913656518
H   H88       1.0  0.32190  0.78170  0.59720  1.0000 0.0913656518
H   H89       1.0  0.03500  0.96220  0.05480  1.0000 0.1002210487
H   H90       1.0  0.23020  0.78500  0.57280  1.0000 0.1002210487
H   H91       1.0  0.21220  0.65740  0.42720  1.0000 0.1002210487
H   H92       1.0  0.90740  0.98020  0.94520  1.0000 0.1002210487
H   H93       1.0  0.21500  0.78780  0.44520  1.0000 0.1002210487
H   H94       1.0  0.01980  0.96500  0.92720  1.0000 0.1002210487
H   H95       1.0  0.03780  0.09260  0.07280  1.0000 0.1002210487
H   H96       1.0  0.34260  0.76980  0.55480  1.0000 0.1002210487
H   H97       1.0  0.16280  0.07960  0.03540  1.0000 0.1303658826
H   H98       1.0  0.37740  0.91280  0.58320  1.0000 0.1303658826
H   H99       1.0  0.32960  0.79420  0.41680  1.0000 0.1303658826
H   H100      1.0  0.04420  0.12740  0.96460  1.0000 0.1303658826
H   H101      1.0  0.08720  0.67040  0.46460  1.0000 0.1303658826
H   H102      1.0  0.87260  0.83720  0.91680  1.0000 0.1303658826
H   H103      1.0  0.92040  0.95580  0.08320  1.0000 0.1303658826
H   H104      1.0  0.20580  0.62260  0.53540  1.0000 0.1303658826
H   H105      1.0  0.10960  0.08000  0.03260  1.0000 0.1193973247
H   H106      1.0  0.32700  0.85960  0.52960  1.0000 0.1193973247
H   H107      1.0  0.33000  0.79740  0.47040  1.0000 0.1193973247
H   H108      1.0  0.04740  0.07700  0.96740  1.0000 0.1193973247
H   H109      1.0  0.14040  0.67000  0.46740  1.0000 0.1193973247
H   H110      1.0  0.92300  0.89040  0.97040  1.0000 0.1193973247
H   H111      1.0  0.92000  0.95260  0.02960  1.0000 0.1193973247
H   H112      1.0  0.20260  0.67300  0.53260  1.0000 0.1193973247
H   H113      1.0  0.18910  0.14090  0.07640  1.0000 0.1303658826
H   H114      1.0  0.36270  0.93910  0.54820  1.0000 0.1303658826
H   H115      1.0  0.39090  0.81450  0.45180  1.0000 0.1303658826
H   H116      1.0  0.06450  0.11270  0.92360  1.0000 0.1303658826
H   H117      1.0  0.06090  0.60910  0.42360  1.0000 0.1303658826
H   H118      1.0  0.88730  0.81090  0.95180  1.0000 0.1303658826
H   H119      1.0  0.85910  0.93550  0.04820  1.0000 0.1303658826
H   H120      1.0  0.18550  0.63730  0.57640  1.0000 0.1303658826
H   H121      1.0  0.18330  0.13350  0.21620  1.0000 0.1002210487
H   H122      1.0  0.21710  0.93330  0.54980  1.0000 0.1002210487
H   H123      1.0  0.38350  0.66730  0.45020  1.0000 0.1002210487
H   H124      1.0  0.91730  0.96710  0.78380  1.0000 0.1002210487
H   H125      1.0  0.06670  0.61650  0.28380  1.0000 0.1002210487
H   H126      1.0  0.03290  0.81670  0.95020  1.0000 0.1002210487
H   H127      1.0  0.86650  0.08270  0.04980  1.0000 0.1002210487
H   H128      1.0  0.33270  0.78290  0.71620  1.0000 0.1002210487
H   H129      1.0  0.12970  0.14660  0.18110  1.0000 0.1387576134
H   H130      1.0  0.19860  0.87970  0.48310  1.0000 0.1387576134
H   H131      1.0  0.39660  0.71550  0.51690  1.0000 0.1387576134
H   H132      1.0  0.96550  0.94860  0.81890  1.0000 0.1387576134
H   H133      1.0  0.12030  0.60340  0.31890  1.0000 0.1387576134
H   H134      1.0  0.05140  0.87030  0.01690  1.0000 0.1387576134
H   H135      1.0  0.85340  0.03450  0.98310  1.0000 0.1387576134
H   H136      1.0  0.28450  0.80140  0.68110  1.0000 0.1387576134
H   H137      1.0  0.18050  0.23590  0.19400  1.0000 0.159510535
H   H138      1.0  0.23650  0.93050  0.44460  1.0000 0.159510535
H   H139      1.0  0.48590  0.79190  0.55540  1.0000 0.159510535
H   H140      1.0  0.04190  0.98650  0.80600  1.0000 0.159510535
H   H141      1.0  0.06950  0.51410  0.30600  1.0000 0.159510535
H   H142      1.0  0.01350  0.81950  0.05540  1.0000 0.159510535
H   H143      1.0  0.76410  0.95810  0.94460  1.0000 0.159510535
H   H144      1.0  0.20810  0.76350  0.69400  1.0000 0.159510535
H   H145      1.0  0.18830  0.21040  0.15010  1.0000 0.1480207548
H   H146      1.0  0.28820  0.93830  0.47790  1.0000 0.1480207548
H   H147      1.0  0.46040  0.81030  0.52210  1.0000 0.1480207548
H   H148      1.0  0.06030  0.03820  0.84990  1.0000 0.1480207548
H   H149      1.0  0.06170  0.53960  0.34990  1.0000 0.1480207548
H   H150      1.0  0.96180  0.81170  0.02210  1.0000 0.1480207548
H   H151      1.0  0.78960  0.93970  0.97790  1.0000 0.1480207548
H   H152      1.0  0.18970  0.71180  0.65010  1.0000 0.1480207548
H   H153      1.0  0.34700  0.35560  0.19960  1.0000 0.1387576134
H   H154      1.0  0.39740  0.09700  0.49140  1.0000 0.1387576134
H   H155      1.0  0.60560  0.90600  0.50860  1.0000 0.1387576134
H   H156      1.0  0.15600  0.14740  0.80040  1.0000 0.1387576134
H   H157      1.0  0.90300  0.39440  0.30040  1.0000 0.1387576134
H   H158      1.0  0.85260  0.65300  0.00860  1.0000 0.1387576134
H   H159      1.0  0.64440  0.84400  0.99140  1.0000 0.1387576134
H   H160      1.0  0.09400  0.60260  0.69960  1.0000 0.1387576134
H   H161      1.0  0.32190  0.35320  0.24530  1.0000 0.1387576134
H   H162      1.0  0.32660  0.07190  0.46870  1.0000 0.1387576134
H   H163      1.0  0.60320  0.85790  0.53130  1.0000 0.1387576134
H   H164      1.0  0.10790  0.07660  0.75470  1.0000 0.1387576134
H   H165      1.0  0.92810  0.39680  0.25470  1.0000 0.1387576134
H   H166      1.0  0.92340  0.67810  0.03130  1.0000 0.1387576134
H   H167      1.0  0.64680  0.89210  0.96870  1.0000 0.1387576134
H   H168      1.0  0.14210  0.67340  0.74530  1.0000 0.1387576134
H   H169      1.0  0.37310  0.35070  0.24520  1.0000 0.1387576134
H   H170      1.0  0.37790  0.12310  0.52240  1.0000 0.1387576134
H   H171      1.0  0.60070  0.85550  0.47760  1.0000 0.1387576134
H   H172      1.0  0.10550  0.12790  0.75480  1.0000 0.1387576134
H   H173      1.0  0.87690  0.39930  0.25480  1.0000 0.1387576134
H   H174      1.0  0.87210  0.62690  0.97760  1.0000 0.1387576134
H   H175      1.0  0.64930  0.89450  0.02240  1.0000 0.1387576134
H   H176      1.0  0.14450  0.62210  0.74520  1.0000 0.1387576134
H   H177      1.0  0.34790  0.17170  0.05740  1.0000 0.1387576134
H   H178      1.0  0.54050  0.09790  0.67620  1.0000 0.1387576134
H   H179      1.0  0.42170  0.86430  0.32380  1.0000 0.1387576134
H   H180      1.0  0.11430  0.29050  0.94260  1.0000 0.1480207548
H   H181      1.0  0.90210  0.57830  0.44260  1.0000 0.1387576134
H   H182      1.0  0.70950  0.65210  0.82380  1.0000 0.1387576134
H   H183      1.0  0.82830  0.88570  0.17620  1.0000 0.1387576134
H   H184      1.0  0.13570  0.45950  0.55740  1.0000 0.1387576134
H   H185      1.0  0.28540  0.10860  0.97920  1.0000 0.109334016
H   H186      1.0  0.55620  0.03540  0.67680  1.0000 0.109334016
H   H187      1.0  0.35860  0.87940  0.32320  1.0000 0.109334016
H   H188      1.0  0.12940  0.30620  0.02080  1.0000 0.109334016
H   H189      1.0  0.96460  0.64140  0.52080  1.0000 0.109334016
H   H190      1.0  0.69380  0.71460  0.82320  1.0000 0.109334016
H   H191      1.0  0.89140  0.87060  0.17680  1.0000 0.109334016
H   H192      1.0  0.12060  0.44380  0.47920  1.0000 0.109334016
H   H193      1.0  0.19630  0.97210  0.94780  1.0000 0.1193973247
H   H194      1.0  0.49850  0.94630  0.72420  1.0000 0.1193973247
H   H195      1.0  0.22210  0.77430  0.27580  1.0000 0.1193973247
H   H196      1.0  0.02430  0.24850  0.05220  1.0000 0.1193973247
H   H197      1.0  0.05370  0.77790  0.55220  1.0000 0.1193973247
H   H198      1.0  0.75150  0.80370  0.77580  1.0000 0.1193973247
H   H199      1.0  0.02790  0.97570  0.22420  1.0000 0.1193973247
H   H200      1.0  0.22570  0.50150  0.44780  1.0000 0.1193973247
H   H201      1.0  0.16150  0.89570  0.99840  1.0000 0.109334016
H   H202      1.0  0.41310  0.91150  0.76580  1.0000 0.109334016
H   H203      1.0  0.14570  0.64730  0.23420  1.0000 0.109334016
H   H204      1.0  0.89730  0.16310  0.00160  1.0000 0.109334016
H   H205      1.0  0.08850  0.85430  0.50160  1.0000 0.109334016
H   H206      1.0  0.83690  0.83850  0.73420  1.0000 0.109334016
H   H207      1.0  0.10430  0.10270  0.26580  1.0000 0.109334016
H   H208      1.0  0.35270  0.58690  0.49840  1.0000 0.109334016
H   H209      1.0  0.25620  0.92220  0.25960  1.0000 0.1303658826
H   H210      1.0  0.24660  0.00620  0.83400  1.0000 0.1303658826
H   H211      1.0  0.17220  0.41260  0.16600  1.0000 0.1303658826
H   H212      1.0  0.66260  0.99660  0.74040  1.0000 0.1303658826
H   H213      1.0  0.99380  0.82780  0.24040  1.0000 0.1303658826
H   H214      1.0  0.00340  0.74380  0.66600  1.0000 0.1303658826
H   H215      1.0  0.07780  0.33740  0.33400  1.0000 0.1303658826
H   H216      1.0  0.58740  0.75340  0.75960  1.0000 0.1303658826
H   H217      1.0  0.21650  0.85520  0.21470  1.0000 0.1387576134
H   H218      1.0  0.25180  0.96650  0.86130  1.0000 0.1387576134
H   H219      1.0  0.10520  0.39050  0.13870  1.0000 0.1387576134
H   H220      1.0  0.64050  0.00180  0.78530  1.0000 0.1387576134
H   H221      1.0  0.03350  0.89480  0.28530  1.0000 0.1387576134
H   H222      1.0  0.99820  0.78350  0.63870  1.0000 0.1387576134
H   H223      1.0  0.14480  0.35950  0.36130  1.0000 0.1387576134
H   H224      1.0  0.60950  0.74820  0.71470  1.0000 0.1387576134
H   H225      1.0  0.34530  0.93590  0.26580  1.0000 0.0913656518
H   H226      1.0  0.32950  0.09530  0.90940  1.0000 0.0913656518
H   H227      1.0  0.18590  0.42010  0.09060  1.0000 0.0913656518
H   H228      1.0  0.67010  0.07950  0.73420  1.0000 0.0913656518
H   H229      1.0  0.90470  0.81410  0.23420  1.0000 0.0913656518
H   H230      1.0  0.92050  0.65470  0.59060  1.0000 0.0913656518
H   H231      1.0  0.06410  0.32990  0.40940  1.0000 0.0913656518
H   H232      1.0  0.57990  0.67050  0.76580  1.0000 0.0913656518
H   H233      1.0  0.39590  0.01880  0.25330  1.0000 0.1002210487
H   H234      1.0  0.39260  0.14590  0.87710  1.0000 0.1002210487
H   H235      1.0  0.26880  0.51550  0.12290  1.0000 0.1002210487
H   H236      1.0  0.76550  0.14260  0.74670  1.0000 0.1002210487
H   H237      1.0  0.85410  0.73120  0.24670  1.0000 0.1002210487
H   H238      1.0  0.85740  0.60410  0.62290  1.0000 0.1002210487
H   H239      1.0  0.98120  0.23450  0.37710  1.0000 0.1002210487
H   H240      1.0  0.48450  0.60740  0.75330  1.0000 0.1002210487
H   H241      1.0  0.35960  0.95960  0.17420  1.0000 0.1002210487
H   H242      1.0  0.43540  0.10960  0.90000  1.0000 0.1002210487
H   H243      1.0  0.20960  0.53540  0.10000  1.0000 0.1002210487
H   H244      1.0  0.78540  0.18540  0.82580  1.0000 0.1002210487
H   H245      1.0  0.89040  0.79040  0.32580  1.0000 0.109334016
H   H246      1.0  0.81460  0.64040  0.60000  1.0000 0.1002210487
H   H247      1.0  0.04040  0.21460  0.40000  1.0000 0.1002210487
H   H248      1.0  0.46460  0.56460  0.67420  1.0000 0.1002210487
H   H249      1.0  0.30560  0.87480  0.18540  1.0000 0.1002210487
H   H250      1.0  0.37020  0.05560  0.93080  1.0000 0.1002210487
H   H251      1.0  0.12480  0.43940  0.06920  1.0000 0.1002210487
H   H252      1.0  0.68940  0.12020  0.81460  1.0000 0.1002210487
H   H253      1.0  0.94440  0.87520  0.31460  1.0000 0.1002210487
H   H254      1.0  0.87980  0.69440  0.56920  1.0000 0.1002210487
H   H255      1.0  0.12520  0.31060  0.43080  1.0000 0.1002210487
H   H256      1.0  0.56060  0.62980  0.68540  1.0000 0.1002210487
H   H257      1.0  0.43370  0.95420  0.23410  1.0000 0.1002210487
H   H258      1.0  0.44960  0.18370  0.97950  1.0000 0.1002210487
H   H259      1.0  0.20420  0.47010  0.02050  1.0000 0.1002210487
H   H260      1.0  0.72010  0.19960  0.76590  1.0000 0.1002210487
H   H261      1.0  0.81630  0.79580  0.26590  1.0000 0.1002210487
H   H262      1.0  0.80040  0.56630  0.52050  1.0000 0.1002210487
H   H263      1.0  0.04580  0.27990  0.47950  1.0000 0.1002210487
H   H264      1.0  0.52990  0.55040  0.73410  1.0000 0.1002210487
H   H265      1.0  0.48540  0.03540  0.21840  1.0000 0.0913656518
H   H266      1.0  0.51700  0.23540  0.95000  1.0000 0.0913656518
H   H267      1.0  0.28540  0.56700  0.05000  1.0000 0.0913656518
H   H268      1.0  0.81700  0.26700  0.78160  1.0000 0.0913656518
H   H269      1.0  0.76460  0.71460  0.28160  1.0000 0.0913656518
H   H270      1.0  0.73300  0.51460  0.55000  1.0000 0.0913656518
H   H271      1.0  0.96460  0.18300  0.45000  1.0000 0.0913656518
H   H272      1.0  0.43300  0.48300  0.71840  1.0000 0.0913656518
H   H273      1.0  0.39180  0.91360  0.14140  1.0000 0.1303658826
H   H274      1.0  0.50040  0.14180  0.97820  1.0000 0.1303658826
H   H275      1.0  0.16360  0.52220  0.02180  1.0000 0.1303658826
H   H276      1.0  0.77220  0.25040  0.85860  1.0000 0.1303658826
H   H277      1.0  0.85820  0.83640  0.35860  1.0000 0.1303658826
H   H278      1.0  0.74960  0.60820  0.52180  1.0000 0.1303658826
H   H279      1.0  0.08640  0.22780  0.47820  1.0000 0.1303658826
H   H280      1.0  0.47780  0.49960  0.64140  1.0000 0.1303658826
H   H281      1.0  0.49240  0.99780  0.16080  1.0000 0.109334016
H   H282      1.0  0.58160  0.24240  0.99460  1.0000 0.109334016
H   H283      1.0  0.24780  0.58700  0.00540  1.0000 0.109334016
H   H284      1.0  0.83700  0.33160  0.83920  1.0000 0.109334016
H   H285      1.0  0.75760  0.75220  0.33920  1.0000 0.109334016
H   H286      1.0  0.66840  0.50760  0.50540  1.0000 0.109334016
H   H287      1.0  0.00220  0.16300  0.49460  1.0000 0.109334016
H   H288      1.0  0.41300  0.41840  0.66080  1.0000 0.109334016
H   H289      1.0  0.43640  0.91410  0.17510  1.0000 0.1193973247
H   H290      1.0  0.51130  0.18640  0.02230  1.0000 0.1193973247
H   H291      1.0  0.16410  0.48900  0.97770  1.0000 0.1193973247
H   H292      1.0  0.73900  0.26130  0.82490  1.0000 0.1193973247
H   H293      1.0  0.81360  0.83590  0.32490  1.0000 0.1193973247
H   H294      1.0  0.73870  0.56360  0.47770  1.0000 0.1193973247
H   H295      1.0  0.08590  0.26100  0.52230  1.0000 0.1193973247
H   H296      1.0  0.51100  0.48870  0.67510  1.0000 0.1193973247
H   H297      1.0  0.41270  0.09540  0.09610  1.0000 0.109334016
H   H298      1.0  0.56660  0.16270  0.81730  1.0000 0.109334016
H   H299      1.0  0.34540  0.74930  0.18270  1.0000 0.109334016
H   H300      1.0  0.99930  0.31660  0.90390  1.0000 0.109334016
H   H301      1.0  0.83730  0.65460  0.40390  1.0000 0.109334016
H   H302      1.0  0.68340  0.58730  0.68270  1.0000 0.109334016
H   H303      1.0  0.90460  0.00070  0.31730  1.0000 0.109334016
H   H304      1.0  0.25070  0.43340  0.59610  1.0000 0.109334016
H   H305      1.0  0.51700  0.13340  0.09280  1.0000 0.1387576134
H   H306      1.0  0.67420  0.26700  0.88360  1.0000 0.1387576134
H   H307      1.0  0.38340  0.79060  0.11640  1.0000 0.1387576134
H   H308      1.0  0.04060  0.42420  0.90720  1.0000 0.1387576134
H   H309      1.0  0.73300  0.61660  0.40720  1.0000 0.1387576134
H   H310      1.0  0.57580  0.48300  0.61640  1.0000 0.1387576134
H   H311      1.0  0.86660  0.95940  0.38360  1.0000 0.1387576134
H   H312      1.0  0.20940  0.32580  0.59280  1.0000 0.1387576134
H   H313      1.0  0.49340  0.17660  0.23180  1.0000 0.109334016
H   H314      1.0  0.51160  0.24340  0.81680  1.0000 0.109334016
H   H315      1.0  0.42660  0.69480  0.18320  1.0000 0.109334016
H   H316      1.0  0.94480  0.26160  0.76820  1.0000 0.109334016
H   H317      1.0  0.75660  0.57340  0.26820  1.0000 0.109334016
H   H318      1.0  0.73840  0.50660  0.68320  1.0000 0.109334016
H   H319      1.0  0.82340  0.05520  0.31680  1.0000 0.109334016
H   H320      1.0  0.30520  0.48840  0.73180  1.0000 0.109334016
H   H321      1.0  0.59610  0.20960  0.23050  1.0000 0.1480207548
H   H322      1.0  0.61560  0.34610  0.88650  1.0000 0.1480207548
H   H323      1.0  0.45960  0.72910  0.11350  1.0000 0.1480207548
H   H324      1.0  0.97910  0.36560  0.76950  1.0000 0.1480207548
H   H325      1.0  0.65390  0.54040  0.26950  1.0000 0.1480207548
H   H326      1.0  0.63440  0.40390  0.61350  1.0000 0.1480207548
H   H327      1.0  0.79040  0.02090  0.38650  1.0000 0.1480207548
H   H328      1.0  0.27090  0.38440  0.73050  1.0000 0.1480207548
H   H329      1.0  0.60970  0.15110  0.13320  1.0000 0.1303658826
H   H330      1.0  0.72650  0.35970  0.95860  1.0000 0.1303658826
H   H331      1.0  0.40110  0.76790  0.04140  1.0000 0.1303658826
H   H332      1.0  0.01790  0.47650  0.86680  1.0000 0.1303658826
H   H333      1.0  0.64030  0.59890  0.36680  1.0000 0.1303658826
H   H334      1.0  0.52350  0.39030  0.54140  1.0000 0.1303658826
H   H335      1.0  0.84890  0.98210  0.45860  1.0000 0.1303658826
H   H336      1.0  0.23210  0.27350  0.63320  1.0000 0.1303658826
H   H337      1.0  0.64700  0.19030  0.18850  1.0000 0.1303658826
H   H338      1.0  0.70850  0.39700  0.95670  1.0000 0.1303658826
H   H339      1.0  0.44030  0.75180  0.04330  1.0000 0.1303658826
H   H340      1.0  0.00180  0.45850  0.81150  1.0000 0.1303658826
H   H341      1.0  0.60300  0.55970  0.31150  1.0000 0.1303658826
H   H342      1.0  0.54150  0.35300  0.54330  1.0000 0.1303658826
H   H343      1.0  0.80970  0.99820  0.45670  1.0000 0.1303658826
H   H344      1.0  0.24820  0.29150  0.68850  1.0000 0.1303658826
H   H345      1.0  0.99440  0.95940  0.44200  1.0000 0.1303658826
H   H346      1.0  0.80240  0.74440  0.53500  1.0000 0.1303658826
H   H347      1.0  0.20940  0.26740  0.46500  1.0000 0.1303658826
H   H348      1.0  0.51740  0.55240  0.55800  1.0000 0.1303658826
H   H349      1.0  0.25560  0.79060  0.05800  1.0000 0.1303658826
H   H350      1.0  0.44760  0.00560  0.96500  1.0000 0.1303658826
H   H351      1.0  0.04060  0.48260  0.03500  1.0000 0.1303658826
H   H352      1.0  0.73260  0.19760  0.94200  1.0000 0.1303658826
H   H353      1.0  0.99930  0.03960  0.43430  1.0000 0.1002210487
H   H354      1.0  0.81500  0.74930  0.45970  1.0000 0.1002210487
H   H355      1.0  0.28960  0.35530  0.54030  1.0000 0.1002210487
H   H356      1.0  0.60530  0.56500  0.56570  1.0000 0.1002210487
H   H357      1.0  0.25070  0.71040  0.06570  1.0000 0.1002210487
H   H358      1.0  0.43500  0.00070  0.04030  1.0000 0.1002210487
H   H359      1.0  0.96040  0.39470  0.95970  1.0000 0.1002210487
H   H360      1.0  0.64470  0.18500  0.93430  1.0000 0.1002210487
H   H361      1.0  0.07380  0.13000  0.38640  1.0000 0.1193973247
H   H362      1.0  0.93740  0.82380  0.44380  1.0000 0.1193973247
H   H363      1.0  0.38000  0.49360  0.55620  1.0000 0.1193973247
H   H364      1.0  0.74360  0.68740  0.61360  1.0000 0.1193973247
H   H365      1.0  0.17620  0.62000  0.11360  1.0000 0.1193973247
H   H366      1.0  0.31260  0.92620  0.05620  1.0000 0.1193973247
H   H367      1.0  0.87000  0.25640  0.94380  1.0000 0.1193973247
H   H368      1.0  0.50640  0.06260  0.88640  1.0000 0.1193973247
H   H369      1.0  0.14580  0.14140  0.34780  1.0000 0.1193973247
H   H370      1.0  0.04800  0.89580  0.50440  1.0000 0.1193973247
H   H371      1.0  0.39140  0.54360  0.49560  1.0000 0.1193973247
H   H372      1.0  0.79360  0.79800  0.65220  1.0000 0.1193973247
H   H373      1.0  0.10420  0.60860  0.15220  1.0000 0.1193973247
H   H374      1.0  0.20200  0.85420  0.99560  1.0000 0.1193973247
H   H375      1.0  0.85860  0.20640  0.00440  1.0000 0.1193973247
H   H376      1.0  0.45640  0.95200  0.84780  1.0000 0.1193973247
H   H377      1.0  0.29870  0.05730  0.29540  1.0000 0.1387576134
H   H378      1.0  0.25330  0.04870  0.74140  1.0000 0.1387576134
H   H379      1.0  0.30730  0.51190  0.25860  1.0000 0.1387576134
H   H380      1.0  0.76190  0.00330  0.70460  1.0000 0.1387576134
H   H381      1.0  0.95130  0.69270  0.20460  1.0000 0.1387576134
H   H382      1.0  0.99670  0.70130  0.75860  1.0000 0.1387576134
H   H383      1.0  0.94270  0.23810  0.24140  1.0000 0.1387576134
H   H384      1.0  0.48810  0.74670  0.79540  1.0000 0.1387576134
H   H385      1.0  0.26140  0.98450  0.31430  1.0000 0.1303658826
H   H386      1.0  0.19710  0.01140  0.77690  1.0000 0.1303658826
H   H387      1.0  0.23450  0.42020  0.22310  1.0000 0.1303658826
H   H388      1.0  0.67020  0.94710  0.68570  1.0000 0.1303658826
H   H389      1.0  0.98860  0.76550  0.18570  1.0000 0.1303658826
H   H390      1.0  0.05290  0.73860  0.72310  1.0000 0.1303658826
H   H391      1.0  0.01550  0.32980  0.27690  1.0000 0.1303658826
H   H392      1.0  0.57980  0.80290  0.81430  1.0000 0.1303658826
H   H393      1.0  0.40400  0.15930  0.36890  1.0000 0.0913656518
H   H394      1.0  0.28510  0.15400  0.74470  1.0000 0.0913656518
H   H395      1.0  0.40930  0.54040  0.25530  1.0000 0.0913656518
H   H396      1.0  0.79040  0.03510  0.63110  1.0000 0.0913656518
H   H397      1.0  0.84600  0.59070  0.13110  1.0000 0.0913656518
H   H398      1.0  0.96490  0.59600  0.75530  1.0000 0.0913656518
H   H399      1.0  0.84070  0.20960  0.24470  1.0000 0.0913656518
H   H400      1.0  0.45960  0.71490  0.86890  1.0000 0.0913656518
H   H401      1.0  0.36530  0.08710  0.38940  1.0000 0.0913656518
H   H402      1.0  0.22590  0.11530  0.77820  1.0000 0.0913656518
H   H403      1.0  0.33710  0.44770  0.22180  1.0000 0.0913656518
H   H404      1.0  0.69770  0.97590  0.61060  1.0000 0.0913656518
H   H405      1.0  0.88470  0.66290  0.11060  1.0000 0.0913656518
H   H406      1.0  0.02410  0.63470  0.72180  1.0000 0.0913656518
H   H407      1.0  0.91290  0.30230  0.27820  1.0000 0.0913656518
H   H408      1.0  0.55230  0.77410  0.88940  1.0000 0.0913656518
H   H409      1.0  0.40900  0.07090  0.34130  1.0000 0.109334016
H   H410      1.0  0.31770  0.15900  0.83810  1.0000 0.109334016
H   H411      1.0  0.32090  0.47960  0.16190  1.0000 0.109334016
H   H412      1.0  0.72960  0.06770  0.65870  1.0000 0.109334016
H   H413      1.0  0.84100  0.67910  0.15870  1.0000 0.109334016
H   H414      1.0  0.93230  0.59100  0.66190  1.0000 0.109334016
H   H415      1.0  0.92910  0.27040  0.33810  1.0000 0.109334016
H   H416      1.0  0.52040  0.68230  0.84130  1.0000 0.109334016
H   H417      1.0  0.43530  0.13050  0.31300  1.0000 0.1193973247
H   H418      1.0  0.37230  0.18530  0.80480  1.0000 0.1193973247
H   H419      1.0  0.38050  0.56750  0.19520  1.0000 0.1193973247
H   H420      1.0  0.81750  0.12230  0.68700  1.0000 0.1193973247
H   H421      1.0  0.81470  0.61950  0.18700  1.0000 0.1193973247
H   H422      1.0  0.87770  0.56470  0.69520  1.0000 0.1193973247
H   H423      1.0  0.86950  0.18250  0.30480  1.0000 0.1193973247
H   H424      1.0  0.43250  0.62770  0.81300  1.0000 0.1193973247
H   H425      1.0  0.51630  0.18440  0.40430  1.0000 0.109334016
H   H426      1.0  0.36200  0.26630  0.83190  1.0000 0.109334016
H   H427      1.0  0.43440  0.53010  0.16810  1.0000 0.109334016
H   H428      1.0  0.78010  0.11200  0.59570  1.0000 0.109334016
H   H429      1.0  0.73370  0.56560  0.09570  1.0000 0.109334016
H   H430      1.0  0.88800  0.48370  0.66810  1.0000 0.109334016
H   H431      1.0  0.81560  0.21990  0.33190  1.0000 0.109334016
H   H432      1.0  0.46990  0.63800  0.90430  1.0000 0.109334016
H   H433      1.0  0.54410  0.24350  0.37380  1.0000 0.109334016
H   H434      1.0  0.42030  0.29410  0.80060  1.0000 0.109334016
H   H435      1.0  0.49350  0.61970  0.19940  1.0000 0.109334016
H   H436      1.0  0.86970  0.17030  0.62620  1.0000 0.109334016
H   H437      1.0  0.70590  0.50650  0.12620  1.0000 0.1002210487
H   H438      1.0  0.82970  0.45590  0.69940  1.0000 0.109334016
H   H439      1.0  0.75650  0.13030  0.30060  1.0000 0.109334016
H   H440      1.0  0.38030  0.57970  0.87380  1.0000 0.109334016
H   H441      1.0  0.55220  0.18800  0.31400  1.0000 0.1002210487
H   H442      1.0  0.48820  0.30220  0.86420  1.0000 0.1002210487
H   H443      1.0  0.43800  0.62400  0.13580  1.0000 0.1002210487
H   H444      1.0  0.87400  0.23820  0.68600  1.0000 0.1002210487
H   H445      1.0  0.69780  0.56200  0.18600  1.0000 0.1002210487
H   H446      1.0  0.76180  0.44780  0.63580  1.0000 0.1002210487
H   H447      1.0  0.81200  0.12600  0.36420  1.0000 0.1002210487
H   H448      1.0  0.37600  0.51180  0.81400  1.0000 0.1002210487
H   H449      1.0  0.52750  0.13200  0.34550  1.0000 0.109334016
H   H450      1.0  0.43200  0.27750  0.89550  1.0000 0.109334016
H   H451      1.0  0.38200  0.53650  0.10450  1.0000 0.109334016
H   H452      1.0  0.78650  0.18200  0.65450  1.0000 0.109334016
H   H453      1.0  0.72250  0.61800  0.15450  1.0000 0.109334016
H   H454      1.0  0.81800  0.47250  0.60450  1.0000 0.109334016
H   H455      1.0  0.86800  0.21350  0.39550  1.0000 0.109334016
H   H456      1.0  0.46350  0.56800  0.84550  1.0000 0.109334016
H   H457      1.0  0.61680  0.23260  0.36260  1.0000 0.1193973247
H   H458      1.0  0.50420  0.36680  0.88420  1.0000 0.1193973247
H   H459      1.0  0.48260  0.62000  0.11580  1.0000 0.1193973247
H   H460      1.0  0.87000  0.25420  0.63740  1.0000 0.1193973247
H   H461      1.0  0.63320  0.51740  0.13740  1.0000 0.1193973247
H   H462      1.0  0.74580  0.38320  0.61580  1.0000 0.1193973247
H   H463      1.0  0.76740  0.13000  0.38420  1.0000 0.1193973247
H   H464      1.0  0.38000  0.49580  0.86260  1.0000 0.1193973247
H   H465      1.0  0.84790  0.26230  0.16560  1.0000 0.109334016
H   H466      1.0  0.93230  0.59790  0.08560  1.0000 0.109334016
H   H467      1.0  0.51230  0.84670  0.91440  1.0000 0.109334016
H   H468      1.0  0.09670  0.68230  0.83440  1.0000 0.109334016
H   H469      1.0  0.40210  0.48770  0.33440  1.0000 0.109334016
H   H470      1.0  0.31770  0.15210  0.41440  1.0000 0.109334016
H   H471      1.0  0.73770  0.90330  0.58560  1.0000 0.109334016
H   H472      1.0  0.15330  0.06770  0.66560  1.0000 0.109334016
H   H473      1.0  0.72420  0.19750  0.15730  1.0000 0.1387576134
H   H474      1.0  0.81690  0.47420  0.02670  1.0000 0.1387576134
H   H475      1.0  0.44750  0.79020  0.97330  1.0000 0.1387576134
H   H476      1.0  0.04020  0.56690  0.84270  1.0000 0.1387576134
H   H477      1.0  0.52580  0.55250  0.34270  1.0000 0.1387576134
H   H478      1.0  0.43310  0.27580  0.47330  1.0000 0.1387576134
H   H479      1.0  0.80250  0.95980  0.52670  1.0000 0.1387576134
H   H480      1.0  0.20980  0.18310  0.65730  1.0000 0.1387576134
H   H481      1.0  0.96920  0.47270  0.15470  1.0000 0.1193973247
H   H482      1.0  0.06450  0.71920  0.99650  1.0000 0.1193973247
H   H483      1.0  0.72270  0.06800  0.00350  1.0000 0.1193973247
H   H484      1.0  0.31800  0.81450  0.84530  1.0000 0.1193973247
H   H485      1.0  0.28080  0.27730  0.34530  1.0000 0.1193973247
H   H486      1.0  0.18550  0.03080  0.50350  1.0000 0.1193973247
H   H487      1.0  0.52730  0.68200  0.49650  1.0000 0.1193973247
H   H488      1.0  0.93200  0.93550  0.65470  1.0000 0.1193973247
H   H489      1.0  0.85350  0.41740  0.14830  1.0000 0.159510535
H   H490      1.0  0.95520  0.60350  0.93610  1.0000 0.159510535
H   H491      1.0  0.66740  0.01910  0.06390  1.0000 0.159510535
H   H492      1.0  0.26910  0.70520  0.85170  1.0000 0.159510535
H   H493      1.0  0.39650  0.33260  0.35170  1.0000 0.159510535
H   H494      1.0  0.29480  0.14650  0.56390  1.0000 0.159510535
H   H495      1.0  0.58260  0.73090  0.43610  1.0000 0.159510535
H   H496      1.0  0.98090  0.04480  0.64830  1.0000 0.159510535
H   H497      1.0  0.68230  0.26560  0.12410  1.0000 0.1303658826
H   H498      1.0  0.80820  0.43230  0.91670  1.0000 0.1303658826
H   H499      1.0  0.51560  0.89150  0.08330  1.0000 0.1303658826
H   H500      1.0  0.14150  0.55820  0.87590  1.0000 0.1303658826
H   H501      1.0  0.56770  0.48440  0.37590  1.0000 0.1303658826
H   H502      1.0  0.44180  0.31770  0.58330  1.0000 0.1303658826
H   H503      1.0  0.73440  0.85850  0.41670  1.0000 0.1303658826
H   H504      1.0  0.10850  0.19180  0.62410  1.0000 0.1303658826
H   H505      1.0  0.71620  0.30530  0.17870  1.0000 0.1387576134
H   H506      1.0  0.78750  0.46620  0.91090  1.0000 0.1387576134
H   H507      1.0  0.55530  0.87660  0.08910  1.0000 0.1387576134
H   H508      1.0  0.12660  0.53750  0.82130  1.0000 0.1387576134
H   H509      1.0  0.53380  0.44470  0.32130  1.0000 0.1387576134
H   H510      1.0  0.46250  0.28380  0.58910  1.0000 0.1387576134
H   H511      1.0  0.69470  0.87340  0.41090  1.0000 0.1387576134
H   H512      1.0  0.12340  0.21250  0.67870  1.0000 0.1387576134
C   C1        1.0  0.44614  0.27810  0.33184  1.0000 0.2822874158
C   C2        1.0  0.36430  0.19614  0.66804  1.0000 0.2822874158
C   C3        1.0  0.52810  0.69626  0.33196  1.0000 0.2822874158
C   C4        1.0  0.94626  0.11430  0.66816  1.0000 0.2822874158
C   C5        1.0  0.80386  0.47190  0.16816  1.0000 0.2822874158
C   C6        1.0  0.88570  0.55386  0.83196  1.0000 0.2822874158
C   C7        1.0  0.72190  0.05374  0.16804  1.0000 0.2822874158
C   C8        1.0  0.30374  0.63570  0.83184  1.0000 0.2822874158
C   C9        1.0  0.51181  0.34233  0.37274  1.0000 -0.2474543277
C   C10       1.0  0.38907  0.26181  0.66948  1.0000 -0.2474543277
C   C11       1.0  0.59233  0.71959  0.33052  1.0000 -0.2474543277
C   C12       1.0  0.96959  0.13907  0.62726  1.0000 -0.2474543277
C   C13       1.0  0.73819  0.40767  0.12726  1.0000 -0.2474543277
C   C14       1.0  0.86093  0.48819  0.83052  1.0000 -0.2474543277
C   C15       1.0  0.65767  0.03041  0.16948  1.0000 -0.2474543277
C   C16       1.0  0.28041  0.61093  0.87274  1.0000 -0.2474543277
C   C17       1.0  0.59270  0.39700  0.37450  1.0000 -0.0877995512
C   C18       1.0  0.46820  0.34270  0.69570  1.0000 -0.0877995512
C   C19       1.0  0.64700  0.77250  0.30430  1.0000 -0.0877995512
C   C20       1.0  0.02250  0.21820  0.62550  1.0000 -0.0877995512
C   C21       1.0  0.65730  0.35300  0.12550  1.0000 -0.0877995512
C   C22       1.0  0.78180  0.40730  0.80430  1.0000 -0.0877995512
C   C23       1.0  0.60300  0.97750  0.19570  1.0000 -0.0877995512
C   C24       1.0  0.22750  0.53180  0.87450  1.0000 -0.0877995512
C   C25       1.0  0.61020  0.39000  0.33680  1.0000 -0.1409707554
C   C26       1.0  0.52340  0.36020  0.72020  1.0000 -0.1409707554
C   C27       1.0  0.64000  0.80320  0.27980  1.0000 -0.1409707554
C   C28       1.0  0.05320  0.27340  0.66320  1.0000 -0.1409707554
C   C29       1.0  0.63980  0.36000  0.16320  1.0000 -0.1409707554
C   C30       1.0  0.72660  0.38980  0.77980  1.0000 -0.1409707554
C   C31       1.0  0.61000  0.94680  0.22020  1.0000 -0.1409707554
C   C32       1.0  0.19680  0.47660  0.83680  1.0000 -0.1409707554
C   C33       1.0  0.54645  0.32495  0.29680  1.0000 -0.1079369106
C   C34       1.0  0.49965  0.29645  0.72150  1.0000 -0.1079369106
C   C35       1.0  0.57495  0.77815  0.27850  1.0000 -0.1079369106
C   C36       1.0  0.02815  0.24965  0.70320  1.0000 -0.1079369106
C   C37       1.0  0.70355  0.42505  0.20320  1.0000 -0.1079369106
C   C38       1.0  0.75035  0.45355  0.77850  1.0000 -0.1079369106
C   C39       1.0  0.67505  0.97185  0.22150  1.0000 -0.1079369106
C   C40       1.0  0.22185  0.50035  0.79680  1.0000 -0.1079369106
C   C41       1.0  0.46309  0.26749  0.29378  1.0000 -0.150683151
C   C42       1.0  0.41931  0.21309  0.69560  1.0000 -0.150683151
C   C43       1.0  0.51749  0.72371  0.30440  1.0000 -0.150683151
C   C44       1.0  0.97371  0.16931  0.70622  1.0000 -0.150683151
C   C45       1.0  0.78691  0.48251  0.20622  1.0000 -0.150683151
C   C46       1.0  0.83069  0.53691  0.80440  1.0000 -0.150683151
C   C47       1.0  0.73251  0.02629  0.19560  1.0000 -0.150683151
C   C48       1.0  0.27629  0.58069  0.79378  1.0000 -0.150683151
C   C49       1.0  0.39907  0.19796  0.25143  1.0000 0.4366879452
C   C50       1.0  0.39764  0.14907  0.70111  1.0000 0.4366879452
C   C51       1.0  0.44796  0.69653  0.29889  1.0000 0.4366879452
C   C52       1.0  0.94653  0.14764  0.74857  1.0000 0.4366879452
C   C53       1.0  0.85093  0.55204  0.24857  1.0000 0.4366879452
C   C54       1.0  0.85236  0.60093  0.79889  1.0000 0.4366879452
C   C55       1.0  0.80204  0.05347  0.20111  1.0000 0.4366879452
C   C56       1.0  0.30347  0.60236  0.75143  1.0000 0.4366879452
C   C57       1.0  0.18545  0.02476  0.20221  1.0000 0.4670311052
C   C58       1.0  0.23324  0.93545  0.66069  1.0000 0.4670311052
C   C59       1.0  0.27476  0.57255  0.33931  1.0000 0.4670311052
C   C60       1.0  0.82255  0.98324  0.79779  1.0000 0.4670311052
C   C61       1.0  0.06455  0.72524  0.29779  1.0000 0.4670311052
C   C62       1.0  0.01676  0.81455  0.83931  1.0000 0.4670311052
C   C63       1.0  0.97524  0.17745  0.16069  1.0000 0.4670311052
C   C64       1.0  0.42745  0.76676  0.70221  1.0000 0.4670311052
C   C65       1.0  0.11422  0.94825  0.16187  1.0000 -0.3203514245
C   C66       1.0  0.20235  0.86422  0.66597  1.0000 -0.3203514245
C   C67       1.0  0.19825  0.53638  0.33403  1.0000 -0.3203514245
C   C68       1.0  0.78638  0.95235  0.83813  1.0000 -0.3203514245
C   C69       1.0  0.13578  0.80175  0.33813  1.0000 -0.3203514245
C   C70       1.0  0.04765  0.88578  0.83403  1.0000 -0.3203514245
C   C71       1.0  0.05175  0.21362  0.16597  1.0000 -0.3203514245
C   C72       1.0  0.46362  0.79765  0.66187  1.0000 -0.3203514245
C   C73       1.0  0.07198  0.95034  0.13372  1.0000 -0.1409707554
C   C74       1.0  0.18826  0.82198  0.62164  1.0000 -0.1409707554
C   C75       1.0  0.20034  0.56662  0.37836  1.0000 -0.1409707554
C   C76       1.0  0.81662  0.93826  0.86628  1.0000 -0.1409707554
C   C77       1.0  0.17802  0.79966  0.36628  1.0000 -0.1409707554
C   C78       1.0  0.06174  0.92802  0.87836  1.0000 -0.1409707554
C   C79       1.0  0.04966  0.18338  0.12164  1.0000 -0.1409707554
C   C80       1.0  0.43338  0.81174  0.63372  1.0000 -0.1409707554
C   C81       1.0  0.12917  0.01950  0.10927  1.0000 -0.1811983033
C   C82       1.0  0.26990  0.87917  0.60967  1.0000 -0.1811983033
C   C83       1.0  0.26950  0.66023  0.39033  1.0000 -0.1811983033
C   C84       1.0  0.91023  0.01990  0.89073  1.0000 -0.1811983033
C   C85       1.0  0.12083  0.73050  0.39073  1.0000 -0.1811983033
C   C86       1.0  0.98010  0.87083  0.89033  1.0000 -0.1811983033
C   C87       1.0  0.98050  0.08977  0.10967  1.0000 -0.1811983033
C   C88       1.0  0.33977  0.73010  0.60927  1.0000 -0.1811983033
C   C89       1.0  0.08520  0.01790  0.07810  1.0000 -0.1273801347
C   C90       1.0  0.25710  0.83520  0.56730  1.0000 -0.1273801347
C   C91       1.0  0.26790  0.68980  0.43270  1.0000 -0.1273801347
C   C92       1.0  0.93980  0.00710  0.92190  1.0000 -0.1273801347
C   C93       1.0  0.16480  0.73210  0.42190  1.0000 -0.1273801347
C   C94       1.0  0.99290  0.91480  0.93270  1.0000 -0.1273801347
C   C95       1.0  0.98210  0.06020  0.06730  1.0000 -0.1273801347
C   C96       1.0  0.31020  0.74290  0.57810  1.0000 -0.1273801347
C   C97       1.0  0.14150  0.08540  0.05350  1.0000 -0.3981861409
C   C98       1.0  0.33800  0.89150  0.55610  1.0000 -0.3981861409
C   C99       1.0  0.33540  0.78190  0.44390  1.0000 -0.3981861409
C   C100      1.0  0.03190  0.08800  0.94650  1.0000 -0.3981861409
C   C101      1.0  0.10850  0.66460  0.44650  1.0000 -0.3981861409
C   C102      1.0  0.91200  0.85850  0.94390  1.0000 -0.3981861409
C   C103      1.0  0.91460  0.96810  0.05610  1.0000 -0.3981861409
C   C104      1.0  0.21810  0.66200  0.55350  1.0000 -0.3981861409
C   C105      1.0  0.23829  0.19270  0.22679  1.0000 0.2650383141
C   C106      1.0  0.26150  0.98829  0.54559  1.0000 0.2650383141
C   C107      1.0  0.44270  0.71591  0.45441  1.0000 0.2650383141
C   C108      1.0  0.96591  0.01150  0.77321  1.0000 0.2650383141
C   C109      1.0  0.01171  0.55730  0.27321  1.0000 0.2650383141
C   C110      1.0  0.98850  0.76171  0.95441  1.0000 0.2650383141
C   C111      1.0  0.80730  0.03409  0.04559  1.0000 0.2650383141
C   C112      1.0  0.28409  0.73850  0.72679  1.0000 0.2648136344
C   C113      1.0  0.18220  0.20610  0.18170  1.0000 -0.3578669031
C   C114      1.0  0.25050  0.93220  0.47610  1.0000 -0.3578669031
C   C115      1.0  0.45610  0.77440  0.52390  1.0000 -0.3578669031
C   C116      1.0  0.02440  0.00050  0.81830  1.0000 -0.3578669031
C   C117      1.0  0.06780  0.54390  0.31830  1.0000 -0.3578669031
C   C118      1.0  0.99950  0.81780  0.02390  1.0000 -0.3578669031
C   C119      1.0  0.79390  0.97560  0.97610  1.0000 -0.3578669031
C   C120      1.0  0.22560  0.74950  0.68170  1.0000 -0.3578669031
C   C121      1.0  0.32950  0.33250  0.22640  1.0000 -0.3392605085
C   C122      1.0  0.35310  0.07950  0.49700  1.0000 -0.3392605085
C   C123      1.0  0.58250  0.85610  0.50300  1.0000 -0.3392605085
C   C124      1.0  0.10610  0.10310  0.77360  1.0000 -0.3392605085
C   C125      1.0  0.92050  0.41750  0.27360  1.0000 -0.3392605085
C   C126      1.0  0.89690  0.67050  0.00300  1.0000 -0.3392605085
C   C127      1.0  0.66750  0.89390  0.99700  1.0000 -0.3392605085
C   C128      1.0  0.14390  0.64690  0.72640  1.0000 -0.3392605085
C   C129      1.0  0.29178  0.07164  0.07682  1.0000 0.2822874158
C   C130      1.0  0.46496  0.04178  0.72014  1.0000 0.2822874158
C   C131      1.0  0.32164  0.74482  0.27986  1.0000 0.2822874158
C   C132      1.0  0.99482  0.21496  0.92318  1.0000 0.2822874158
C   C133      1.0  0.95822  0.67836  0.42318  1.0000 0.2822874158
C   C134      1.0  0.78504  0.70822  0.77986  1.0000 0.2822874158
C   C135      1.0  0.92836  0.00518  0.22014  1.0000 0.2822874158
C   C136      1.0  0.25518  0.53504  0.57682  1.0000 0.2822874158
C   C137      1.0  0.30956  0.11510  0.04566  1.0000 -0.2219211291
C   C138      1.0  0.51390  0.05956  0.69446  1.0000 -0.2219211291
C   C139      1.0  0.36510  0.81944  0.30554  1.0000 -0.2219211291
C   C140      1.0  0.06944  0.26390  0.95434  1.0000 -0.2219211291
C   C141      1.0  0.94044  0.63490  0.45434  1.0000 -0.2219211291
C   C142      1.0  0.73610  0.69044  0.80554  1.0000 -0.2219211291
C   C143      1.0  0.88490  0.93056  0.19446  1.0000 -0.2219211291
C   C144      1.0  0.18056  0.48610  0.54566  1.0000 -0.2219211291
C   C145      1.0  0.27342  0.07817  0.99919  1.0000 -0.0656033877
C   C146      1.0  0.52423  0.02342  0.69525  1.0000 -0.0656033877
C   C147      1.0  0.32817  0.82898  0.30475  1.0000 -0.0656033877
C   C148      1.0  0.07898  0.27423  0.00081  1.0000 -0.0656033877
C   C149      1.0  0.97658  0.67183  0.50081  1.0000 -0.0656033877
C   C150      1.0  0.72577  0.72658  0.80475  1.0000 -0.0649890948
C   C151      1.0  0.92183  0.92102  0.19525  1.0000 -0.0656033877
C   C152      1.0  0.17102  0.47577  0.49919  1.0000 -0.0656033877
C   C153      1.0  0.21953  0.99696  0.98049  1.0000 -0.1639594447
C   C154      1.0  0.48904  0.96953  0.72257  1.0000 -0.1639594447
C   C155      1.0  0.24696  0.76647  0.27743  1.0000 -0.1639594447
C   C156      1.0  0.01647  0.23904  0.01951  1.0000 -0.1639594447
C   C157      1.0  0.03047  0.75304  0.51951  1.0000 -0.1639594447
C   C158      1.0  0.76096  0.78047  0.77743  1.0000 -0.1639594447
C   C159      1.0  0.00304  0.98353  0.22257  1.0000 -0.1639594447
C   C160      1.0  0.23353  0.51096  0.48049  1.0000 -0.1639594447
C   C161      1.0  0.19999  0.95230  0.01069  1.0000 -0.0999287229
C   C162      1.0  0.43930  0.94999  0.74769  1.0000 -0.0999287229
C   C163      1.0  0.20230  0.69161  0.25231  1.0000 -0.0999287229
C   C164      1.0  0.94161  0.18930  0.98931  1.0000 -0.0999287229
C   C165      1.0  0.05001  0.79770  0.48931  1.0000 -0.0999287229
C   C166      1.0  0.81070  0.80001  0.75231  1.0000 -0.0999287229
C   C167      1.0  0.04770  0.05839  0.24769  1.0000 -0.0999287229
C   C168      1.0  0.30839  0.56070  0.51069  1.0000 -0.0999287229
C   C169      1.0  0.23549  0.98847  0.05836  1.0000 -0.150683151
C   C170      1.0  0.42713  0.98549  0.74702  1.0000 -0.150683151
C   C171      1.0  0.23847  0.68011  0.25298  1.0000 -0.150683151
C   C172      1.0  0.93011  0.17713  0.94164  1.0000 -0.150683151
C   C173      1.0  0.01451  0.76153  0.44164  1.0000 -0.1409707554
C   C174      1.0  0.82287  0.76451  0.75298  1.0000 -0.150683151
C   C175      1.0  0.01153  0.06989  0.24702  1.0000 -0.150683151
C   C176      1.0  0.31989  0.57287  0.55836  1.0000 -0.150683151
C   C177      1.0  0.21166  0.93550  0.08716  1.0000 0.4281817402
C   C178      1.0  0.37450  0.96166  0.77616  1.0000 0.4281817402
C   C179      1.0  0.18550  0.59834  0.22384  1.0000 0.4281817402
C   C180      1.0  0.84834  0.12450  0.91284  1.0000 0.4281817402
C   C181      1.0  0.03834  0.81450  0.41284  1.0000 0.4281817402
C   C182      1.0  0.87550  0.78834  0.72384  1.0000 0.4281817402
C   C183      1.0  0.06450  0.15166  0.27616  1.0000 0.4281817402
C   C184      1.0  0.40166  0.62550  0.58716  1.0000 0.4281817402
C   C185      1.0  0.27050  0.95692  0.19922  1.0000 0.464458498
C   C186      1.0  0.32128  0.02050  0.81358  1.0000 0.464458498
C   C187      1.0  0.20692  0.50770  0.18642  1.0000 0.464458498
C   C188      1.0  0.75770  0.07128  0.80078  1.0000 0.464458498
C   C189      1.0  0.97950  0.79308  0.30078  1.0000 0.464458498
C   C190      1.0  0.92872  0.72950  0.68642  1.0000 0.464458498
C   C191      1.0  0.04308  0.24230  0.31358  1.0000 0.464458498
C   C192      1.0  0.49230  0.67872  0.69922  1.0000 0.464458498
C   C193      1.0  0.26538  0.91628  0.23026  1.0000 -0.3203514245
C   C194      1.0  0.28512  0.01538  0.84910  1.0000 -0.3203514245
C   C195      1.0  0.16628  0.43602  0.15090  1.0000 -0.3203514245
C   C196      1.0  0.68602  0.03512  0.76974  1.0000 -0.3203514245
C   C197      1.0  0.98462  0.83372  0.26974  1.0000 -0.3203514245
C   C198      1.0  0.96488  0.73462  0.65090  1.0000 -0.3203514245
C   C199      1.0  0.08372  0.31398  0.34910  1.0000 -0.3203514245
C   C200      1.0  0.56398  0.71488  0.73026  1.0000 -0.3203514245
C   C201      1.0  0.34647  0.95680  0.24127  1.0000 -0.1409707554
C   C202      1.0  0.35520  0.09647  0.88967  1.0000 -0.1409707554
C   C203      1.0  0.20680  0.46553  0.11033  1.0000 -0.1409707554
C   C204      1.0  0.71553  0.10520  0.75873  1.0000 -0.1409707554
C   C205      1.0  0.90353  0.79320  0.25873  1.0000 -0.1409707554
C   C206      1.0  0.89480  0.65353  0.61033  1.0000 -0.1409707554
C   C207      1.0  0.04320  0.28447  0.38967  1.0000 -0.1409707554
C   C208      1.0  0.53447  0.64480  0.74127  1.0000 -0.1409707554
C   C209      1.0  0.35642  0.93680  0.19822  1.0000 -0.1811983033
C   C210      1.0  0.40820  0.10642  0.91962  1.0000 -0.1811983033
C   C211      1.0  0.18680  0.48858  0.08038  1.0000 -0.1811983033
C   C212      1.0  0.73858  0.15820  0.80178  1.0000 -0.1811983033
C   C213      1.0  0.89358  0.81320  0.30178  1.0000 -0.1811983033
C   C214      1.0  0.84180  0.64358  0.58038  1.0000 -0.1811983033
C   C215      1.0  0.06320  0.26142  0.41962  1.0000 -0.1811983033
C   C216      1.0  0.51142  0.59180  0.69822  1.0000 -0.1811983033
C   C217      1.0  0.43430  0.97300  0.20830  1.0000 -0.1079369106
C   C218      1.0  0.47600  0.18430  0.96130  1.0000 -0.1079369106
C   C219      1.0  0.22300  0.51470  0.03870  1.0000 -0.1079369106
C   C220      1.0  0.76470  0.22600  0.79170  1.0000 -0.1079369106
C   C221      1.0  0.81570  0.77700  0.29170  1.0000 -0.1079369106
C   C222      1.0  0.77400  0.56570  0.53870  1.0000 -0.1079369106
C   C223      1.0  0.02700  0.23530  0.46130  1.0000 -0.1079369106
C   C224      1.0  0.48530  0.52400  0.70830  1.0000 -0.1079369106
C   C225      1.0  0.43910  0.94760  0.16810  1.0000 -0.3981861409
C   C226      1.0  0.52100  0.18910  0.99150  1.0000 -0.3981861409
C   C227      1.0  0.19760  0.52950  0.00850  1.0000 -0.3981861409
C   C228      1.0  0.77950  0.27100  0.83190  1.0000 -0.3981861409
C   C229      1.0  0.81090  0.80240  0.33190  1.0000 -0.3981861409
C   C230      1.0  0.72900  0.56090  0.50850  1.0000 -0.3981861409
C   C231      1.0  0.05240  0.22050  0.49150  1.0000 -0.3981861409
C   C232      1.0  0.47050  0.47900  0.66810  1.0000 -0.3981861409
C   C233      1.0  0.45077  0.11968  0.12425  1.0000 0.0539835606
C   C234      1.0  0.57652  0.20077  0.83109  1.0000 0.0539835606
C   C235      1.0  0.36968  0.74543  0.16891  1.0000 0.0539835606
C   C236      1.0  0.99543  0.32652  0.87575  1.0000 0.0539835606
C   C237      1.0  0.79923  0.63032  0.37575  1.0000 0.0539835606
C   C238      1.0  0.67348  0.54923  0.66891  1.0000 0.0539835606
C   C239      1.0  0.88032  0.00457  0.33109  1.0000 0.0539835606
C   C240      1.0  0.25457  0.42348  0.62425  1.0000 0.0539835606
C   C241      1.0  0.51210  0.14092  0.12222  1.0000 -0.2106518543
C   C242      1.0  0.63988  0.26210  0.87118  1.0000 -0.2106518543
C   C243      1.0  0.39092  0.76870  0.12882  1.0000 -0.2106518543
C   C244      1.0  0.01870  0.38988  0.87778  1.0000 -0.2106518543
C   C245      1.0  0.73790  0.60908  0.37778  1.0000 -0.2106518543
C   C246      1.0  0.61012  0.48790  0.62882  1.0000 -0.2106518543
C   C247      1.0  0.85908  0.98130  0.37118  1.0000 -0.2106518543
C   C248      1.0  0.23130  0.36012  0.62222  1.0000 -0.2106518543
C   C249      1.0  0.49675  0.16571  0.20266  1.0000 0.0913656518
C   C250      1.0  0.54409  0.24675  0.83104  1.0000 0.0913656518
C   C251      1.0  0.41571  0.71305  0.16896  1.0000 0.0913656518
C   C252      1.0  0.96305  0.29409  0.79734  1.0000 0.0913656518
C   C253      1.0  0.75325  0.58429  0.29734  1.0000 0.0913656518
C   C254      1.0  0.70591  0.50325  0.66896  1.0000 0.0913656518
C   C255      1.0  0.83429  0.03695  0.33104  1.0000 0.0913656518
C   C256      1.0  0.28695  0.45591  0.70266  1.0000 0.0913656518
C   C257      1.0  0.55880  0.18610  0.20210  1.0000 -0.2219211291
C   C258      1.0  0.60670  0.30880  0.87270  1.0000 -0.2219211291
C   C259      1.0  0.43610  0.73400  0.12730  1.0000 -0.2219211291
C   C260      1.0  0.98400  0.35670  0.79790  1.0000 -0.2219211291
C   C261      1.0  0.69120  0.56390  0.29790  1.0000 -0.2219211291
C   C262      1.0  0.64330  0.44120  0.62730  1.0000 -0.2219211291
C   C263      1.0  0.81390  0.01600  0.37270  1.0000 -0.2219211291
C   C264      1.0  0.26600  0.39330  0.70210  1.0000 -0.2219211291
C   C265      1.0  0.56580  0.17210  0.16070  1.0000 0.1387576134
C   C266      1.0  0.65510  0.31580  0.89370  1.0000 0.1387576134
C   C267      1.0  0.42210  0.76140  0.10630  1.0000 0.1387576134
C   C268      1.0  0.01140  0.40510  0.83930  1.0000 0.1387576134
C   C269      1.0  0.68420  0.57790  0.33930  1.0000 0.1387576134
C   C270      1.0  0.59490  0.43420  0.60630  1.0000 0.1387576134
C   C271      1.0  0.82790  0.98860  0.39370  1.0000 0.1387576134
C   C272      1.0  0.23860  0.34490  0.66070  1.0000 0.1387576134
C   C273      1.0  0.63280  0.19340  0.15920  1.0000 -0.2106518543
C   C274      1.0  0.72360  0.38280  0.93940  1.0000 -0.2106518543
C   C275      1.0  0.44340  0.78420  0.06060  1.0000 -0.2106518543
C   C276      1.0  0.03420  0.47360  0.84080  1.0000 -0.2106518543
C   C277      1.0  0.61720  0.55660  0.34080  1.0000 -0.2106518543
C   C278      1.0  0.52640  0.36720  0.56060  1.0000 -0.2106518543
C   C279      1.0  0.80660  0.96580  0.43940  1.0000 -0.2106518543
C   C280      1.0  0.21580  0.27640  0.65920  1.0000 -0.2106518543
C   C281      1.0  0.06873  0.00199  0.39992  1.0000 0.2952087547
C   C282      1.0  0.91881  0.81873  0.56674  1.0000 0.2952087547
C   C283      1.0  0.25199  0.35207  0.43326  1.0000 0.2952087547
C   C284      1.0  0.60207  0.66881  0.60008  1.0000 0.2952087547
C   C285      1.0  0.18127  0.74801  0.10008  1.0000 0.2952087547
C   C286      1.0  0.33119  0.93127  0.93326  1.0000 0.2952087547
C   C287      1.0  0.99801  0.39793  0.06674  1.0000 0.2952087547
C   C288      1.0  0.64793  0.08119  0.89992  1.0000 0.2952087547
C   C289      1.0  0.02596  0.99660  0.42276  1.0000 -0.2253250454
C   C290      1.0  0.85320  0.77596  0.52936  1.0000 -0.2219211291
C   C291      1.0  0.24660  0.32384  0.47064  1.0000 -0.2219211291
C   C292      1.0  0.57384  0.60320  0.57724  1.0000 -0.2219211291
C   C293      1.0  0.22404  0.75340  0.07724  1.0000 -0.2219211291
C   C294      1.0  0.39680  0.97404  0.97064  1.0000 -0.2219211291
C   C295      1.0  0.00340  0.42616  0.02936  1.0000 -0.2253250454
C   C296      1.0  0.67616  0.14680  0.92276  1.0000 -0.2219211291
C   C297      1.0  0.02835  0.04411  0.41806  1.0000 -0.0828651238
C   C298      1.0  0.86029  0.77835  0.48424  1.0000 -0.0828651238
C   C299      1.0  0.29411  0.37605  0.51576  1.0000 -0.0828651238
C   C300      1.0  0.62605  0.61029  0.58194  1.0000 -0.0828651238
C   C301      1.0  0.22165  0.70589  0.08194  1.0000 -0.0828651238
C   C302      1.0  0.38971  0.97165  0.01576  1.0000 -0.0828651238
C   C303      1.0  0.95589  0.37395  0.98424  1.0000 -0.0828651238
C   C304      1.0  0.62395  0.13971  0.91806  1.0000 -0.0828651238
C   C305      1.0  0.07273  0.09797  0.38990  1.0000 -0.1409707554
C   C306      1.0  0.93283  0.82273  0.47476  1.0000 -0.1409707554
C   C307      1.0  0.34797  0.45807  0.52524  1.0000 -0.1409707554
C   C308      1.0  0.70807  0.68283  0.61010  1.0000 -0.1409707554
C   C309      1.0  0.17727  0.65203  0.11010  1.0000 -0.1409707554
C   C310      1.0  0.31717  0.92727  0.02524  1.0000 -0.1409707554
C   C311      1.0  0.90203  0.29193  0.97476  1.0000 -0.1409707554
C   C312      1.0  0.54193  0.06717  0.88990  1.0000 -0.1409707554
C   C313      1.0  0.11540  0.10458  0.36718  1.0000 -0.0877995512
C   C314      1.0  0.99822  0.86540  0.51082  1.0000 -0.0877995512
C   C315      1.0  0.35458  0.48740  0.48918  1.0000 -0.0877995512
C   C316      1.0  0.73740  0.74822  0.63282  1.0000 -0.0877995512
C   C317      1.0  0.13460  0.64542  0.13282  1.0000 -0.0877995512
C   C318      1.0  0.25178  0.88460  0.98918  1.0000 -0.0877995512
C   C319      1.0  0.89542  0.26260  0.01082  1.0000 -0.0877995512
C   C320      1.0  0.51260  0.00178  0.86718  1.0000 -0.0877995512
C   C321      1.0  0.11537  0.05835  0.37172  1.0000 -0.150683151
C   C322      1.0  0.99365  0.86537  0.55702  1.0000 -0.150683151
C   C323      1.0  0.30835  0.43663  0.44298  1.0000 -0.150683151
C   C324      1.0  0.68663  0.74365  0.62828  1.0000 -0.150683151
C   C325      1.0  0.13463  0.69165  0.12828  1.0000 -0.150683151
C   C326      1.0  0.25635  0.88463  0.94298  1.0000 -0.150683151
C   C327      1.0  0.94165  0.31337  0.05702  1.0000 -0.150683151
C   C328      1.0  0.56337  0.00635  0.87172  1.0000 -0.150683151
C   C329      1.0  0.16425  0.07057  0.34602  1.0000 0.4366879452
C   C330      1.0  0.06823  0.91425  0.59368  1.0000 0.4366879452
C   C331      1.0  0.32057  0.47455  0.40632  1.0000 0.4366879452
C   C332      1.0  0.72455  0.81823  0.65398  1.0000 0.4366879452
C   C333      1.0  0.08575  0.67943  0.15398  1.0000 0.4366879452
C   C334      1.0  0.18177  0.83575  0.90632  1.0000 0.4366879452
C   C335      1.0  0.92943  0.27545  0.09368  1.0000 0.4366879452
C   C336      1.0  0.52545  0.93177  0.84602  1.0000 0.4366879452
C   C337      1.0  0.23177  0.02032  0.34209  1.0000 0.4470855061
C   C338      1.0  0.13968  0.98177  0.71145  1.0000 0.4470855061
C   C339      1.0  0.27032  0.42823  0.28855  1.0000 0.4470855061
C   C340      1.0  0.67823  0.88968  0.65791  1.0000 0.4470855061
C   C341      1.0  0.01823  0.72968  0.15791  1.0000 0.4470855061
C   C342      1.0  0.11032  0.76823  0.78855  1.0000 0.4470855061
C   C343      1.0  0.97968  0.32177  0.21145  1.0000 0.4470855061
C   C344      1.0  0.57177  0.86032  0.84209  1.0000 0.4470855061
C   C345      1.0  0.28888  0.03737  0.32345  1.0000 -0.3203514245
C   C346      1.0  0.21543  0.03888  0.75151  1.0000 -0.3203514245
C   C347      1.0  0.28737  0.46392  0.24849  1.0000 -0.3203514245
C   C348      1.0  0.71392  0.96543  0.67655  1.0000 -0.3203514245
C   C349      1.0  0.96112  0.71263  0.17655  1.0000 -0.3203514245
C   C350      1.0  0.03457  0.71112  0.74849  1.0000 -0.3203514245
C   C351      1.0  0.96263  0.28608  0.25151  1.0000 -0.3203514245
C   C352      1.0  0.53608  0.78457  0.82345  1.0000 -0.3203514245
C   C353      1.0  0.37580  0.10590  0.36090  1.0000 -0.1218856007
C   C354      1.0  0.26490  0.12580  0.76990  1.0000 -0.1218856007
C   C355      1.0  0.35590  0.49500  0.23010  1.0000 -0.1218856007
C   C356      1.0  0.74500  0.01490  0.63910  1.0000 -0.1218856007
C   C357      1.0  0.87420  0.64410  0.13910  1.0000 -0.1218856007
C   C358      1.0  0.98510  0.62420  0.73010  1.0000 -0.1218856007
C   C359      1.0  0.89410  0.25500  0.26990  1.0000 -0.1218856007
C   C360      1.0  0.50500  0.73510  0.86090  1.0000 -0.1218856007
C   C361      1.0  0.43360  0.12200  0.34440  1.0000 -0.1811983033
C   C362      1.0  0.33920  0.18360  0.81160  1.0000 -0.1811983033
C   C363      1.0  0.37200  0.52760  0.18840  1.0000 -0.1811983033
C   C364      1.0  0.77760  0.08920  0.65560  1.0000 -0.1811983033
C   C365      1.0  0.81640  0.62800  0.15560  1.0000 -0.1811983033
C   C366      1.0  0.91080  0.56640  0.68840  1.0000 -0.1811983033
C   C367      1.0  0.87800  0.22240  0.31160  1.0000 -0.1811983033
C   C368      1.0  0.47240  0.66080  0.84440  1.0000 -0.1811983033
C   C369      1.0  0.51480  0.18990  0.37230  1.0000 -0.1273801347
C   C370      1.0  0.39250  0.26480  0.82490  1.0000 -0.1273801347
C   C371      1.0  0.43990  0.56760  0.17510  1.0000 -0.1273801347
C   C372      1.0  0.81760  0.14250  0.62770  1.0000 -0.1273801347
C   C373      1.0  0.73520  0.56010  0.12770  1.0000 -0.1273801347
C   C374      1.0  0.85750  0.48520  0.67510  1.0000 -0.1273801347
C   C375      1.0  0.81010  0.18240  0.32490  1.0000 -0.1273801347
C   C376      1.0  0.43240  0.60750  0.87230  1.0000 -0.1273801347
C   C377      1.0  0.55720  0.18520  0.34600  1.0000 -0.3711217169
C   C378      1.0  0.46120  0.30720  0.87200  1.0000 -0.3711217169
C   C379      1.0  0.43520  0.58920  0.12800  1.0000 -0.3711217169
C   C380      1.0  0.83920  0.21120  0.65400  1.0000 -0.3711217169
C   C381      1.0  0.69280  0.56480  0.15400  1.0000 -0.3711217169
C   C382      1.0  0.78880  0.44280  0.62800  1.0000 -0.3711217169
C   C383      1.0  0.81480  0.16080  0.37200  1.0000 -0.3711217169
C   C384      1.0  0.41080  0.53880  0.84600  1.0000 -0.3711217169
C   C385      1.0  0.84810  0.29360  0.16170  1.0000 0.0616892304
C   C386      1.0  0.93640  0.59810  0.05450  1.0000 0.0616892304
C   C387      1.0  0.54360  0.88190  0.94550  1.0000 0.0616892304
C   C388      1.0  0.13190  0.68640  0.83830  1.0000 0.0616892304
C   C389      1.0  0.40190  0.45640  0.33830  1.0000 0.0616892304
C   C390      1.0  0.31360  0.15190  0.44550  1.0000 0.0616892304
C   C391      1.0  0.70640  0.86810  0.55450  1.0000 0.0616892304
C   C392      1.0  0.11810  0.06360  0.66170  1.0000 0.0616892304
C   C393      1.0  0.77510  0.25520  0.15790  1.0000 -0.2106518543
C   C394      1.0  0.86720  0.52510  0.01990  1.0000 -0.2106518543
C   C395      1.0  0.50520  0.84730  0.98010  1.0000 -0.2106518543
C   C396      1.0  0.09730  0.61720  0.84210  1.0000 -0.2106518543
C   C397      1.0  0.47490  0.49480  0.34210  1.0000 -0.2106518543
C   C398      1.0  0.38280  0.22490  0.48010  1.0000 -0.2106518543
C   C399      1.0  0.74480  0.90270  0.51990  1.0000 -0.2106518543
C   C400      1.0  0.15270  0.13280  0.65790  1.0000 -0.2106518543
C   C401      1.0  0.91848  0.41571  0.15559  1.0000 0.1002210487
C   C402      1.0  0.01289  0.66848  0.00277  1.0000 0.1002210487
C   C403      1.0  0.66571  0.01012  0.99723  1.0000 0.1002210487
C   C404      1.0  0.26012  0.76289  0.84441  1.0000 0.1002210487
C   C405      1.0  0.33152  0.33429  0.34441  1.0000 0.1002210487
C   C406      1.0  0.23711  0.08152  0.49723  1.0000 0.1002210487
C   C407      1.0  0.58429  0.73988  0.50277  1.0000 0.1002210487
C   C408      1.0  0.98988  0.98711  0.65559  1.0000 0.1002210487
C   C409      1.0  0.85089  0.38423  0.15232  1.0000 -0.1922631201
C   C410      1.0  0.94857  0.60089  0.96666  1.0000 -0.1922631201
C   C411      1.0  0.63423  0.98191  0.03334  1.0000 -0.1922631201
C   C412      1.0  0.23191  0.69857  0.84768  1.0000 -0.1922631201
C   C413      1.0  0.39911  0.36577  0.34768  1.0000 -0.1922631201
C   C414      1.0  0.30143  0.14911  0.53334  1.0000 -0.1922631201
C   C415      1.0  0.61577  0.76809  0.46666  1.0000 -0.1922631201
C   C416      1.0  0.01809  0.05143  0.65232  1.0000 -0.1922631201
C   C417      1.0  0.77750  0.30350  0.15480  1.0000 0.159510535
C   C418      1.0  0.87270  0.52750  0.97400  1.0000 0.159510535
C   C419      1.0  0.55350  0.89870  0.02600  1.0000 0.159510535
C   C420      1.0  0.14870  0.62270  0.84520  1.0000 0.159510535
C   C421      1.0  0.47250  0.44650  0.34520  1.0000 0.159510535
C   C422      1.0  0.37730  0.22250  0.52600  1.0000 0.159510535
C   C423      1.0  0.69650  0.85130  0.47400  1.0000 0.159510535
C   C424      1.0  0.10130  0.12730  0.65480  1.0000 0.159510535
C   C425      1.0  0.69840  0.26550  0.15410  1.0000 -0.2044300858
C   C426      1.0  0.79430  0.44840  0.93290  1.0000 -0.2044300858
C   C427      1.0  0.51550  0.86140  0.06710  1.0000 -0.2044300858
C   C428      1.0  0.11140  0.54430  0.84590  1.0000 -0.2044300858
C   C429      1.0  0.55160  0.48450  0.34590  1.0000 -0.2044300858
C   C430      1.0  0.45570  0.30160  0.56710  1.0000 -0.2044300858
C   C431      1.0  0.73450  0.88860  0.43290  1.0000 -0.2044300858
C   C432      1.0  0.13860  0.20570  0.65410  1.0000 -0.2044300858
N   N1        1.0  0.31897  0.14129  0.24766  1.0000 -0.3133645032
N   N2        1.0  0.32131  0.06897  0.67768  1.0000 -0.3133645032
N   N3        1.0  0.39129  0.64363  0.32232  1.0000 -0.3133645032
N   N4        1.0  0.89363  0.07131  0.75234  1.0000 -0.3133645032
N   N5        1.0  0.93103  0.60871  0.25234  1.0000 -0.3133645032
N   N6        1.0  0.92869  0.68103  0.82232  1.0000 -0.3133645032
N   N7        1.0  0.85871  0.10637  0.17768  1.0000 -0.3133645032
N   N8        1.0  0.35637  0.67869  0.74766  1.0000 -0.3133645032
N   N9        1.0  0.26199  0.07423  0.20582  1.0000 -0.2990638156
N   N10       1.0  0.30617  0.01199  0.68776  1.0000 -0.2946515951
N   N11       1.0  0.32423  0.61841  0.31224  1.0000 -0.2990638156
N   N12       1.0  0.86841  0.05617  0.79418  1.0000 -0.2946515951
N   N13       1.0  0.98801  0.67577  0.29418  1.0000 -0.2946515951
N   N14       1.0  0.94383  0.73801  0.81224  1.0000 -0.2946515951
N   N15       1.0  0.92577  0.13159  0.18776  1.0000 -0.2990638156
N   N16       1.0  0.38159  0.69383  0.70582  1.0000 -0.2990638156
N   N17       1.0  0.25287  0.24377  0.21104  1.0000 0.0432495599
N   N18       1.0  0.29183  0.00287  0.50910  1.0000 0.0432495599
N   N19       1.0  0.49377  0.78273  0.49090  1.0000 0.0432495599
N   N20       1.0  0.03273  0.04183  0.78896  1.0000 0.0432495599
N   N21       1.0  0.99713  0.50623  0.28896  1.0000 0.0432495599
N   N22       1.0  0.95817  0.74713  0.99090  1.0000 0.0432495599
N   N23       1.0  0.75623  0.96727  0.00910  1.0000 0.0432495599
N   N24       1.0  0.21727  0.70817  0.71104  1.0000 0.0432495599
N   N25       1.0  0.25050  0.97167  0.13237  1.0000 -0.2990638156
N   N26       1.0  0.36813  0.00050  0.77883  1.0000 -0.2990638156
N   N27       1.0  0.22167  0.58930  0.22117  1.0000 -0.2990638156
N   N28       1.0  0.83930  0.11813  0.86763  1.0000 -0.2990638156
N   N29       1.0  0.99950  0.77833  0.36763  1.0000 -0.2990638156
N   N30       1.0  0.88187  0.74950  0.72117  1.0000 -0.2990638156
N   N31       1.0  0.02833  0.16070  0.27883  1.0000 -0.2990638156
N   N32       1.0  0.41070  0.63187  0.63237  1.0000 -0.2990638156
N   N33       1.0  0.22906  0.91771  0.15557  1.0000 -0.2990638156
N   N34       1.0  0.32349  0.97906  0.81135  1.0000 -0.2990638156
N   N35       1.0  0.16771  0.51214  0.18865  1.0000 -0.2990638156
N   N36       1.0  0.76214  0.07349  0.84443  1.0000 -0.2990638156
N   N37       1.0  0.02094  0.83229  0.34443  1.0000 -0.2990638156
N   N38       1.0  0.92651  0.77094  0.68865  1.0000 -0.2990638156
N   N39       1.0  0.08229  0.23786  0.31135  1.0000 -0.2990638156
N   N40       1.0  0.48786  0.67651  0.65557  1.0000 -0.2990638156
N   N41       1.0  0.44253  0.13193  0.16446  1.0000 -0.1811983033
N   N42       1.0  0.52807  0.19253  0.81060  1.0000 -0.1811983033
N   N43       1.0  0.38193  0.71747  0.18940  1.0000 -0.1811983033
N   N44       1.0  0.96747  0.27807  0.83554  1.0000 -0.1811983033
N   N45       1.0  0.80747  0.61807  0.33554  1.0000 -0.1811983033
N   N46       1.0  0.72193  0.55747  0.68940  1.0000 -0.1811983033
N   N47       1.0  0.86807  0.03253  0.31060  1.0000 -0.1811983033
N   N48       1.0  0.28253  0.47193  0.66446  1.0000 -0.1811983033
N   N49       1.0  0.16685  0.02938  0.35143  1.0000 -0.3203514245
N   N50       1.0  0.06542  0.91685  0.63747  1.0000 -0.3203514245
N   N51       1.0  0.27938  0.42795  0.36253  1.0000 -0.3203514245
N   N52       1.0  0.67795  0.81542  0.64857  1.0000 -0.3203514245
N   N53       1.0  0.08315  0.72062  0.14857  1.0000 -0.3203514245
N   N54       1.0  0.18458  0.83315  0.86253  1.0000 -0.3203514245
N   N55       1.0  0.97062  0.32205  0.13747  1.0000 -0.3203514245
N   N56       1.0  0.57205  0.93458  0.85143  1.0000 -0.3203514245
N   N57       1.0  0.21897  0.04897  0.32774  1.0000 -0.3203514245
N   N58       1.0  0.14123  0.96897  0.67000  1.0000 -0.3203514245
N   N59       1.0  0.29897  0.47123  0.33000  1.0000 -0.3203514245
N   N60       1.0  0.72123  0.89123  0.67226  1.0000 -0.3203514245
N   N61       1.0  0.03103  0.70103  0.17226  1.0000 -0.3203514245
N   N62       1.0  0.10877  0.78103  0.83000  1.0000 -0.3203514245
N   N63       1.0  0.95103  0.27877  0.17000  1.0000 -0.3203514245
N   N64       1.0  0.52877  0.85877  0.82774  1.0000 -0.3203514245
N   N65       1.0  0.92100  0.37439  0.15999  1.0000 -0.2106518543
N   N66       1.0  0.01101  0.67100  0.04661  1.0000 -0.2106518543
N   N67       1.0  0.62439  0.96440  0.95339  1.0000 -0.2106518543
N   N68       1.0  0.21440  0.76101  0.84001  1.0000 -0.2106518543
N   N69       1.0  0.32900  0.37561  0.34001  1.0000 -0.2106518543
N   N70       1.0  0.23899  0.07900  0.45339  1.0000 -0.2106518543
N   N71       1.0  0.62561  0.78560  0.54661  1.0000 -0.2106518543
N   N72       1.0  0.03560  0.98899  0.65999  1.0000 -0.2106518543
O   O1        1.0  0.36942  0.22874  0.33196  1.0000 -0.4997254677
O   O2        1.0  0.28746  0.11942  0.64068  1.0000 -0.4997254677
O   O3        1.0  0.47874  0.64678  0.35932  1.0000 -0.4997254677
O   O4        1.0  0.89678  0.03746  0.66804  1.0000 -0.4997254677
O   O5        1.0  0.88058  0.52126  0.16804  1.0000 -0.4997254677
O   O6        1.0  0.96254  0.63058  0.85932  1.0000 -0.4997254677
O   O7        1.0  0.77126  0.10322  0.14068  1.0000 -0.4997254677
O   O8        1.0  0.35322  0.71254  0.83196  1.0000 -0.4997254677
O   O9        1.0  0.42035  0.19243  0.21966  1.0000 -0.4339214239
O   O10       1.0  0.45069  0.17035  0.72792  1.0000 -0.4339214239
O   O11       1.0  0.44243  0.72277  0.27208  1.0000 -0.4339214239
O   O12       1.0  0.97277  0.20069  0.78034  1.0000 -0.4339214239
O   O13       1.0  0.82965  0.55757  0.28034  1.0000 -0.4339214239
O   O14       1.0  0.79931  0.57965  0.77208  1.0000 -0.4339214239
O   O15       1.0  0.80757  0.02723  0.22792  1.0000 -0.4339214239
O   O16       1.0  0.27723  0.54931  0.71966  1.0000 -0.4339214239
O   O17       1.0  0.16932  0.03996  0.23308  1.0000 -0.4997254677
O   O18       1.0  0.18624  0.91932  0.62936  1.0000 -0.4997254677
O   O19       1.0  0.28996  0.55688  0.37064  1.0000 -0.4997254677
O   O20       1.0  0.80688  0.93624  0.76692  1.0000 -0.4997254677
O   O21       1.0  0.08068  0.71004  0.26692  1.0000 -0.4997254677
O   O22       1.0  0.06376  0.83068  0.87064  1.0000 -0.4997254677
O   O23       1.0  0.96004  0.19312  0.12936  1.0000 -0.4997254677
O   O24       1.0  0.44312  0.81376  0.73308  1.0000 -0.4997254677
O   O25       1.0  0.29273  0.21923  0.25416  1.0000 -0.4138406191
O   O26       1.0  0.28857  0.04273  0.57350  1.0000 -0.4138406191
O   O27       1.0  0.46923  0.71507  0.42650  1.0000 -0.4138406191
O   O28       1.0  0.96507  0.03857  0.74584  1.0000 -0.4138406191
O   O29       1.0  0.95727  0.53077  0.24584  1.0000 -0.4138406191
O   O30       1.0  0.96143  0.70727  0.92650  1.0000 -0.4138406191
O   O31       1.0  0.78077  0.03493  0.07350  1.0000 -0.4138406191
O   O32       1.0  0.28493  0.71143  0.75416  1.0000 -0.4138406191
O   O33       1.0  0.33077  0.11354  0.12151  1.0000 -0.4452165935
O   O34       1.0  0.45926  0.08077  0.71723  1.0000 -0.4442589257
O   O35       1.0  0.36354  0.74203  0.28277  1.0000 -0.4452165935
O   O36       1.0  0.99203  0.20926  0.87849  1.0000 -0.4442589257
O   O37       1.0  0.91923  0.63646  0.37849  1.0000 -0.4442589257
O   O38       1.0  0.79074  0.66923  0.78277  1.0000 -0.4442589257
O   O39       1.0  0.88646  0.00797  0.21723  1.0000 -0.4442589257
O   O40       1.0  0.25797  0.54074  0.62151  1.0000 -0.4442589257
O   O41       1.0  0.15750  0.85932  0.06710  1.0000 -0.4599840578
O   O42       1.0  0.34040  0.90750  0.79818  1.0000 -0.4599840578
O   O43       1.0  0.10932  0.54222  0.20182  1.0000 -0.4599840578
O   O44       1.0  0.79222  0.09040  0.93290  1.0000 -0.4599840578
O   O45       1.0  0.09250  0.89068  0.43290  1.0000 -0.4599840578
O   O46       1.0  0.90960  0.84250  0.70182  1.0000 -0.4599840578
O   O47       1.0  0.14068  0.20778  0.29818  1.0000 -0.4599840578
O   O48       1.0  0.45778  0.65960  0.56710  1.0000 -0.4599840578
O   O49       1.0  0.32074  0.03246  0.21744  1.0000 -0.4695026197
O   O50       1.0  0.35330  0.07074  0.78828  1.0000 -0.4695026197
O   O51       1.0  0.28246  0.56502  0.21172  1.0000 -0.4695026197
O   O52       1.0  0.81502  0.10330  0.78256  1.0000 -0.4695026197
O   O53       1.0  0.92926  0.71754  0.28256  1.0000 -0.4695026197
O   O54       1.0  0.89670  0.67926  0.71172  1.0000 -0.4695026197
O   O55       1.0  0.96754  0.18498  0.28828  1.0000 -0.4695026197
O   O56       1.0  0.43498  0.64670  0.71744  1.0000 -0.4695026197
O   O57       1.0  0.06266  0.95430  0.40696  1.0000 -0.4599840578
O   O58       1.0  0.90570  0.81266  0.60836  1.0000 -0.4599840578
O   O59       1.0  0.20430  0.29734  0.39164  1.0000 -0.4599840578
O   O60       1.0  0.54734  0.65570  0.59304  1.0000 -0.4599840578
O   O61       1.0  0.18734  0.79570  0.09304  1.0000 -0.4599840578
O   O62       1.0  0.34430  0.93734  0.89164  1.0000 -0.4599840578
O   O63       1.0  0.04570  0.45266  0.10836  1.0000 -0.4599840578
O   O64       1.0  0.70266  0.09430  0.90696  1.0000 -0.4599840578
O   O65       1.0  0.20304  0.12110  0.32014  1.0000 -0.4695026197
O   O66       1.0  0.13290  0.95304  0.58194  1.0000 -0.4695026197
O   O67       1.0  0.37110  0.55096  0.41806  1.0000 -0.4695026197
O   O68       1.0  0.80096  0.88290  0.67986  1.0000 -0.4695026197
O   O69       1.0  0.04696  0.62890  0.17986  1.0000 -0.4695026197
O   O70       1.0  0.11710  0.79696  0.91806  1.0000 -0.4695026197
O   O71       1.0  0.87890  0.19904  0.08194  1.0000 -0.4695026197
O   O72       1.0  0.44904  0.86710  0.82014  1.0000 -0.4695026197
O   O73       1.0  0.20064  0.97956  0.37300  1.0000 -0.477575605
O   O74       1.0  0.07764  0.95064  0.72108  1.0000 -0.477575605
O   O75       1.0  0.22956  0.35656  0.27892  1.0000 -0.477575605
O   O76       1.0  0.60656  0.82764  0.62700  1.0000 -0.477575605
O   O77       1.0  0.04936  0.77044  0.12700  1.0000 -0.477575605
O   O78       1.0  0.17236  0.79936  0.77892  1.0000 -0.477575605
O   O79       1.0  0.02044  0.39344  0.22108  1.0000 -0.477575605
O   O80       1.0  0.64344  0.92236  0.87300  1.0000 -0.477575605
