# DDEC6 charges by PACMAN v1.1 (https://github.com/mtap-research/PACMAN-charge/)
data_2005[Sc][nan]3[FSR]2
_chemical_formula_sum              "Sc4 H24 C48 O24"
_cell_length_a       20.0974
_cell_length_b       17.7519
_cell_length_c       11.2739
_cell_angle_alpha    84.5056
_cell_angle_beta     61.5504
_cell_angle_gamma    33.9441

_symmetry_space_group_name_H-M    "P 1"
_symmetry_Int_Tables_number       1

loop_
  _symmetry_equiv_pos_as_xyz
  'x, y, z'

loop_
  _atom_site_type_symbol
  _atom_site_label
  _atom_site_symmetry_multiplicity
  _atom_site_fract_x
  _atom_site_fract_y
  _atom_site_fract_z
  _atom_site_occupancy
  _atom_site_charge
Sc  Sc1       1.0  0.73933  0.73933  0.26067  1.0000 1.8203744091
Sc  Sc2       1.0  0.26067  0.26067  0.73933  1.0000 1.8203744091
Sc  Sc3       1.0  0.51067  0.51067  0.98933  1.0000 1.8203744091
Sc  Sc4       1.0  0.98933  0.98933  0.51067  1.0000 1.8203744091
H   H1        1.0  0.85200  0.41320  0.35080  1.0000 0.1265841521
H   H2        1.0  0.38400  0.35080  0.41320  1.0000 0.1265841521
H   H3        1.0  0.35080  0.38400  0.85200  1.0000 0.1265841521
H   H4        1.0  0.41320  0.85200  0.38400  1.0000 0.1265841521
H   H5        1.0  0.39800  0.83680  0.89920  1.0000 0.1265841521
H   H6        1.0  0.86600  0.89920  0.83680  1.0000 0.1265841521
H   H7        1.0  0.89920  0.86600  0.39800  1.0000 0.1265841521
H   H8        1.0  0.83680  0.39800  0.86600  1.0000 0.1265841521
H   H9        1.0  0.31270  0.03050  0.87190  1.0000 0.1234104283
H   H10       1.0  0.78490  0.87190  0.03050  1.0000 0.1234104283
H   H11       1.0  0.87190  0.78490  0.31270  1.0000 0.1234104283
H   H12       1.0  0.03050  0.31270  0.78490  1.0000 0.1234104283
H   H13       1.0  0.93730  0.21950  0.37810  1.0000 0.1234104283
H   H14       1.0  0.46510  0.37810  0.21950  1.0000 0.1234104283
H   H15       1.0  0.37810  0.46510  0.93730  1.0000 0.1234104283
H   H16       1.0  0.21950  0.93730  0.46510  1.0000 0.1234104283
H   H17       1.0  0.92120  0.57620  0.46700  1.0000 0.1265841521
H   H18       1.0  0.03560  0.46700  0.57620  1.0000 0.1265841521
H   H19       1.0  0.46700  0.03560  0.92120  1.0000 0.1265841521
H   H20       1.0  0.57620  0.92120  0.03560  1.0000 0.1265841521
H   H21       1.0  0.32880  0.67380  0.78300  1.0000 0.1265841521
H   H22       1.0  0.21440  0.78300  0.67380  1.0000 0.1265841521
H   H23       1.0  0.78300  0.21440  0.32880  1.0000 0.1265841521
H   H24       1.0  0.67380  0.32880  0.21440  1.0000 0.1265841521
C   C1        1.0  0.02053  0.36471  0.09005  1.0000 0.650756781
C   C2        1.0  0.52471  0.09005  0.36471  1.0000 0.650756781
C   C3        1.0  0.09005  0.52471  0.02053  1.0000 0.650756781
C   C4        1.0  0.36471  0.02053  0.52471  1.0000 0.650756781
C   C5        1.0  0.22947  0.88529  0.15995  1.0000 0.650756781
C   C6        1.0  0.72529  0.15995  0.88529  1.0000 0.650756781
C   C7        1.0  0.15995  0.72529  0.22947  1.0000 0.650756781
C   C8        1.0  0.88529  0.22947  0.72529  1.0000 0.650756781
C   C9        1.0  0.07409  0.24099  0.10847  1.0000 -0.0345245245
C   C10       1.0  0.57645  0.10847  0.24099  1.0000 -0.0345245245
C   C11       1.0  0.10847  0.57645  0.07409  1.0000 -0.0345245245
C   C12       1.0  0.24099  0.07409  0.57645  1.0000 -0.0345245245
C   C13       1.0  0.17591  0.00901  0.14153  1.0000 -0.0345245245
C   C14       1.0  0.67355  0.14153  0.00901  1.0000 -0.0345245245
C   C15       1.0  0.14153  0.67355  0.17591  1.0000 -0.0345245245
C   C16       1.0  0.00901  0.17591  0.67355  1.0000 -0.0345245245
C   C17       1.0  0.96165  0.29763  0.25999  1.0000 -0.1002258478
C   C18       1.0  0.48073  0.25999  0.29763  1.0000 -0.1002258478
C   C19       1.0  0.25999  0.48073  0.96165  1.0000 -0.1002258478
C   C20       1.0  0.29763  0.96165  0.48073  1.0000 -0.1002258478
C   C21       1.0  0.28835  0.95237  0.99001  1.0000 -0.1002258478
C   C22       1.0  0.76927  0.99001  0.95237  1.0000 -0.1002258478
C   C23       1.0  0.99001  0.76927  0.28835  1.0000 -0.1002258478
C   C24       1.0  0.95237  0.28835  0.76927  1.0000 -0.1002258478
C   C25       1.0  0.23709  0.06867  0.97377  1.0000 -0.1002258478
C   C26       1.0  0.72047  0.97377  0.06867  1.0000 -0.1002258478
C   C27       1.0  0.97377  0.72047  0.23709  1.0000 -0.1002258478
C   C28       1.0  0.06867  0.23709  0.72047  1.0000 -0.1002258478
C   C29       1.0  0.01291  0.18133  0.27623  1.0000 -0.1002258478
C   C30       1.0  0.52953  0.27623  0.18133  1.0000 -0.1002258478
C   C31       1.0  0.27623  0.52953  0.01291  1.0000 -0.1002258478
C   C32       1.0  0.18133  0.01291  0.52953  1.0000 -0.1002258478
C   C33       1.0  0.61138  0.88862  0.61138  1.0000 0.650756781
C   C34       1.0  0.88862  0.61138  0.88862  1.0000 0.650756781
C   C35       1.0  0.63862  0.36138  0.63862  1.0000 0.650756781
C   C36       1.0  0.36138  0.63862  0.36138  1.0000 0.650756781
C   C37       1.0  0.68326  0.81674  0.68326  1.0000 -0.0359464042
C   C38       1.0  0.81674  0.68326  0.81674  1.0000 -0.0359464042
C   C39       1.0  0.56674  0.43326  0.56674  1.0000 -0.0359464042
C   C40       1.0  0.43326  0.56674  0.43326  1.0000 -0.0359464042
C   C41       1.0  0.85250  0.64664  0.58038  1.0000 -0.1002258478
C   C42       1.0  0.92048  0.58038  0.64664  1.0000 -0.1002258478
C   C43       1.0  0.58038  0.92048  0.85250  1.0000 -0.1002258478
C   C44       1.0  0.64664  0.85250  0.92048  1.0000 -0.1002258478
C   C45       1.0  0.39750  0.60336  0.66962  1.0000 -0.1002258478
C   C46       1.0  0.32952  0.66962  0.60336  1.0000 -0.1002258478
C   C47       1.0  0.66962  0.32952  0.39750  1.0000 -0.1002258478
C   C48       1.0  0.60336  0.39750  0.32952  1.0000 -0.1002258478
O   O1        1.0  0.87066  0.52026  0.21262  1.0000 -0.6160203718
O   O2        1.0  0.39646  0.21262  0.52026  1.0000 -0.6160203718
O   O3        1.0  0.21262  0.39646  0.87066  1.0000 -0.6160203718
O   O4        1.0  0.52026  0.87066  0.39646  1.0000 -0.6160203718
O   O5        1.0  0.37934  0.72974  0.03738  1.0000 -0.6160203718
O   O6        1.0  0.85354  0.03738  0.72974  1.0000 -0.6160203718
O   O7        1.0  0.03738  0.85354  0.37934  1.0000 -0.6160203718
O   O8        1.0  0.72974  0.37934  0.85354  1.0000 -0.6160203718
O   O9        1.0  0.12869  0.30645  0.95287  1.0000 -0.656707307
O   O10       1.0  0.61199  0.95287  0.30645  1.0000 -0.656707307
O   O11       1.0  0.95287  0.61199  0.12869  1.0000 -0.656707307
O   O12       1.0  0.30645  0.12869  0.61199  1.0000 -0.656707307
O   O13       1.0  0.12131  0.94355  0.29713  1.0000 -0.656707307
O   O14       1.0  0.63801  0.29713  0.94355  1.0000 -0.656707307
O   O15       1.0  0.29713  0.63801  0.12131  1.0000 -0.656707307
O   O16       1.0  0.94355  0.12131  0.63801  1.0000 -0.656707307
O   O17       1.0  0.69293  0.78649  0.47379  1.0000 -0.6369981595
O   O18       1.0  0.04679  0.47379  0.78649  1.0000 -0.6369981595
O   O19       1.0  0.47379  0.04679  0.69293  1.0000 -0.6369981595
O   O20       1.0  0.78649  0.69293  0.04679  1.0000 -0.6369981595
O   O21       1.0  0.55707  0.46351  0.77621  1.0000 -0.6369981595
O   O22       1.0  0.20321  0.77621  0.46351  1.0000 -0.6369981595
O   O23       1.0  0.77621  0.20321  0.55707  1.0000 -0.6369981595
O   O24       1.0  0.46351  0.55707  0.20321  1.0000 -0.6369981595
