# DDEC6 charges by PACMAN v1.1 (https://github.com/mtap-research/PACMAN-charge/)
data_2005[Cu][etb]3[FSR]1
_chemical_formula_sum              "Cu12 H120 C96 I12 N24"
_cell_length_a       16.3784
_cell_length_b       16.3784
_cell_length_c       16.3784
_cell_angle_alpha    105.439
_cell_angle_beta     105.439
_cell_angle_gamma    105.439

_symmetry_space_group_name_H-M    "P 1"
_symmetry_Int_Tables_number       1

loop_
  _symmetry_equiv_pos_as_xyz
  'x, y, z'

loop_
  _atom_site_type_symbol
  _atom_site_label
  _atom_site_symmetry_multiplicity
  _atom_site_fract_x
  _atom_site_fract_y
  _atom_site_fract_z
  _atom_site_occupancy
  _atom_site_charge
Cu  Cu1       1.0  0.74946  0.43088  0.06704  1.0000 0.2492687149
Cu  Cu2       1.0  0.43088  0.06704  0.74946  1.0000 0.2492687149
Cu  Cu3       1.0  0.06704  0.74946  0.43088  1.0000 0.2492687149
Cu  Cu4       1.0  0.25054  0.56912  0.93296  1.0000 0.2492687149
Cu  Cu5       1.0  0.56912  0.93296  0.25054  1.0000 0.2492687149
Cu  Cu6       1.0  0.93296  0.25054  0.56912  1.0000 0.2492687149
Cu  Cu7       1.0  0.56913  0.25053  0.93293  1.0000 0.2492687149
Cu  Cu8       1.0  0.25053  0.93293  0.56913  1.0000 0.2492687149
Cu  Cu9       1.0  0.93293  0.56913  0.25053  1.0000 0.2492687149
Cu  Cu10      1.0  0.43087  0.74947  0.06707  1.0000 0.2492687149
Cu  Cu11      1.0  0.74947  0.06707  0.43087  1.0000 0.2492687149
Cu  Cu12      1.0  0.06707  0.43087  0.74947  1.0000 0.2492687149
H   H1        1.0  0.09300  0.52760  0.24940  1.0000 0.1344733604
H   H2        1.0  0.52760  0.24940  0.09300  1.0000 0.1344733604
H   H3        1.0  0.24940  0.09300  0.52760  1.0000 0.1344733604
H   H4        1.0  0.90700  0.47240  0.75060  1.0000 0.1344733604
H   H5        1.0  0.47240  0.75060  0.90700  1.0000 0.1344733604
H   H6        1.0  0.75060  0.90700  0.47240  1.0000 0.1344733604
H   H7        1.0  0.13390  0.61680  0.23390  1.0000 0.1474622704
H   H8        1.0  0.61680  0.23390  0.13390  1.0000 0.1474622704
H   H9        1.0  0.23390  0.13390  0.61680  1.0000 0.1474622704
H   H10       1.0  0.86610  0.38320  0.76610  1.0000 0.1474622704
H   H11       1.0  0.38320  0.76610  0.86610  1.0000 0.1474622704
H   H12       1.0  0.76610  0.86610  0.38320  1.0000 0.1474622704
H   H13       1.0  0.76690  0.38320  0.86610  1.0000 0.1474622704
H   H14       1.0  0.38320  0.86610  0.76690  1.0000 0.1474622704
H   H15       1.0  0.86610  0.76690  0.38320  1.0000 0.1474622704
H   H16       1.0  0.23310  0.61680  0.13390  1.0000 0.1474622704
H   H17       1.0  0.61680  0.13390  0.23310  1.0000 0.1474622704
H   H18       1.0  0.13390  0.23310  0.61680  1.0000 0.1474622704
H   H19       1.0  0.75040  0.47190  0.90670  1.0000 0.1384199936
H   H20       1.0  0.47190  0.90670  0.75040  1.0000 0.1384199936
H   H21       1.0  0.90670  0.75040  0.47190  1.0000 0.1384199936
H   H22       1.0  0.24960  0.52810  0.09330  1.0000 0.1384199936
H   H23       1.0  0.52810  0.09330  0.24960  1.0000 0.1384199936
H   H24       1.0  0.09330  0.24960  0.52810  1.0000 0.1384199936
H   H25       1.0  0.20000  0.39600  0.13990  1.0000 0.1384199936
H   H26       1.0  0.39600  0.13990  0.20000  1.0000 0.1384199936
H   H27       1.0  0.13990  0.20000  0.39600  1.0000 0.1384199936
H   H28       1.0  0.80000  0.60400  0.86010  1.0000 0.1384199936
H   H29       1.0  0.60400  0.86010  0.80000  1.0000 0.1384199936
H   H30       1.0  0.86010  0.80000  0.60400  1.0000 0.1384199936
H   H31       1.0  0.09850  0.38840  0.10050  1.0000 0.1344733604
H   H32       1.0  0.38840  0.10050  0.09850  1.0000 0.1344733604
H   H33       1.0  0.10050  0.09850  0.38840  1.0000 0.1344733604
H   H34       1.0  0.90150  0.61160  0.89950  1.0000 0.1344733604
H   H35       1.0  0.61160  0.89950  0.90150  1.0000 0.1344733604
H   H36       1.0  0.89950  0.90150  0.61160  1.0000 0.1344733604
H   H37       1.0  0.14010  0.39630  0.20070  1.0000 0.1384199936
H   H38       1.0  0.39630  0.20070  0.14010  1.0000 0.1384199936
H   H39       1.0  0.20070  0.14010  0.39630  1.0000 0.1384199936
H   H40       1.0  0.85990  0.60370  0.79930  1.0000 0.1384199936
H   H41       1.0  0.60370  0.79930  0.85990  1.0000 0.1384199936
H   H42       1.0  0.79930  0.85990  0.60370  1.0000 0.1384199936
H   H43       1.0  0.25740  0.54520  0.31760  1.0000 0.1384199936
H   H44       1.0  0.54520  0.31760  0.25740  1.0000 0.1384199936
H   H45       1.0  0.31760  0.25740  0.54520  1.0000 0.1384199936
H   H46       1.0  0.74260  0.45480  0.68240  1.0000 0.1384199936
H   H47       1.0  0.45480  0.68240  0.74260  1.0000 0.1384199936
H   H48       1.0  0.68240  0.74260  0.45480  1.0000 0.1384199936
H   H49       1.0  0.28900  0.62880  0.28910  1.0000 0.1384199936
H   H50       1.0  0.62880  0.28910  0.28900  1.0000 0.1384199936
H   H51       1.0  0.28910  0.28900  0.62880  1.0000 0.1384199936
H   H52       1.0  0.71100  0.37120  0.71090  1.0000 0.1384199936
H   H53       1.0  0.37120  0.71090  0.71100  1.0000 0.1384199936
H   H54       1.0  0.71090  0.71100  0.37120  1.0000 0.1384199936
H   H55       1.0  0.31810  0.54600  0.25820  1.0000 0.1384199936
H   H56       1.0  0.54600  0.25820  0.31810  1.0000 0.1384199936
H   H57       1.0  0.25820  0.31810  0.54600  1.0000 0.1384199936
H   H58       1.0  0.68190  0.45400  0.74180  1.0000 0.1384199936
H   H59       1.0  0.45400  0.74180  0.68190  1.0000 0.1384199936
H   H60       1.0  0.74180  0.68190  0.45400  1.0000 0.1384199936
H   H61       1.0  0.71110  0.60690  0.98200  1.0000 0.1384199936
H   H62       1.0  0.60690  0.98200  0.71110  1.0000 0.1384199936
H   H63       1.0  0.98200  0.71110  0.60690  1.0000 0.1384199936
H   H64       1.0  0.28890  0.39310  0.01800  1.0000 0.1384199936
H   H65       1.0  0.39310  0.01800  0.28890  1.0000 0.1384199936
H   H66       1.0  0.01800  0.28890  0.39310  1.0000 0.1384199936
H   H67       1.0  0.75730  0.60010  0.07460  1.0000 0.1384199936
H   H68       1.0  0.60010  0.07460  0.75730  1.0000 0.1384199936
H   H69       1.0  0.07460  0.75730  0.60010  1.0000 0.1384199936
H   H70       1.0  0.24270  0.39990  0.92540  1.0000 0.1384199936
H   H71       1.0  0.39990  0.92540  0.24270  1.0000 0.1384199936
H   H72       1.0  0.92540  0.24270  0.39990  1.0000 0.1384199936
H   H73       1.0  0.39970  0.24260  0.92540  1.0000 0.1384199936
H   H74       1.0  0.24260  0.92540  0.39970  1.0000 0.1384199936
H   H75       1.0  0.92540  0.39970  0.24260  1.0000 0.1384199936
H   H76       1.0  0.60030  0.75740  0.07460  1.0000 0.1384199936
H   H77       1.0  0.75740  0.07460  0.60030  1.0000 0.1384199936
H   H78       1.0  0.07460  0.60030  0.75740  1.0000 0.1384199936
H   H79       1.0  0.39280  0.28940  0.01780  1.0000 0.1384199936
H   H80       1.0  0.28940  0.01780  0.39280  1.0000 0.1344733604
H   H81       1.0  0.01780  0.39280  0.28940  1.0000 0.1384199936
H   H82       1.0  0.60720  0.71060  0.98220  1.0000 0.1384199936
H   H83       1.0  0.71060  0.98220  0.60720  1.0000 0.1344733604
H   H84       1.0  0.98220  0.60720  0.71060  1.0000 0.1384199936
H   H85       1.0  0.76530  0.70150  0.21450  1.0000 0.1384199936
H   H86       1.0  0.70150  0.21450  0.76530  1.0000 0.1384199936
H   H87       1.0  0.21450  0.76530  0.70150  1.0000 0.1384199936
H   H88       1.0  0.23470  0.29850  0.78550  1.0000 0.1384199936
H   H89       1.0  0.29850  0.78550  0.23470  1.0000 0.1384199936
H   H90       1.0  0.78550  0.23470  0.29850  1.0000 0.1384199936
H   H91       1.0  0.65980  0.66740  0.18850  1.0000 0.1384199936
H   H92       1.0  0.66740  0.18850  0.65980  1.0000 0.1384199936
H   H93       1.0  0.18850  0.65980  0.66740  1.0000 0.1384199936
H   H94       1.0  0.34020  0.33260  0.81150  1.0000 0.1384199936
H   H95       1.0  0.33260  0.81150  0.34020  1.0000 0.1384199936
H   H96       1.0  0.81150  0.34020  0.33260  1.0000 0.1384199936
H   H97       1.0  0.71530  0.77090  0.21970  1.0000 0.1384199936
H   H98       1.0  0.77090  0.21970  0.71530  1.0000 0.1384199936
H   H99       1.0  0.21970  0.71530  0.77090  1.0000 0.1384199936
H   H100      1.0  0.28470  0.22910  0.78030  1.0000 0.1384199936
H   H101      1.0  0.22910  0.78030  0.28470  1.0000 0.1384199936
H   H102      1.0  0.78030  0.28470  0.22910  1.0000 0.1384199936
H   H103      1.0  0.76560  0.76650  0.02230  1.0000 0.115115776
H   H104      1.0  0.76650  0.02230  0.76560  1.0000 0.115115776
H   H105      1.0  0.02230  0.76560  0.76650  1.0000 0.1142490797
H   H106      1.0  0.23440  0.23350  0.97770  1.0000 0.115115776
H   H107      1.0  0.23350  0.97770  0.23440  1.0000 0.115115776
H   H108      1.0  0.97770  0.23440  0.23350  1.0000 0.115115776
H   H109      1.0  0.83350  0.77280  0.11310  1.0000 0.1384199936
H   H110      1.0  0.77280  0.11310  0.83350  1.0000 0.1384199936
H   H111      1.0  0.11310  0.83350  0.77280  1.0000 0.1384199936
H   H112      1.0  0.16650  0.22720  0.88690  1.0000 0.1384199936
H   H113      1.0  0.22720  0.88690  0.16650  1.0000 0.1384199936
H   H114      1.0  0.88690  0.16650  0.22720  1.0000 0.1384199936
H   H115      1.0  0.77470  0.83380  0.11480  1.0000 0.1384199936
H   H116      1.0  0.83380  0.11480  0.77470  1.0000 0.1384199936
H   H117      1.0  0.11480  0.77470  0.83380  1.0000 0.1384199936
H   H118      1.0  0.22530  0.16620  0.88520  1.0000 0.1384199936
H   H119      1.0  0.16620  0.88520  0.22530  1.0000 0.1384199936
H   H120      1.0  0.88520  0.22530  0.16620  1.0000 0.1384199936
C   C1        1.0  0.87691  0.47655  0.97243  1.0000 0.2298301029
C   C2        1.0  0.47655  0.97243  0.87691  1.0000 0.2298301029
C   C3        1.0  0.97243  0.87691  0.47655  1.0000 0.2298301029
C   C4        1.0  0.12309  0.52345  0.02757  1.0000 0.2298301029
C   C5        1.0  0.52345  0.02757  0.12309  1.0000 0.2298301029
C   C6        1.0  0.02757  0.12309  0.52345  1.0000 0.2298301029
C   C7        1.0  0.96184  0.48810  0.96181  1.0000 -0.0506116233
C   C8        1.0  0.48810  0.96181  0.96184  1.0000 -0.0506116233
C   C9        1.0  0.96181  0.96184  0.48810  1.0000 -0.0506116233
C   C10       1.0  0.03816  0.51190  0.03819  1.0000 -0.0506116233
C   C11       1.0  0.51190  0.03819  0.03816  1.0000 -0.0506116233
C   C12       1.0  0.03819  0.03816  0.51190  1.0000 -0.0506116233
C   C13       1.0  0.02709  0.52333  0.12281  1.0000 0.2298301029
C   C14       1.0  0.52333  0.12281  0.02709  1.0000 0.2298301029
C   C15       1.0  0.12281  0.02709  0.52333  1.0000 0.2298301029
C   C16       1.0  0.97291  0.47667  0.87719  1.0000 0.2298301029
C   C17       1.0  0.47667  0.87719  0.97291  1.0000 0.2298301029
C   C18       1.0  0.87719  0.97291  0.47667  1.0000 0.2298301029
C   C19       1.0  0.11000  0.55164  0.20635  1.0000 -0.3393995168
C   C20       1.0  0.55164  0.20635  0.11000  1.0000 -0.3393995168
C   C21       1.0  0.20635  0.11000  0.55164  1.0000 -0.3462584973
C   C22       1.0  0.89000  0.44836  0.79365  1.0000 -0.3393995168
C   C23       1.0  0.44836  0.79365  0.89000  1.0000 -0.3393995168
C   C24       1.0  0.79365  0.89000  0.44836  1.0000 -0.3393995168
C   C25       1.0  0.18426  0.51903  0.18411  1.0000 0.2997952618
C   C26       1.0  0.51903  0.18411  0.18426  1.0000 0.2997952618
C   C27       1.0  0.18411  0.18426  0.51903  1.0000 0.2997952618
C   C28       1.0  0.81574  0.48097  0.81589  1.0000 0.2997952618
C   C29       1.0  0.48097  0.81589  0.81574  1.0000 0.2997952618
C   C30       1.0  0.81589  0.81574  0.48097  1.0000 0.2997952618
C   C31       1.0  0.79392  0.44841  0.89003  1.0000 -0.3462584973
C   C32       1.0  0.44841  0.89003  0.79392  1.0000 -0.3462584973
C   C33       1.0  0.89003  0.79392  0.44841  1.0000 -0.3462584973
C   C34       1.0  0.20608  0.55159  0.10997  1.0000 -0.3462584973
C   C35       1.0  0.55159  0.10997  0.20608  1.0000 -0.3462584973
C   C36       1.0  0.10997  0.20608  0.55159  1.0000 -0.3462584973
C   C37       1.0  0.15320  0.41542  0.15348  1.0000 -0.4696969546
C   C38       1.0  0.41542  0.15348  0.15320  1.0000 -0.4696969546
C   C39       1.0  0.15348  0.15320  0.41542  1.0000 -0.4696969546
C   C40       1.0  0.84680  0.58458  0.84652  1.0000 -0.4696969546
C   C41       1.0  0.58458  0.84652  0.84680  1.0000 -0.4696969546
C   C42       1.0  0.84652  0.84680  0.58458  1.0000 -0.4696969546
C   C43       1.0  0.26996  0.56376  0.26998  1.0000 -0.4621087364
C   C44       1.0  0.56376  0.26998  0.26996  1.0000 -0.4621087364
C   C45       1.0  0.26998  0.26996  0.56376  1.0000 -0.4621087364
C   C46       1.0  0.73004  0.43624  0.73002  1.0000 -0.4621087364
C   C47       1.0  0.43624  0.73002  0.73004  1.0000 -0.4621087364
C   C48       1.0  0.73002  0.73004  0.43624  1.0000 -0.4621087364
C   C49       1.0  0.47296  0.37739  0.98096  1.0000 0.2298301029
C   C50       1.0  0.37739  0.98096  0.47296  1.0000 0.2298301029
C   C51       1.0  0.98096  0.47296  0.37739  1.0000 0.2298301029
C   C52       1.0  0.52704  0.62261  0.01904  1.0000 0.2298301029
C   C53       1.0  0.62261  0.01904  0.52704  1.0000 0.2298301029
C   C54       1.0  0.01904  0.52704  0.62261  1.0000 0.2298301029
C   C55       1.0  0.46234  0.46207  0.99111  1.0000 -0.0506116233
C   C56       1.0  0.46207  0.99111  0.46234  1.0000 -0.0506116233
C   C57       1.0  0.99111  0.46234  0.46207  1.0000 -0.0506116233
C   C58       1.0  0.53766  0.53793  0.00889  1.0000 -0.0506116233
C   C59       1.0  0.53793  0.00889  0.53766  1.0000 -0.0506116233
C   C60       1.0  0.00889  0.53766  0.53793  1.0000 -0.0506116233
C   C61       1.0  0.62267  0.52689  0.01880  1.0000 0.2355467844
C   C62       1.0  0.52689  0.01880  0.62267  1.0000 0.2355467844
C   C63       1.0  0.01880  0.62267  0.52689  1.0000 0.2355467844
C   C64       1.0  0.37733  0.47311  0.98120  1.0000 0.2355467844
C   C65       1.0  0.47311  0.98120  0.37733  1.0000 0.2355467844
C   C66       1.0  0.98120  0.37733  0.47311  1.0000 0.2355467844
C   C67       1.0  0.70439  0.60667  0.03850  1.0000 -0.3393995168
C   C68       1.0  0.60667  0.03850  0.70439  1.0000 -0.3393995168
C   C69       1.0  0.03850  0.70439  0.60667  1.0000 -0.3393995168
C   C70       1.0  0.29561  0.39333  0.96150  1.0000 -0.3393995168
C   C71       1.0  0.39333  0.96150  0.29561  1.0000 -0.3393995168
C   C72       1.0  0.96150  0.29561  0.39333  1.0000 -0.3393995168
C   C73       1.0  0.69914  0.69958  0.08800  1.0000 0.3079115766
C   C74       1.0  0.69958  0.08800  0.69914  1.0000 0.3079115766
C   C75       1.0  0.08800  0.69914  0.69958  1.0000 0.3079115766
C   C76       1.0  0.30086  0.30042  0.91200  1.0000 0.3079115766
C   C77       1.0  0.30042  0.91200  0.30086  1.0000 0.3079115766
C   C78       1.0  0.91200  0.30086  0.30042  1.0000 0.3079115766
C   C79       1.0  0.39307  0.29559  0.96118  1.0000 -0.3393995168
C   C80       1.0  0.29559  0.96118  0.39307  1.0000 -0.3393995168
C   C81       1.0  0.96118  0.39307  0.29559  1.0000 -0.3393995168
C   C82       1.0  0.60693  0.70441  0.03882  1.0000 -0.3393995168
C   C83       1.0  0.70441  0.03882  0.60693  1.0000 -0.3393995168
C   C84       1.0  0.03882  0.60693  0.70441  1.0000 -0.3393995168
C   C85       1.0  0.71098  0.71102  0.18640  1.0000 -0.4696969546
C   C86       1.0  0.71102  0.18640  0.71098  1.0000 -0.4696969546
C   C87       1.0  0.18640  0.71098  0.71102  1.0000 -0.4696969546
C   C88       1.0  0.28902  0.28898  0.81360  1.0000 -0.4696969546
C   C89       1.0  0.28898  0.81360  0.28902  1.0000 -0.4696969546
C   C90       1.0  0.81360  0.28902  0.28898  1.0000 -0.4696969546
C   C91       1.0  0.77514  0.77506  0.08490  1.0000 -0.4621087364
C   C92       1.0  0.77506  0.08490  0.77514  1.0000 -0.4621087364
C   C93       1.0  0.08490  0.77514  0.77506  1.0000 -0.4549314908
C   C94       1.0  0.22486  0.22494  0.91510  1.0000 -0.4549314908
C   C95       1.0  0.22494  0.91510  0.22486  1.0000 -0.4621087364
C   C96       1.0  0.91510  0.22486  0.22494  1.0000 -0.4549314908
I   I1        1.0  0.73861  0.26139  0.00000  1.0000 -0.4621087364
I   I2        1.0  0.26139  0.00000  0.73861  1.0000 -0.4621087364
I   I3        1.0  0.00000  0.73861  0.26139  1.0000 -0.4621087364
I   I4        1.0  0.26139  0.73861  0.00000  1.0000 -0.4621087364
I   I5        1.0  0.73861  0.00000  0.26139  1.0000 -0.4621087364
I   I6        1.0  0.00000  0.26139  0.73861  1.0000 -0.4621087364
I   I7        1.0  0.76193  0.49999  0.23803  1.0000 -0.4388149959
I   I8        1.0  0.49999  0.23803  0.76193  1.0000 -0.4388149959
I   I9        1.0  0.23803  0.76193  0.49999  1.0000 -0.4388149959
I   I10       1.0  0.23807  0.50001  0.76197  1.0000 -0.4388149959
I   I11       1.0  0.50001  0.76197  0.23807  1.0000 -0.4388149959
I   I12       1.0  0.76197  0.23807  0.50001  1.0000 -0.4388149959
N   N1        1.0  0.87030  0.48733  0.05322  1.0000 -0.1393345899
N   N2        1.0  0.48733  0.05322  0.87030  1.0000 -0.1393345899
N   N3        1.0  0.05322  0.87030  0.48733  1.0000 -0.1393345899
N   N4        1.0  0.12970  0.51267  0.94678  1.0000 -0.1393345899
N   N5        1.0  0.51267  0.94678  0.12970  1.0000 -0.1393345899
N   N6        1.0  0.94678  0.12970  0.51267  1.0000 -0.1393345899
N   N7        1.0  0.94641  0.51238  0.12939  1.0000 -0.1393345899
N   N8        1.0  0.51238  0.12939  0.94641  1.0000 -0.1393345899
N   N9        1.0  0.12939  0.94641  0.51238  1.0000 -0.1393345899
N   N10       1.0  0.05359  0.48762  0.87061  1.0000 -0.1393345899
N   N11       1.0  0.48762  0.87061  0.05359  1.0000 -0.1393345899
N   N12       1.0  0.87061  0.05359  0.48762  1.0000 -0.1393345899
N   N13       1.0  0.55299  0.37061  0.98820  1.0000 -0.1393345899
N   N14       1.0  0.37061  0.98820  0.55299  1.0000 -0.1393345899
N   N15       1.0  0.98820  0.55299  0.37061  1.0000 -0.1393345899
N   N16       1.0  0.44701  0.62939  0.01180  1.0000 -0.1393345899
N   N17       1.0  0.62939  0.01180  0.44701  1.0000 -0.1393345899
N   N18       1.0  0.01180  0.44701  0.62939  1.0000 -0.1393345899
N   N19       1.0  0.62936  0.44698  0.01195  1.0000 -0.1393345899
N   N20       1.0  0.44698  0.01195  0.62936  1.0000 -0.1393345899
N   N21       1.0  0.01195  0.62936  0.44698  1.0000 -0.1393345899
N   N22       1.0  0.37064  0.55302  0.98805  1.0000 -0.1393345899
N   N23       1.0  0.55302  0.98805  0.37064  1.0000 -0.1393345899
N   N24       1.0  0.98805  0.37064  0.55302  1.0000 -0.1393345899
