# DDEC6 charges by PACMAN v1.1 (https://github.com/mtap-research/PACMAN-charge/)
data_2005[Zn][pcu]3[FSR]14
_chemical_formula_sum              "Zn3 H24 C38 O14"
_cell_length_a       10.327
_cell_length_b       11.067
_cell_length_c       11.692
_cell_angle_alpha    112.33
_cell_angle_beta     97.31
_cell_angle_gamma    106.79

_symmetry_space_group_name_H-M    "P 1"
_symmetry_Int_Tables_number       1

loop_
  _symmetry_equiv_pos_as_xyz
  'x, y, z'

loop_
  _atom_site_type_symbol
  _atom_site_label
  _atom_site_symmetry_multiplicity
  _atom_site_fract_x
  _atom_site_fract_y
  _atom_site_fract_z
  _atom_site_occupancy
  _atom_site_charge
Zn  Zn1       1.0  0.16664  0.83289  0.13998  1.0000 0.936659396
Zn  Zn2       1.0  0.83336  0.16711  0.86002  1.0000 0.936659396
Zn  Zn3       1.0  0.00000  0.00000  0.00000  1.0000 1.0602257851
H   H1        1.0  0.90480  0.66910  0.66400  1.0000 0.1291493231
H   H2        1.0  0.09520  0.33090  0.33600  1.0000 0.1291493231
H   H3        1.0  0.77190  0.54630  0.43200  1.0000 0.1291493231
H   H4        1.0  0.22810  0.45370  0.56800  1.0000 0.1291493231
H   H5        1.0  0.25070  0.60110  0.77620  1.0000 0.1291493231
H   H6        1.0  0.74930  0.39890  0.22380  1.0000 0.1291493231
H   H7        1.0  0.32250  0.33980  0.18000  1.0000 0.1211644601
H   H8        1.0  0.67750  0.66020  0.82000  1.0000 0.1211644601
H   H9        1.0  0.44190  0.57270  0.31450  1.0000 0.1367547992
H   H10       1.0  0.55810  0.42730  0.68550  1.0000 0.1367547992
H   H11       1.0  0.42490  0.23640  0.46510  1.0000 0.1367547992
H   H12       1.0  0.57510  0.76360  0.53490  1.0000 0.1367547992
H   H13       1.0  0.64750  0.85400  0.08580  1.0000 0.1367547992
H   H14       1.0  0.35250  0.14600  0.91420  1.0000 0.1367547992
H   H15       1.0  0.41600  0.70940  0.01690  1.0000 0.1367547992
H   H16       1.0  0.58400  0.29060  0.98310  1.0000 0.1367547992
H   H17       1.0  0.76680  0.53090  0.05990  1.0000 0.1367547992
H   H18       1.0  0.23320  0.46910  0.94010  1.0000 0.1367547992
H   H19       1.0  0.19310  0.61210  0.31100  1.0000 0.1211644601
H   H20       1.0  0.80690  0.38790  0.68900  1.0000 0.1211644601
H   H21       1.0  0.16790  0.52370  0.16350  1.0000 0.1211644601
H   H22       1.0  0.83210  0.47630  0.83650  1.0000 0.1211644601
H   H23       1.0  0.06410  0.59750  0.21320  1.0000 0.1211644601
H   H24       1.0  0.93590  0.40250  0.78680  1.0000 0.1211644601
C   C1        1.0  0.08950  0.74470  0.87530  1.0000 0.5985429886
C   C2        1.0  0.91050  0.25530  0.12470  1.0000 0.5985429886
C   C3        1.0  0.07820  0.64960  0.73960  1.0000 -0.0187482266
C   C4        1.0  0.92180  0.35040  0.26040  1.0000 -0.0187482266
C   C5        1.0  0.96830  0.62470  0.64370  1.0000 -0.1370098637
C   C6        1.0  0.03170  0.37530  0.35630  1.0000 -0.1370098637
C   C7        1.0  0.94970  0.53240  0.51400  1.0000 0.0775348696
C   C8        1.0  0.05030  0.46760  0.48600  1.0000 0.0775348696
C   C9        1.0  0.83740  0.50430  0.41360  1.0000 -0.1370098637
C   C10       1.0  0.16260  0.49570  0.58640  1.0000 -0.1370098637
C   C11       1.0  0.17660  0.58420  0.71080  1.0000 -0.0999709625
C   C12       1.0  0.82340  0.41580  0.28920  1.0000 -0.0999709625
C   C13       1.0  0.27920  0.11210  0.22170  1.0000 0.5924529139
C   C14       1.0  0.72080  0.88790  0.77830  1.0000 0.5924529139
C   C15       1.0  0.36080  0.26420  0.31110  1.0000 -0.0187482266
C   C16       1.0  0.63920  0.73580  0.68890  1.0000 -0.0187482266
C   C17       1.0  0.36660  0.36730  0.26510  1.0000 -0.0999709625
C   C18       1.0  0.63340  0.63270  0.73490  1.0000 -0.0999709625
C   C19       1.0  0.43690  0.50630  0.34580  1.0000 -0.1475444433
C   C20       1.0  0.56310  0.49370  0.65420  1.0000 -0.1475444433
C   C21       1.0  0.42670  0.30450  0.43650  1.0000 -0.1604090926
C   C22       1.0  0.57330  0.69550  0.56350  1.0000 -0.1604090926
C   C23       1.0  0.50240  0.55110  0.47670  1.0000 0.0693288076
C   C24       1.0  0.49760  0.44890  0.52330  1.0000 0.0693288076
C   C25       1.0  0.88260  0.79950  0.11480  1.0000 0.5924529139
C   C26       1.0  0.11740  0.20050  0.88520  1.0000 0.5924529139
C   C27       1.0  0.73150  0.70540  0.07800  1.0000 -0.0187482266
C   C28       1.0  0.26850  0.29460  0.92200  1.0000 -0.0187482266
C   C29       1.0  0.62380  0.75930  0.06570  1.0000 -0.0999709625
C   C30       1.0  0.37620  0.24070  0.93430  1.0000 -0.0999709625
C   C31       1.0  0.48540  0.67270  0.02470  1.0000 -0.1301530596
C   C32       1.0  0.51460  0.32730  0.97530  1.0000 -0.1301530596
C   C33       1.0  0.44630  0.52730  0.99360  1.0000 0.0693288076
C   C34       1.0  0.55370  0.47270  0.00640  1.0000 0.0693288076
C   C35       1.0  0.69600  0.56540  0.05000  1.0000 -0.1370098637
C   C36       1.0  0.30400  0.43460  0.95000  1.0000 -0.1370098637
C   C37       1.0  0.16030  0.60520  0.22740  1.0000 -0.193324655
C   C38       1.0  0.83970  0.39480  0.77260  1.0000 -0.193324655
O   O1        1.0  0.00650  0.80845  0.89271  1.0000 -0.5601246552
O   O2        1.0  0.99350  0.19155  0.10729  1.0000 -0.5601246552
O   O3        1.0  0.18100  0.75060  0.96378  1.0000 -0.5467860993
O   O4        1.0  0.81900  0.24940  0.03622  1.0000 -0.5467860993
O   O5        1.0  0.28640  0.02213  0.26416  1.0000 -0.5267802176
O   O6        1.0  0.71360  0.97787  0.73584  1.0000 -0.5267802176
O   O7        1.0  0.20870  0.07819  0.11192  1.0000 -0.5601246552
O   O8        1.0  0.79130  0.92181  0.88808  1.0000 -0.5601246552
O   O9        1.0  0.91370  0.92229  0.12441  1.0000 -0.5601246552
O   O10       1.0  0.08630  0.07771  0.87559  1.0000 -0.5601246552
O   O11       1.0  0.97290  0.74680  0.13460  1.0000 -0.5467860993
O   O12       1.0  0.02710  0.25320  0.86540  1.0000 -0.5467860993
O   O13       1.0  0.24380  0.72800  0.21910  1.0000 -0.3229486045
O   O14       1.0  0.75620  0.27200  0.78090  1.0000 -0.3229486045
