# DDEC6 charges by PACMAN v1.1 (https://github.com/mtap-research/PACMAN-charge/)
data_2005[Zn][nan]3[FSR]5
_chemical_formula_sum              "Zn6 H48 C102 O24 F36"
_cell_length_a       21.155
_cell_length_b       21.155
_cell_length_c       7.6632
_cell_angle_alpha    90
_cell_angle_beta     90
_cell_angle_gamma    120

_symmetry_space_group_name_H-M    "P 1"
_symmetry_Int_Tables_number       1

loop_
  _symmetry_equiv_pos_as_xyz
  'x, y, z'

loop_
  _atom_site_type_symbol
  _atom_site_label
  _atom_site_symmetry_multiplicity
  _atom_site_fract_x
  _atom_site_fract_y
  _atom_site_fract_z
  _atom_site_occupancy
  _atom_site_charge
Zn  Zn1       1.0  0.70023  0.40046  0.00000  1.0000 0.9119001455
Zn  Zn2       1.0  0.59954  0.29977  0.33333  1.0000 0.9119001455
Zn  Zn3       1.0  0.70023  0.29977  0.66667  1.0000 0.9119001455
Zn  Zn4       1.0  0.29977  0.59954  0.00000  1.0000 0.9119001455
Zn  Zn5       1.0  0.40046  0.70023  0.33333  1.0000 0.9119001455
Zn  Zn6       1.0  0.29977  0.70023  0.66667  1.0000 0.9119001455
H   H1        1.0  0.84910  0.25580  0.88530  1.0000 0.1203489043
H   H2        1.0  0.74420  0.59330  0.21863  1.0000 0.1203489043
H   H3        1.0  0.40670  0.15090  0.55197  1.0000 0.1203489043
H   H4        1.0  0.15090  0.74420  0.88530  1.0000 0.1203489043
H   H5        1.0  0.25580  0.40670  0.21863  1.0000 0.1203489043
H   H6        1.0  0.59330  0.84910  0.55197  1.0000 0.1203489043
H   H7        1.0  0.25580  0.84910  0.44803  1.0000 0.1203489043
H   H8        1.0  0.59330  0.74420  0.11470  1.0000 0.1203489043
H   H9        1.0  0.15090  0.40670  0.78137  1.0000 0.1203489043
H   H10       1.0  0.74420  0.15090  0.44803  1.0000 0.1203489043
H   H11       1.0  0.40670  0.25580  0.11470  1.0000 0.1203489043
H   H12       1.0  0.84910  0.59330  0.78137  1.0000 0.1203489043
H   H13       1.0  0.92980  0.33990  0.44290  1.0000 0.1203489043
H   H14       1.0  0.66010  0.58990  0.77623  1.0000 0.1203489043
H   H15       1.0  0.41010  0.07020  0.10957  1.0000 0.1203489043
H   H16       1.0  0.07020  0.66010  0.44290  1.0000 0.1203489043
H   H17       1.0  0.33990  0.41010  0.77623  1.0000 0.1203489043
H   H18       1.0  0.58990  0.92980  0.10957  1.0000 0.1203489043
H   H19       1.0  0.33990  0.92980  0.89043  1.0000 0.1203489043
H   H20       1.0  0.58990  0.66010  0.55710  1.0000 0.1203489043
H   H21       1.0  0.07020  0.41010  0.22377  1.0000 0.1203489043
H   H22       1.0  0.66010  0.07020  0.89043  1.0000 0.1203489043
H   H23       1.0  0.41010  0.33990  0.55710  1.0000 0.1203489043
H   H24       1.0  0.92980  0.58990  0.22377  1.0000 0.1203489043
H   H25       1.0  0.84380  0.36170  0.30920  1.0000 0.1292566932
H   H26       1.0  0.63830  0.48210  0.64253  1.0000 0.1292566932
H   H27       1.0  0.51790  0.15620  0.97587  1.0000 0.1292566932
H   H28       1.0  0.15620  0.63830  0.30920  1.0000 0.1292566932
H   H29       1.0  0.36170  0.51790  0.64253  1.0000 0.1292566932
H   H30       1.0  0.48210  0.84380  0.97587  1.0000 0.1292566932
H   H31       1.0  0.36170  0.84380  0.02413  1.0000 0.1292566932
H   H32       1.0  0.48210  0.63830  0.69080  1.0000 0.1292566932
H   H33       1.0  0.15620  0.51790  0.35747  1.0000 0.1292566932
H   H34       1.0  0.63830  0.15620  0.02413  1.0000 0.1292566932
H   H35       1.0  0.51790  0.36170  0.69080  1.0000 0.1292566932
H   H36       1.0  0.84380  0.48210  0.35747  1.0000 0.1292566932
H   H37       1.0  0.93500  0.23410  0.01360  1.0000 0.1203489043
H   H38       1.0  0.76590  0.70090  0.34693  1.0000 0.1203489043
H   H39       1.0  0.29910  0.06500  0.68027  1.0000 0.1203489043
H   H40       1.0  0.06500  0.76590  0.01360  1.0000 0.1203489043
H   H41       1.0  0.23410  0.29910  0.34693  1.0000 0.1203489043
H   H42       1.0  0.70090  0.93500  0.68027  1.0000 0.1203489043
H   H43       1.0  0.23410  0.93500  0.31973  1.0000 0.1203489043
H   H44       1.0  0.70090  0.76590  0.98640  1.0000 0.1203489043
H   H45       1.0  0.06500  0.29910  0.65307  1.0000 0.1203489043
H   H46       1.0  0.76590  0.06500  0.31973  1.0000 0.1203489043
H   H47       1.0  0.29910  0.23410  0.98640  1.0000 0.1203489043
H   H48       1.0  0.93500  0.70090  0.65307  1.0000 0.1203489043
C   C1        1.0  0.78110  0.32310  0.99420  1.0000 0.5907778866
C   C2        1.0  0.67690  0.45800  0.32753  1.0000 0.5907778866
C   C3        1.0  0.54200  0.21890  0.66087  1.0000 0.5907778866
C   C4        1.0  0.21890  0.67690  0.99420  1.0000 0.5907778866
C   C5        1.0  0.32310  0.54200  0.32753  1.0000 0.5907778866
C   C6        1.0  0.45800  0.78110  0.66087  1.0000 0.5907778866
C   C7        1.0  0.32310  0.78110  0.33913  1.0000 0.5907778866
C   C8        1.0  0.45800  0.67690  0.00580  1.0000 0.5907778866
C   C9        1.0  0.21890  0.54200  0.67247  1.0000 0.5907778866
C   C10       1.0  0.67690  0.21890  0.33913  1.0000 0.5907778866
C   C11       1.0  0.54200  0.32310  0.00580  1.0000 0.5907778866
C   C12       1.0  0.78110  0.45800  0.67247  1.0000 0.5907778866
C   C13       1.0  0.83720  0.31050  0.08450  1.0000 -0.0291554681
C   C14       1.0  0.68950  0.52670  0.41783  1.0000 -0.0291554681
C   C15       1.0  0.47330  0.16280  0.75117  1.0000 -0.0291554681
C   C16       1.0  0.16280  0.68950  0.08450  1.0000 -0.0291554681
C   C17       1.0  0.31050  0.47330  0.41783  1.0000 -0.0291554681
C   C18       1.0  0.52670  0.83720  0.75117  1.0000 -0.0291554681
C   C19       1.0  0.31050  0.83720  0.24883  1.0000 -0.0291554681
C   C20       1.0  0.52670  0.68950  0.91550  1.0000 -0.0291554681
C   C21       1.0  0.16280  0.47330  0.58217  1.0000 -0.0291554681
C   C22       1.0  0.68950  0.16280  0.24883  1.0000 -0.0291554681
C   C23       1.0  0.47330  0.31050  0.91550  1.0000 -0.0291554681
C   C24       1.0  0.83720  0.52670  0.58217  1.0000 -0.0291554681
C   C25       1.0  0.86530  0.27290  0.99750  1.0000 -0.0855258571
C   C26       1.0  0.72710  0.59240  0.33083  1.0000 -0.0855258571
C   C27       1.0  0.40760  0.13470  0.66417  1.0000 -0.0855258571
C   C28       1.0  0.13470  0.72710  0.99750  1.0000 -0.0855258571
C   C29       1.0  0.27290  0.40760  0.33083  1.0000 -0.0855258571
C   C30       1.0  0.59240  0.86530  0.66417  1.0000 -0.0855258571
C   C31       1.0  0.27290  0.86530  0.33583  1.0000 -0.0855258571
C   C32       1.0  0.59240  0.72710  0.00250  1.0000 -0.0855258571
C   C33       1.0  0.13470  0.40760  0.66917  1.0000 -0.0855258571
C   C34       1.0  0.72710  0.13470  0.33583  1.0000 -0.0855258571
C   C35       1.0  0.40760  0.27290  0.00250  1.0000 -0.0855258571
C   C36       1.0  0.86530  0.59240  0.66917  1.0000 -0.0855258571
C   C37       1.0  0.00000  0.27310  0.33333  1.0000 -0.2817144864
C   C38       1.0  0.72690  0.72690  0.66667  1.0000 -0.2817144864
C   C39       1.0  0.27310  0.00000  0.00000  1.0000 -0.2817144864
C   C40       1.0  0.00000  0.72690  0.33333  1.0000 -0.2817144864
C   C41       1.0  0.27310  0.27310  0.66667  1.0000 -0.2817144864
C   C42       1.0  0.72690  0.00000  0.00000  1.0000 -0.2817144864
C   C43       1.0  0.91420  0.32350  0.32990  1.0000 -0.135785829
C   C44       1.0  0.67650  0.59070  0.66323  1.0000 -0.135785829
C   C45       1.0  0.40930  0.08580  0.99657  1.0000 -0.135785829
C   C46       1.0  0.08580  0.67650  0.32990  1.0000 -0.135785829
C   C47       1.0  0.32350  0.40930  0.66323  1.0000 -0.135785829
C   C48       1.0  0.59070  0.91420  0.99657  1.0000 -0.135785829
C   C49       1.0  0.32350  0.91420  0.00343  1.0000 -0.135785829
C   C50       1.0  0.59070  0.67650  0.67010  1.0000 -0.135785829
C   C51       1.0  0.08580  0.40930  0.33677  1.0000 -0.135785829
C   C52       1.0  0.67650  0.08580  0.00343  1.0000 -0.135785829
C   C53       1.0  0.40930  0.32350  0.67010  1.0000 -0.135785829
C   C54       1.0  0.91420  0.59070  0.33677  1.0000 -0.135785829
C   C55       1.0  0.95660  0.21010  0.46200  1.0000 0.6625252343
C   C56       1.0  0.78990  0.74650  0.79533  1.0000 0.6625252343
C   C57       1.0  0.25350  0.04340  0.12867  1.0000 0.6625252343
C   C58       1.0  0.04340  0.78990  0.46200  1.0000 0.6625252343
C   C59       1.0  0.21010  0.25350  0.79533  1.0000 0.6625252343
C   C60       1.0  0.74650  0.95660  0.12867  1.0000 0.6625252343
C   C61       1.0  0.21010  0.95660  0.87133  1.0000 0.6625252343
C   C62       1.0  0.74650  0.78990  0.53800  1.0000 0.6625252343
C   C63       1.0  0.04340  0.25350  0.20467  1.0000 0.6625252343
C   C64       1.0  0.78990  0.04340  0.87133  1.0000 0.6625252343
C   C65       1.0  0.25350  0.21010  0.53800  1.0000 0.6625252343
C   C66       1.0  0.95660  0.74650  0.20467  1.0000 0.6625252343
C   C67       1.0  0.94270  0.28600  0.23750  1.0000 0.0771820038
C   C68       1.0  0.71400  0.65670  0.57083  1.0000 0.0771820038
C   C69       1.0  0.34330  0.05730  0.90417  1.0000 0.0771820038
C   C70       1.0  0.05730  0.71400  0.23750  1.0000 0.0771820038
C   C71       1.0  0.28600  0.34330  0.57083  1.0000 0.0771820038
C   C72       1.0  0.65670  0.94270  0.90417  1.0000 0.0771820038
C   C73       1.0  0.28600  0.94270  0.09583  1.0000 0.0771820038
C   C74       1.0  0.65670  0.71400  0.76250  1.0000 0.0771820038
C   C75       1.0  0.05730  0.34330  0.42917  1.0000 0.0771820038
C   C76       1.0  0.71400  0.05730  0.09583  1.0000 0.0771820038
C   C77       1.0  0.34330  0.28600  0.76250  1.0000 0.0771820038
C   C78       1.0  0.94270  0.65670  0.42917  1.0000 0.0771820038
C   C79       1.0  0.86200  0.33590  0.24970  1.0000 -0.0855258571
C   C80       1.0  0.66410  0.52610  0.58303  1.0000 -0.0855258571
C   C81       1.0  0.47390  0.13800  0.91637  1.0000 -0.0855258571
C   C82       1.0  0.13800  0.66410  0.24970  1.0000 -0.0855258571
C   C83       1.0  0.33590  0.47390  0.58303  1.0000 -0.0855258571
C   C84       1.0  0.52610  0.86200  0.91637  1.0000 -0.0855258571
C   C85       1.0  0.33590  0.86200  0.08363  1.0000 -0.0855258571
C   C86       1.0  0.52610  0.66410  0.75030  1.0000 -0.0855258571
C   C87       1.0  0.13800  0.47390  0.41697  1.0000 -0.0855258571
C   C88       1.0  0.66410  0.13800  0.08363  1.0000 -0.0855258571
C   C89       1.0  0.47390  0.33590  0.75030  1.0000 -0.0855258571
C   C90       1.0  0.86200  0.52610  0.41697  1.0000 -0.0855258571
C   C91       1.0  0.91730  0.26020  0.07390  1.0000 -0.1498589936
C   C92       1.0  0.73980  0.65710  0.40723  1.0000 -0.1498589936
C   C93       1.0  0.34290  0.08270  0.74057  1.0000 -0.1498589936
C   C94       1.0  0.08270  0.73980  0.07390  1.0000 -0.1498589936
C   C95       1.0  0.26020  0.34290  0.40723  1.0000 -0.1498589936
C   C96       1.0  0.65710  0.91730  0.74057  1.0000 -0.1498589936
C   C97       1.0  0.26020  0.91730  0.25943  1.0000 -0.1498589936
C   C98       1.0  0.65710  0.73980  0.92610  1.0000 -0.1498589936
C   C99       1.0  0.08270  0.34290  0.59277  1.0000 -0.1498589936
C   C100      1.0  0.73980  0.08270  0.25943  1.0000 -0.1498589936
C   C101      1.0  0.34290  0.26020  0.92610  1.0000 -0.1498589936
C   C102      1.0  0.91730  0.65710  0.59277  1.0000 -0.1498589936
O   O1        1.0  0.76010  0.36130  0.07880  1.0000 -0.5604842179
O   O2        1.0  0.63870  0.39880  0.41213  1.0000 -0.5604842179
O   O3        1.0  0.60120  0.23990  0.74547  1.0000 -0.5604842179
O   O4        1.0  0.23990  0.63870  0.07880  1.0000 -0.5604842179
O   O5        1.0  0.36130  0.60120  0.41213  1.0000 -0.5604842179
O   O6        1.0  0.39880  0.76010  0.74547  1.0000 -0.5604842179
O   O7        1.0  0.36130  0.76010  0.25453  1.0000 -0.5604842179
O   O8        1.0  0.39880  0.63870  0.92120  1.0000 -0.5604842179
O   O9        1.0  0.23990  0.60120  0.58787  1.0000 -0.5604842179
O   O10       1.0  0.63870  0.23990  0.25453  1.0000 -0.5604842179
O   O11       1.0  0.60120  0.36130  0.92120  1.0000 -0.5604842179
O   O12       1.0  0.76010  0.39880  0.58787  1.0000 -0.5604842179
O   O13       1.0  0.75820  0.29380  0.85190  1.0000 -0.5146249407
O   O14       1.0  0.70620  0.46440  0.18523  1.0000 -0.5146249407
O   O15       1.0  0.53560  0.24180  0.51857  1.0000 -0.5146249407
O   O16       1.0  0.24180  0.70620  0.85190  1.0000 -0.5146249407
O   O17       1.0  0.29380  0.53560  0.18523  1.0000 -0.5146249407
O   O18       1.0  0.46440  0.75820  0.51857  1.0000 -0.5146249407
O   O19       1.0  0.29380  0.75820  0.48143  1.0000 -0.5146249407
O   O20       1.0  0.46440  0.70620  0.14810  1.0000 -0.5146249407
O   O21       1.0  0.24180  0.53560  0.81477  1.0000 -0.5146249407
O   O22       1.0  0.70620  0.24180  0.48143  1.0000 -0.5146249407
O   O23       1.0  0.53560  0.29380  0.14810  1.0000 -0.5146249407
O   O24       1.0  0.75820  0.46440  0.81477  1.0000 -0.5146249407
F   F1        1.0  0.92860  0.22810  0.59160  1.0000 -0.1888977412
F   F2        1.0  0.77190  0.70050  0.92493  1.0000 -0.1888977412
F   F3        1.0  0.29950  0.07140  0.25827  1.0000 -0.1888977412
F   F4        1.0  0.07140  0.77190  0.59160  1.0000 -0.1888977412
F   F5        1.0  0.22810  0.29950  0.92493  1.0000 -0.1888977412
F   F6        1.0  0.70050  0.92860  0.25827  1.0000 -0.1888977412
F   F7        1.0  0.22810  0.92860  0.74173  1.0000 -0.1888977412
F   F8        1.0  0.70050  0.77190  0.40840  1.0000 -0.1888977412
F   F9        1.0  0.07140  0.29950  0.07507  1.0000 -0.1888977412
F   F10       1.0  0.77190  0.07140  0.74173  1.0000 -0.1888977412
F   F11       1.0  0.29950  0.22810  0.40840  1.0000 -0.1888977412
F   F12       1.0  0.92860  0.70050  0.07507  1.0000 -0.1888977412
F   F13       1.0  0.99770  0.18380  0.53040  1.0000 -0.1971247145
F   F14       1.0  0.81620  0.81390  0.86373  1.0000 -0.1971247145
F   F15       1.0  0.18610  0.00230  0.19707  1.0000 -0.1971247145
F   F16       1.0  0.00230  0.81620  0.53040  1.0000 -0.1971247145
F   F17       1.0  0.18380  0.18610  0.86373  1.0000 -0.1971247145
F   F18       1.0  0.81390  0.99770  0.19707  1.0000 -0.1971247145
F   F19       1.0  0.18380  0.99770  0.80293  1.0000 -0.1971247145
F   F20       1.0  0.81390  0.81620  0.46960  1.0000 -0.1971247145
F   F21       1.0  0.00230  0.18610  0.13627  1.0000 -0.1971247145
F   F22       1.0  0.81620  0.00230  0.80293  1.0000 -0.1971247145
F   F23       1.0  0.18610  0.18380  0.46960  1.0000 -0.1971247145
F   F24       1.0  0.99770  0.81390  0.13627  1.0000 -0.1971247145
F   F25       1.0  0.90120  0.15300  0.38030  1.0000 -0.1888977412
F   F26       1.0  0.84700  0.74820  0.71363  1.0000 -0.1888977412
F   F27       1.0  0.25180  0.09880  0.04697  1.0000 -0.1888977412
F   F28       1.0  0.09880  0.84700  0.38030  1.0000 -0.1888977412
F   F29       1.0  0.15300  0.25180  0.71363  1.0000 -0.1888977412
F   F30       1.0  0.74820  0.90120  0.04697  1.0000 -0.1888977412
F   F31       1.0  0.15300  0.90120  0.95303  1.0000 -0.1888977412
F   F32       1.0  0.74820  0.84700  0.61970  1.0000 -0.1888977412
F   F33       1.0  0.09880  0.25180  0.28637  1.0000 -0.1888977412
F   F34       1.0  0.84700  0.09880  0.95303  1.0000 -0.1888977412
F   F35       1.0  0.25180  0.15300  0.61970  1.0000 -0.1888977412
F   F36       1.0  0.90120  0.74820  0.28637  1.0000 -0.1888977412
