# DDEC6 charges by PACMAN v1.1 (https://github.com/mtap-research/PACMAN-charge/)
data_2005[Mn][lvt]2[FSR]2
_chemical_formula_sum              "Mn24 H368 C360 N72 O80"
_cell_length_a       29.9401
_cell_length_b       29.9401
_cell_length_c       29.9401
_cell_angle_alpha    95.0777
_cell_angle_beta     95.0777
_cell_angle_gamma    145.385

_symmetry_space_group_name_H-M    "P 1"
_symmetry_Int_Tables_number       1

loop_
  _symmetry_equiv_pos_as_xyz
  'x, y, z'

loop_
  _atom_site_type_symbol
  _atom_site_label
  _atom_site_symmetry_multiplicity
  _atom_site_fract_x
  _atom_site_fract_y
  _atom_site_fract_z
  _atom_site_occupancy
  _atom_site_charge
Mn  Mn1       1.0  0.37727  0.24459  0.71936  1.0000 0.9188528284
Mn  Mn2       1.0  0.90791  0.12727  0.63268  1.0000 0.9188528284
Mn  Mn3       1.0  0.49459  0.27523  0.36732  1.0000 0.9188528284
Mn  Mn4       1.0  0.52523  0.65791  0.28064  1.0000 0.9188528284
Mn  Mn5       1.0  0.87273  0.50541  0.78064  1.0000 0.9188528284
Mn  Mn6       1.0  0.34209  0.62273  0.86732  1.0000 0.9188528284
Mn  Mn7       1.0  0.75541  0.47477  0.13268  1.0000 0.9188528284
Mn  Mn8       1.0  0.72477  0.09209  0.21936  1.0000 0.9188528284
Mn  Mn9       1.0  0.41995  0.16194  0.82565  1.0000 0.8877074644
Mn  Mn10      1.0  0.84430  0.16995  0.75801  1.0000 0.8793447912
Mn  Mn11      1.0  0.41194  0.08629  0.24199  1.0000 0.8877074644
Mn  Mn12      1.0  0.33629  0.59430  0.17435  1.0000 0.8877074644
Mn  Mn13      1.0  0.83005  0.58806  0.67435  1.0000 0.8877074644
Mn  Mn14      1.0  0.40570  0.58005  0.74199  1.0000 0.8793447912
Mn  Mn15      1.0  0.83806  0.66371  0.25801  1.0000 0.8877074644
Mn  Mn16      1.0  0.91371  0.15570  0.32565  1.0000 0.8877074644
Mn  Mn17      1.0  0.54042  0.37511  0.60863  1.0000 0.8793447912
Mn  Mn18      1.0  0.18179  0.29042  0.66531  1.0000 0.8793447912
Mn  Mn19      1.0  0.62511  0.51648  0.33469  1.0000 0.8743381426
Mn  Mn20      1.0  0.76648  0.93179  0.39137  1.0000 0.8793447912
Mn  Mn21      1.0  0.70958  0.37489  0.89137  1.0000 0.8793447912
Mn  Mn22      1.0  0.06821  0.45958  0.83469  1.0000 0.8793447912
Mn  Mn23      1.0  0.62489  0.23352  0.16531  1.0000 0.8743381426
Mn  Mn24      1.0  0.48352  0.81821  0.10863  1.0000 0.8793447912
H   H1        1.0  0.16720  0.02480  0.60160  1.0000 0.1301531186
H   H2        1.0  0.81560  0.91720  0.64240  1.0000 0.1301531186
H   H3        1.0  0.27480  0.17320  0.35760  1.0000 0.1301531186
H   H4        1.0  0.42320  0.56560  0.39840  1.0000 0.1301531186
H   H5        1.0  0.08280  0.72520  0.89840  1.0000 0.1301531186
H   H6        1.0  0.43440  0.83280  0.85760  1.0000 0.1301531186
H   H7        1.0  0.97520  0.57680  0.14240  1.0000 0.1301531186
H   H8        1.0  0.82680  0.18440  0.10160  1.0000 0.1301531186
H   H9        1.0  0.06950  0.88920  0.59550  1.0000 0.1101385584
H   H10       1.0  0.72400  0.81950  0.68030  1.0000 0.1101385584
H   H11       1.0  0.13920  0.04370  0.31970  1.0000 0.1101385584
H   H12       1.0  0.29370  0.47400  0.40450  1.0000 0.1101385584
H   H13       1.0  0.18050  0.86080  0.90450  1.0000 0.1101385584
H   H14       1.0  0.52600  0.93050  0.81970  1.0000 0.1101385584
H   H15       1.0  0.11080  0.70630  0.18030  1.0000 0.1101385584
H   H16       1.0  0.95630  0.27600  0.09550  1.0000 0.1101385584
H   H17       1.0  0.06910  0.84850  0.65820  1.0000 0.1208033219
H   H18       1.0  0.66090  0.81910  0.72060  1.0000 0.1208033219
H   H19       1.0  0.09850  0.94030  0.27940  1.0000 0.1208033219
H   H20       1.0  0.19030  0.41090  0.34180  1.0000 0.1208033219
H   H21       1.0  0.18090  0.90150  0.84180  1.0000 0.1208033219
H   H22       1.0  0.58910  0.93090  0.77940  1.0000 0.1208033219
H   H23       1.0  0.15150  0.80970  0.22060  1.0000 0.1208033219
H   H24       1.0  0.05970  0.33910  0.15820  1.0000 0.1208033219
H   H25       1.0  0.18770  0.95180  0.72430  1.0000 0.1101385584
H   H26       1.0  0.71340  0.93770  0.73590  1.0000 0.1101385584
H   H27       1.0  0.20180  0.97750  0.26410  1.0000 0.1101385584
H   H28       1.0  0.22750  0.46340  0.27570  1.0000 0.1101385584
H   H29       1.0  0.06230  0.79820  0.77570  1.0000 0.1101385584
H   H30       1.0  0.53660  0.81230  0.76410  1.0000 0.1101385584
H   H31       1.0  0.04820  0.77250  0.23590  1.0000 0.1101385584
H   H32       1.0  0.02250  0.28660  0.22430  1.0000 0.1101385584
H   H33       1.0  0.53040  0.35540  0.87480  1.0000 0.1208033219
H   H34       1.0  0.90560  0.28040  0.67500  1.0000 0.1208033219
H   H35       1.0  0.60540  0.23060  0.32500  1.0000 0.1208033219
H   H36       1.0  0.48060  0.65560  0.12520  1.0000 0.1208033219
H   H37       1.0  0.71960  0.39460  0.62520  1.0000 0.1208033219
H   H38       1.0  0.34440  0.46960  0.82500  1.0000 0.1208033219
H   H39       1.0  0.64460  0.51940  0.17500  1.0000 0.1208033219
H   H40       1.0  0.76940  0.09440  0.37480  1.0000 0.1208033219
H   H41       1.0  0.59030  0.38440  0.84610  1.0000 0.1301531186
H   H42       1.0  0.99420  0.34030  0.70590  1.0000 0.1301531186
H   H43       1.0  0.63440  0.28830  0.29410  1.0000 0.1301531186
H   H44       1.0  0.53830  0.74420  0.15390  1.0000 0.1301531186
H   H45       1.0  0.65970  0.36560  0.65390  1.0000 0.1301531186
H   H46       1.0  0.25580  0.40970  0.79410  1.0000 0.1301531186
H   H47       1.0  0.61560  0.46170  0.20590  1.0000 0.1301531186
H   H48       1.0  0.71170  0.00580  0.34610  1.0000 0.1301531186
H   H49       1.0  0.56240  0.45360  0.86360  1.0000 0.1101385584
H   H50       1.0  0.94880  0.31240  0.60880  1.0000 0.1101385584
H   H51       1.0  0.70360  0.34000  0.39120  1.0000 0.1101385584
H   H52       1.0  0.59000  0.69880  0.13640  1.0000 0.1101385584
H   H53       1.0  0.68760  0.29640  0.63640  1.0000 0.1101385584
H   H54       1.0  0.30120  0.43760  0.89120  1.0000 0.1101385584
H   H55       1.0  0.54640  0.41000  0.10880  1.0000 0.1101385584
H   H56       1.0  0.66000  0.05120  0.36360  1.0000 0.1101385584
H   H57       1.0  0.64660  0.49780  0.88320  1.0000 0.1101385584
H   H58       1.0  0.01340  0.39660  0.64880  1.0000 0.1101385584
H   H59       1.0  0.74780  0.36460  0.35120  1.0000 0.1101385584
H   H60       1.0  0.61460  0.76340  0.11680  1.0000 0.1101385584
H   H61       1.0  0.60340  0.25220  0.61680  1.0000 0.1101385584
H   H62       1.0  0.23660  0.35340  0.85120  1.0000 0.1101385584
H   H63       1.0  0.50220  0.38540  0.14880  1.0000 0.1101385584
H   H64       1.0  0.63540  0.98660  0.38320  1.0000 0.1101385584
H   H65       1.0  0.61380  0.47800  0.82880  1.0000 0.1301531186
H   H66       1.0  0.03500  0.36380  0.63580  1.0000 0.1301531186
H   H67       1.0  0.72800  0.39920  0.36420  1.0000 0.1301531186
H   H68       1.0  0.64920  0.78500  0.17120  1.0000 0.1301531186
H   H69       1.0  0.63620  0.27200  0.67120  1.0000 0.1301531186
H   H70       1.0  0.21500  0.38620  0.86420  1.0000 0.1301531186
H   H71       1.0  0.52200  0.35080  0.13580  1.0000 0.1301531186
H   H72       1.0  0.60080  0.96500  0.32880  1.0000 0.1301531186
H   H73       1.0  0.38500  0.32560  0.79420  1.0000 0.1301531186
H   H74       1.0  0.84080  0.13500  0.55940  1.0000 0.1301531186
H   H75       1.0  0.57560  0.28140  0.44060  1.0000 0.1301531186
H   H76       1.0  0.53140  0.59080  0.20580  1.0000 0.1301531186
H   H77       1.0  0.86500  0.42440  0.70580  1.0000 0.1301531186
H   H78       1.0  0.40920  0.61500  0.94060  1.0000 0.1301531186
H   H79       1.0  0.67440  0.46860  0.05940  1.0000 0.1301531186
H   H80       1.0  0.71860  0.15920  0.29420  1.0000 0.1301531186
H   H81       1.0  0.31750  0.34620  0.86590  1.0000 0.1461007938
H   H82       1.0  0.70160  0.06750  0.47130  1.0000 0.1461007938
H   H83       1.0  0.59620  0.23030  0.52870  1.0000 0.1461007938
H   H84       1.0  0.48030  0.45160  0.13410  1.0000 0.1461007938
H   H85       1.0  0.93250  0.40380  0.63410  1.0000 0.1461007938
H   H86       1.0  0.54840  0.68250  0.02870  1.0000 0.1461007938
H   H87       1.0  0.65380  0.51970  0.97130  1.0000 0.1461007938
H   H88       1.0  0.76970  0.29840  0.36590  1.0000 0.1461007938
H   H89       1.0  0.39540  0.38030  0.86570  1.0000 0.1405770868
H   H90       1.0  0.77970  0.14540  0.51510  1.0000 0.1405770868
H   H91       1.0  0.63030  0.26460  0.48490  1.0000 0.1405770868
H   H92       1.0  0.51460  0.52970  0.13430  1.0000 0.1405770868
H   H93       1.0  0.85460  0.36970  0.63430  1.0000 0.1405770868
H   H94       1.0  0.47030  0.60460  0.98490  1.0000 0.1405770868
H   H95       1.0  0.61970  0.48540  0.01510  1.0000 0.1405770868
H   H96       1.0  0.73540  0.22030  0.36570  1.0000 0.1405770868
H   H97       1.0  0.37340  0.40250  0.83290  1.0000 0.1405770868
H   H98       1.0  0.79050  0.12340  0.47090  1.0000 0.1405770868
H   H99       1.0  0.65250  0.31960  0.52910  1.0000 0.1405770868
H   H100      1.0  0.56960  0.54050  0.16710  1.0000 0.1405770868
H   H101      1.0  0.87660  0.34750  0.66710  1.0000 0.1405770868
H   H102      1.0  0.45950  0.62660  0.02910  1.0000 0.1405770868
H   H103      1.0  0.59750  0.43040  0.97090  1.0000 0.1405770868
H   H104      1.0  0.68040  0.20950  0.33290  1.0000 0.1405770868
H   H105      1.0  0.19150  0.19220  0.76830  1.0000 0.1301531186
H   H106      1.0  0.67320  0.94150  0.49930  1.0000 0.1301531186
H   H107      1.0  0.44220  0.17390  0.50070  1.0000 0.1301531186
H   H108      1.0  0.42390  0.42320  0.23170  1.0000 0.1301531186
H   H109      1.0  0.05850  0.55780  0.73170  1.0000 0.1301531186
H   H110      1.0  0.57680  0.80850  0.00070  1.0000 0.1301531186
H   H111      1.0  0.80780  0.57610  0.99930  1.0000 0.1301531186
H   H112      1.0  0.82610  0.32680  0.26830  1.0000 0.1301531186
H   H113      1.0  0.20840  0.24010  0.81450  1.0000 0.1301531186
H   H114      1.0  0.64390  0.95840  0.46830  1.0000 0.1301531186
H   H115      1.0  0.49010  0.17560  0.53170  1.0000 0.1301531186
H   H116      1.0  0.42560  0.39390  0.18550  1.0000 0.1301531186
H   H117      1.0  0.04160  0.50990  0.68550  1.0000 0.1301531186
H   H118      1.0  0.60610  0.79160  0.03170  1.0000 0.1301531186
H   H119      1.0  0.75990  0.57440  0.96830  1.0000 0.1301531186
H   H120      1.0  0.82440  0.35610  0.31450  1.0000 0.1301531186
H   H121      1.0  0.24040  0.27880  0.77160  1.0000 0.1461007938
H   H122      1.0  0.71880  0.99040  0.46160  1.0000 0.1461007938
H   H123      1.0  0.52880  0.25720  0.53840  1.0000 0.1461007938
H   H124      1.0  0.50720  0.46880  0.22840  1.0000 0.1461007938
H   H125      1.0  0.00960  0.47120  0.72840  1.0000 0.1461007938
H   H126      1.0  0.53120  0.75960  0.03840  1.0000 0.1461007938
H   H127      1.0  0.72120  0.49280  0.96160  1.0000 0.1461007938
H   H128      1.0  0.74280  0.28120  0.27160  1.0000 0.1461007938
H   H129      1.0  0.32910  0.14660  0.93930  1.0000 0.1301531186
H   H130      1.0  0.63980  0.07910  0.68250  1.0000 0.1301531186
H   H131      1.0  0.39660  0.95730  0.31750  1.0000 0.1301531186
H   H132      1.0  0.20730  0.38980  0.06070  1.0000 0.1301531186
H   H133      1.0  0.92090  0.60340  0.56070  1.0000 0.1301531186
H   H134      1.0  0.61020  0.67090  0.81750  1.0000 0.1301531186
H   H135      1.0  0.85340  0.79270  0.18250  1.0000 0.1301531186
H   H136      1.0  0.04270  0.36020  0.43930  1.0000 0.1301531186
H   H137      1.0  0.39340  0.21510  0.01790  1.0000 0.1101385584
H   H138      1.0  0.62550  0.14340  0.67830  1.0000 0.1101385584
H   H139      1.0  0.46510  0.94720  0.32170  1.0000 0.1101385584
H   H140      1.0  0.19720  0.37550  0.98210  1.0000 0.1101385584
H   H141      1.0  0.85660  0.53490  0.48210  1.0000 0.1101385584
H   H142      1.0  0.62450  0.60660  0.82170  1.0000 0.1101385584
H   H143      1.0  0.78490  0.80280  0.17830  1.0000 0.1101385584
H   H144      1.0  0.05280  0.37450  0.51790  1.0000 0.1101385584
H   H145      1.0  0.53130  0.31270  0.05000  1.0000 0.1208033219
H   H146      1.0  0.73130  0.28130  0.71860  1.0000 0.1208033219
H   H147      1.0  0.56270  0.01270  0.28140  1.0000 0.1208033219
H   H148      1.0  0.26270  0.48130  0.95000  1.0000 0.1208033219
H   H149      1.0  0.71870  0.43730  0.45000  1.0000 0.1208033219
H   H150      1.0  0.51870  0.46870  0.78140  1.0000 0.1208033219
H   H151      1.0  0.68730  0.73730  0.21860  1.0000 0.1208033219
H   H152      1.0  0.98730  0.26870  0.55000  1.0000 0.1208033219
H   H153      1.0  0.60570  0.34280  0.00130  1.0000 0.1101385584
H   H154      1.0  0.85440  0.35570  0.76290  1.0000 0.1101385584
H   H155      1.0  0.59280  0.09150  0.23710  1.0000 0.1101385584
H   H156      1.0  0.34150  0.60440  0.99870  1.0000 0.1101385584
H   H157      1.0  0.64430  0.40720  0.49870  1.0000 0.1101385584
H   H158      1.0  0.39560  0.39430  0.73710  1.0000 0.1101385584
H   H159      1.0  0.65720  0.65850  0.26290  1.0000 0.1101385584
H   H160      1.0  0.90850  0.14560  0.50130  1.0000 0.1101385584
H   H161      1.0  0.60460  0.26170  0.75110  1.0000 0.1405770868
H   H162      1.0  0.10350  0.35460  0.84290  1.0000 0.1405770868
H   H163      1.0  0.51170  0.26060  0.15710  1.0000 0.1405770868
H   H164      1.0  0.51060  0.85350  0.24890  1.0000 0.1405770868
H   H165      1.0  0.64540  0.48830  0.74890  1.0000 0.1405770868
H   H166      1.0  0.14650  0.39540  0.65710  1.0000 0.1405770868
H   H167      1.0  0.73830  0.48940  0.34290  1.0000 0.1405770868
H   H168      1.0  0.73940  0.89650  0.25110  1.0000 0.1405770868
H   H169      1.0  0.63310  0.25210  0.79140  1.0000 0.1301531186
H   H170      1.0  0.09170  0.38310  0.88100  1.0000 0.1301531186
H   H171      1.0  0.50210  0.21070  0.11900  1.0000 0.1301531186
H   H172      1.0  0.46070  0.84170  0.20860  1.0000 0.1301531186
H   H173      1.0  0.61690  0.49790  0.70860  1.0000 0.1301531186
H   H174      1.0  0.15830  0.36690  0.61900  1.0000 0.1301531186
H   H175      1.0  0.74790  0.53930  0.38100  1.0000 0.1301531186
H   H176      1.0  0.78930  0.90830  0.29140  1.0000 0.1301531186
H   H177      1.0  0.48220  0.11720  0.71880  1.0000 0.1208033219
H   H178      1.0  0.01340  0.23220  0.86500  1.0000 0.1208033219
H   H179      1.0  0.36720  0.14840  0.13500  1.0000 0.1208033219
H   H180      1.0  0.39840  0.76340  0.28120  1.0000 0.1208033219
H   H181      1.0  0.76780  0.63280  0.78120  1.0000 0.1208033219
H   H182      1.0  0.23660  0.51780  0.63500  1.0000 0.1208033219
H   H183      1.0  0.88280  0.60160  0.36500  1.0000 0.1208033219
H   H184      1.0  0.85160  0.98660  0.21880  1.0000 0.1208033219
H   H185      1.0  0.56150  0.15320  0.72030  1.0000 0.1101385584
H   H186      1.0  0.09120  0.31150  0.90830  1.0000 0.1101385584
H   H187      1.0  0.40320  0.18290  0.09170  1.0000 0.1101385584
H   H188      1.0  0.43290  0.84120  0.27970  1.0000 0.1101385584
H   H189      1.0  0.68850  0.59680  0.77970  1.0000 0.1101385584
H   H190      1.0  0.15880  0.43850  0.59170  1.0000 0.1101385584
H   H191      1.0  0.84680  0.56710  0.40830  1.0000 0.1101385584
H   H192      1.0  0.81710  0.90880  0.22030  1.0000 0.1101385584
H   H193      1.0  0.51320  0.10910  0.75850  1.0000 0.1208033219
H   H194      1.0  0.00470  0.26320  0.90410  1.0000 0.1208033219
H   H195      1.0  0.35910  0.10060  0.09590  1.0000 0.1208033219
H   H196      1.0  0.35060  0.75470  0.24150  1.0000 0.1208033219
H   H197      1.0  0.73680  0.64090  0.74150  1.0000 0.1208033219
H   H198      1.0  0.24530  0.48680  0.59590  1.0000 0.1208033219
H   H199      1.0  0.89090  0.64940  0.40410  1.0000 0.1208033219
H   H200      1.0  0.89940  0.99530  0.25850  1.0000 0.1208033219
H   H201      1.0  0.42920  0.09190  0.89170  1.0000 0.1101385584
H   H202      1.0  0.78750  0.17920  0.83730  1.0000 0.1101385584
H   H203      1.0  0.34190  0.95020  0.16270  1.0000 0.1101385584
H   H204      1.0  0.20020  0.53750  0.10830  1.0000 0.1101385584
H   H205      1.0  0.82080  0.65810  0.60830  1.0000 0.1101385584
H   H206      1.0  0.46250  0.57080  0.66270  1.0000 0.1101385584
H   H207      1.0  0.90810  0.79980  0.33730  1.0000 0.1101385584
H   H208      1.0  0.04980  0.21250  0.39170  1.0000 0.1101385584
H   H209      1.0  0.38800  0.98580  0.89480  1.0000 0.1405770868
H   H210      1.0  0.74320  0.13800  0.90220  1.0000 0.1405770868
H   H211      1.0  0.23580  0.84100  0.09780  1.0000 0.1405770868
H   H212      1.0  0.09100  0.49320  0.10520  1.0000 0.1405770868
H   H213      1.0  0.86200  0.76420  0.60520  1.0000 0.1405770868
H   H214      1.0  0.50680  0.61200  0.59780  1.0000 0.1405770868
H   H215      1.0  0.01420  0.90900  0.40220  1.0000 0.1405770868
H   H216      1.0  0.15900  0.25680  0.39480  1.0000 0.1405770868
H   H217      1.0  0.27450  0.88650  0.76180  1.0000 0.1405770868
H   H218      1.0  0.76270  0.02450  0.88800  1.0000 0.1405770868
H   H219      1.0  0.13650  0.87470  0.11200  1.0000 0.1405770868
H   H220      1.0  0.12470  0.51270  0.23820  1.0000 0.1405770868
H   H221      1.0  0.97550  0.86350  0.73820  1.0000 0.1405770868
H   H222      1.0  0.48730  0.72550  0.61200  1.0000 0.1405770868
H   H223      1.0  0.11350  0.87530  0.38800  1.0000 0.1405770868
H   H224      1.0  0.12530  0.23730  0.26180  1.0000 0.1405770868
H   H225      1.0  0.32230  0.99850  0.76020  1.0000 0.1208033219
H   H226      1.0  0.81210  0.07230  0.82380  1.0000 0.1208033219
H   H227      1.0  0.24850  0.98830  0.17620  1.0000 0.1208033219
H   H228      1.0  0.23830  0.56210  0.23980  1.0000 0.1208033219
H   H229      1.0  0.92770  0.75150  0.73980  1.0000 0.1208033219
H   H230      1.0  0.43790  0.67770  0.67620  1.0000 0.1208033219
H   H231      1.0  0.00150  0.76170  0.32380  1.0000 0.1208033219
H   H232      1.0  0.01170  0.18790  0.26020  1.0000 0.1208033219
H   H233      1.0  0.28540  0.84590  0.87090  1.0000 0.1208033219
H   H234      1.0  0.66450  0.03540  0.93950  1.0000 0.1208033219
H   H235      1.0  0.09590  0.72500  0.06050  1.0000 0.1208033219
H   H236      1.0  0.97500  0.41450  0.12910  1.0000 0.1208033219
H   H237      1.0  0.96460  0.90410  0.62910  1.0000 0.1208033219
H   H238      1.0  0.58550  0.71460  0.56050  1.0000 0.1208033219
H   H239      1.0  0.15410  0.02500  0.43950  1.0000 0.1208033219
H   H240      1.0  0.27500  0.33550  0.37090  1.0000 0.1208033219
H   H241      1.0  0.31810  0.85340  0.82830  1.0000 0.1208033219
H   H242      1.0  0.73980  0.06810  0.96470  1.0000 0.1208033219
H   H243      1.0  0.10340  0.77510  0.03530  1.0000 0.1208033219
H   H244      1.0  0.02510  0.48980  0.17170  1.0000 0.1208033219
H   H245      1.0  0.93190  0.89660  0.67170  1.0000 0.1208033219
H   H246      1.0  0.51020  0.68190  0.53530  1.0000 0.1208033219
H   H247      1.0  0.14660  0.97490  0.46470  1.0000 0.1208033219
H   H248      1.0  0.22490  0.26020  0.32830  1.0000 0.1208033219
H   H249      1.0  0.51250  0.47990  0.55080  1.0000 0.1301531186
H   H250      1.0  0.21170  0.26250  0.53260  1.0000 0.1301531186
H   H251      1.0  0.72990  0.67910  0.46740  1.0000 0.1301531186
H   H252      1.0  0.92910  0.96170  0.44920  1.0000 0.1301531186
H   H253      1.0  0.73750  0.27010  0.94920  1.0000 0.1301531186
H   H254      1.0  0.03830  0.48750  0.96740  1.0000 0.1301531186
H   H255      1.0  0.52010  0.07090  0.03260  1.0000 0.1301531186
H   H256      1.0  0.32090  0.78830  0.05080  1.0000 0.1301531186
H   H257      1.0  0.43070  0.47300  0.55970  1.0000 0.0973953493
H   H258      1.0  0.12100  0.18070  0.45770  1.0000 0.0973953493
H   H259      1.0  0.72300  0.66330  0.54230  1.0000 0.0973953493
H   H260      1.0  0.91330  0.87100  0.44030  1.0000 0.0973953493
H   H261      1.0  0.81930  0.27700  0.94030  1.0000 0.0973953493
H   H262      1.0  0.12900  0.56930  0.04230  1.0000 0.0973953493
H   H263      1.0  0.52700  0.08670  0.95770  1.0000 0.0973953493
H   H264      1.0  0.33670  0.87900  0.05970  1.0000 0.0973953493
H   H265      1.0  0.35120  0.40740  0.61240  1.0000 0.1208033219
H   H266      1.0  0.98880  0.10120  0.44380  1.0000 0.1208033219
H   H267      1.0  0.65740  0.54500  0.55620  1.0000 0.1208033219
H   H268      1.0  0.79500  0.73880  0.38760  1.0000 0.1208033219
H   H269      1.0  0.89880  0.34260  0.88760  1.0000 0.1208033219
H   H270      1.0  0.26120  0.64880  0.05620  1.0000 0.1208033219
H   H271      1.0  0.59260  0.20500  0.94380  1.0000 0.1208033219
H   H272      1.0  0.45500  0.01120  0.11240  1.0000 0.1208033219
H   H273      1.0  0.35710  0.35170  0.65640  1.0000 0.1101385584
H   H274      1.0  0.95070  0.10710  0.50540  1.0000 0.1101385584
H   H275      1.0  0.60170  0.44530  0.49460  1.0000 0.1101385584
H   H276      1.0  0.69530  0.70070  0.34360  1.0000 0.1101385584
H   H277      1.0  0.89290  0.39830  0.84360  1.0000 0.1101385584
H   H278      1.0  0.29930  0.64290  0.99460  1.0000 0.1101385584
H   H279      1.0  0.64830  0.30470  0.00540  1.0000 0.1101385584
H   H280      1.0  0.55470  0.04930  0.15640  1.0000 0.1101385584
H   H281      1.0  0.48170  0.23760  0.71950  1.0000 0.1301531186
H   H282      1.0  0.01220  0.23170  0.74410  1.0000 0.1301531186
H   H283      1.0  0.48760  0.26810  0.25590  1.0000 0.1301531186
H   H284      1.0  0.51810  0.76220  0.28050  1.0000 0.1301531186
H   H285      1.0  0.76830  0.51240  0.78050  1.0000 0.1301531186
H   H286      1.0  0.23780  0.51830  0.75590  1.0000 0.1301531186
H   H287      1.0  0.76240  0.48190  0.24410  1.0000 0.1301531186
H   H288      1.0  0.73190  0.98780  0.21950  1.0000 0.1301531186
H   H289      1.0  0.54790  0.26950  0.69620  1.0000 0.1301531186
H   H290      1.0  0.10170  0.29790  0.77840  1.0000 0.1301531186
H   H291      1.0  0.51950  0.32330  0.22160  1.0000 0.1301531186
H   H292      1.0  0.57330  0.85170  0.30380  1.0000 0.1301531186
H   H293      1.0  0.70210  0.48050  0.80380  1.0000 0.1301531186
H   H294      1.0  0.14830  0.45210  0.72160  1.0000 0.1301531186
H   H295      1.0  0.73050  0.42670  0.27840  1.0000 0.1301531186
H   H296      1.0  0.67670  0.89830  0.19620  1.0000 0.1301531186
H   H297      1.0  0.37130  0.12110  0.65220  1.0000 0.1208033219
H   H298      1.0  0.96910  0.12130  0.75020  1.0000 0.1208033219
H   H299      1.0  0.37110  0.21890  0.24980  1.0000 0.1208033219
H   H300      1.0  0.46890  0.71910  0.34780  1.0000 0.1208033219
H   H301      1.0  0.87870  0.62890  0.84780  1.0000 0.1208033219
H   H302      1.0  0.28090  0.62870  0.74980  1.0000 0.1208033219
H   H303      1.0  0.87890  0.53110  0.25020  1.0000 0.1208033219
H   H304      1.0  0.78110  0.03090  0.15220  1.0000 0.1208033219
H   H305      1.0  0.42520  0.12270  0.66790  1.0000 0.1301531186
H   H306      1.0  0.00730  0.17520  0.80250  1.0000 0.1301531186
H   H307      1.0  0.37270  0.20480  0.19750  1.0000 0.1301531186
H   H308      1.0  0.45480  0.75730  0.33210  1.0000 0.1301531186
H   H309      1.0  0.82480  0.62730  0.83210  1.0000 0.1301531186
H   H310      1.0  0.24270  0.57480  0.69750  1.0000 0.1301531186
H   H311      1.0  0.87730  0.54520  0.30250  1.0000 0.1301531186
H   H312      1.0  0.79520  0.99270  0.16790  1.0000 0.1301531186
H   H313      1.0  0.43460  0.15530  0.62450  1.0000 0.1208033219
H   H314      1.0  0.06010  0.18460  0.77930  1.0000 0.1208033219
H   H315      1.0  0.40530  0.28080  0.22070  1.0000 0.1208033219
H   H316      1.0  0.53080  0.81010  0.37550  1.0000 0.1208033219
H   H317      1.0  0.81540  0.59470  0.87550  1.0000 0.1208033219
H   H318      1.0  0.18990  0.56540  0.72070  1.0000 0.1208033219
H   H319      1.0  0.84470  0.46920  0.27930  1.0000 0.1208033219
H   H320      1.0  0.71920  0.93990  0.12450  1.0000 0.1208033219
H   H321      1.0  0.03310  0.53410  0.84960  1.0000 0.1208033219
H   H322      1.0  0.43350  0.78310  0.99900  1.0000 0.1208033219
H   H323      1.0  0.78410  0.43450  0.00100  1.0000 0.1208033219
H   H324      1.0  0.68450  0.18350  0.15040  1.0000 0.1208033219
H   H325      1.0  0.21690  0.21590  0.65040  1.0000 0.1208033219
H   H326      1.0  0.81650  0.96690  0.50100  1.0000 0.1208033219
H   H327      1.0  0.46590  0.31550  0.49900  1.0000 0.1208033219
H   H328      1.0  0.56550  0.56650  0.34960  1.0000 0.1208033219
H   H329      1.0  0.07770  0.64160  0.84170  1.0000 0.1405770868
H   H330      1.0  0.48600  0.82770  0.93610  1.0000 0.1405770868
H   H331      1.0  0.89160  0.54990  0.06390  1.0000 0.1405770868
H   H332      1.0  0.79990  0.23600  0.15830  1.0000 0.1405770868
H   H333      1.0  0.17230  0.10840  0.65830  1.0000 0.1405770868
H   H334      1.0  0.76400  0.92230  0.56390  1.0000 0.1405770868
H   H335      1.0  0.35840  0.20010  0.43610  1.0000 0.1405770868
H   H336      1.0  0.45010  0.51400  0.34170  1.0000 0.1405770868
H   H337      1.0  0.26030  0.73530  0.79940  1.0000 0.1405770868
H   H338      1.0  0.71090  0.01030  0.02500  1.0000 0.1405770868
H   H339      1.0  0.98530  0.68590  0.97500  1.0000 0.1405770868
H   H340      1.0  0.93590  0.46090  0.20060  1.0000 0.1405770868
H   H341      1.0  0.98970  0.01470  0.70060  1.0000 0.1405770868
H   H342      1.0  0.53910  0.73970  0.47500  1.0000 0.1405770868
H   H343      1.0  0.26470  0.06410  0.52500  1.0000 0.1405770868
H   H344      1.0  0.31410  0.28910  0.29940  1.0000 0.1405770868
H   H345      1.0  0.21530  0.62870  0.81200  1.0000 0.1101385584
H   H346      1.0  0.65330  0.96530  0.08660  1.0000 0.1101385584
H   H347      1.0  0.87870  0.56670  0.91340  1.0000 0.1101385584
H   H348      1.0  0.81670  0.40330  0.18800  1.0000 0.1101385584
H   H349      1.0  0.03470  0.12130  0.68800  1.0000 0.1101385584
H   H350      1.0  0.59670  0.78470  0.41340  1.0000 0.1101385584
H   H351      1.0  0.37130  0.18330  0.58660  1.0000 0.1101385584
H   H352      1.0  0.43330  0.34670  0.31200  1.0000 0.1101385584
H   H353      1.0  0.16720  0.76350  0.82050  1.0000 0.1301531186
H   H354      1.0  0.59670  0.91720  0.90370  1.0000 0.1301531186
H   H355      1.0  0.01350  0.69300  0.09630  1.0000 0.1301531186
H   H356      1.0  0.94300  0.34670  0.17950  1.0000 0.1301531186
H   H357      1.0  0.08280  0.98650  0.67950  1.0000 0.1301531186
H   H358      1.0  0.65330  0.83280  0.59630  1.0000 0.1301531186
H   H359      1.0  0.23650  0.05700  0.40370  1.0000 0.1301531186
H   H360      1.0  0.30700  0.40330  0.32050  1.0000 0.1301531186
H   H361      1.0  0.20020  0.76890  0.77870  1.0000 0.1301531186
H   H362      1.0  0.67150  0.95020  0.93130  1.0000 0.1301531186
H   H363      1.0  0.01890  0.74020  0.06870  1.0000 0.1301531186
H   H364      1.0  0.99020  0.42150  0.22130  1.0000 0.1301531186
H   H365      1.0  0.04980  0.98110  0.72130  1.0000 0.1301531186
H   H366      1.0  0.57850  0.79980  0.56870  1.0000 0.1301531186
H   H367      1.0  0.23110  0.00980  0.43130  1.0000 0.1301531186
H   H368      1.0  0.25980  0.32850  0.27870  1.0000 0.1301531186
C   C1        1.0  0.23814  0.07384  0.66838  1.0000 0.3115816563
C   C2        1.0  0.81976  0.98814  0.66430  1.0000 0.3115816563
C   C3        1.0  0.32384  0.15546  0.33570  1.0000 0.3115816563
C   C4        1.0  0.40546  0.56976  0.33162  1.0000 0.3115816563
C   C5        1.0  0.01186  0.67616  0.83162  1.0000 0.3115816563
C   C6        1.0  0.43024  0.76186  0.83570  1.0000 0.3115816563
C   C7        1.0  0.92616  0.59454  0.16430  1.0000 0.3115816563
C   C8        1.0  0.84454  0.18024  0.16838  1.0000 0.3115816563
C   C9        1.0  0.17127  0.01071  0.62718  1.0000 -0.2431084737
C   C10       1.0  0.79409  0.92127  0.66056  1.0000 -0.2431084737
C   C11       1.0  0.26071  0.13353  0.33944  1.0000 -0.2431084737
C   C12       1.0  0.38353  0.54409  0.37282  1.0000 -0.2431084737
C   C13       1.0  0.07873  0.73929  0.87282  1.0000 -0.2431084737
C   C14       1.0  0.45591  0.82873  0.83944  1.0000 -0.2431084737
C   C15       1.0  0.98929  0.61647  0.16056  1.0000 -0.2431084737
C   C16       1.0  0.86647  0.20591  0.12718  1.0000 -0.2431084737
C   C17       1.0  0.11242  0.92960  0.62382  1.0000 -0.0657336302
C   C18       1.0  0.73860  0.86242  0.68282  1.0000 -0.0657336302
C   C19       1.0  0.17960  0.05578  0.31718  1.0000 -0.0657336302
C   C20       1.0  0.30578  0.48860  0.37618  1.0000 -0.0657336302
C   C21       1.0  0.13758  0.82040  0.87618  1.0000 -0.0657336302
C   C22       1.0  0.51140  0.88758  0.81718  1.0000 -0.0657336302
C   C23       1.0  0.07040  0.69422  0.18282  1.0000 -0.0657336302
C   C24       1.0  0.94422  0.26140  0.12382  1.0000 -0.0657336302
C   C25       1.0  0.11340  0.90500  0.66000  1.0000 -0.1587679362
C   C26       1.0  0.70340  0.86340  0.70840  1.0000 -0.1587679362
C   C27       1.0  0.15500  0.99500  0.29160  1.0000 -0.1587679362
C   C28       1.0  0.24500  0.45340  0.34000  1.0000 -0.1587679362
C   C29       1.0  0.13660  0.84500  0.84000  1.0000 -0.1587679362
C   C30       1.0  0.54660  0.88660  0.79160  1.0000 -0.1587679362
C   C31       1.0  0.09500  0.75500  0.20840  1.0000 -0.1587679362
C   C32       1.0  0.00500  0.29660  0.16000  1.0000 -0.1587679362
C   C33       1.0  0.18278  0.96680  0.69998  1.0000 -0.0884646643
C   C34       1.0  0.73280  0.93278  0.71598  1.0000 -0.0884646643
C   C35       1.0  0.21680  0.01682  0.28402  1.0000 -0.0884646643
C   C36       1.0  0.26682  0.48280  0.30002  1.0000 -0.0884646643
C   C37       1.0  0.06722  0.78320  0.80002  1.0000 -0.0884646643
C   C38       1.0  0.51720  0.81722  0.78402  1.0000 -0.0884646643
C   C39       1.0  0.03320  0.73318  0.21598  1.0000 -0.0884646643
C   C40       1.0  0.98318  0.26720  0.19998  1.0000 -0.0884646643
C   C41       1.0  0.24377  0.04911  0.70368  1.0000 -0.1587679362
C   C42       1.0  0.79009  0.99377  0.69466  1.0000 -0.1587679362
C   C43       1.0  0.29911  0.09543  0.30534  1.0000 -0.1587679362
C   C44       1.0  0.34543  0.54009  0.29632  1.0000 -0.1587679362
C   C45       1.0  0.00623  0.70089  0.79632  1.0000 -0.1587679362
C   C46       1.0  0.45991  0.75623  0.80534  1.0000 -0.1587679362
C   C47       1.0  0.95089  0.65457  0.19466  1.0000 -0.1587679362
C   C48       1.0  0.90457  0.20991  0.20368  1.0000 -0.1587679362
C   C49       1.0  0.31255  0.10859  0.74654  1.0000 0.4422883689
C   C50       1.0  0.81601  0.06255  0.70396  1.0000 0.4422883689
C   C51       1.0  0.35859  0.11205  0.29604  1.0000 0.4422883689
C   C52       1.0  0.36205  0.56601  0.25346  1.0000 0.4422883689
C   C53       1.0  0.93745  0.64141  0.75346  1.0000 0.4422883689
C   C54       1.0  0.43399  0.68745  0.79604  1.0000 0.4422883689
C   C55       1.0  0.89141  0.63795  0.20396  1.0000 0.4422883689
C   C56       1.0  0.88795  0.18399  0.24654  1.0000 0.4422883689
C   C57       1.0  0.48089  0.31310  0.80421  1.0000 0.4506753516
C   C58       1.0  0.92668  0.23089  0.66779  1.0000 0.4506753516
C   C59       1.0  0.56310  0.25889  0.33221  1.0000 0.4506753516
C   C60       1.0  0.50889  0.67668  0.19579  1.0000 0.4506753516
C   C61       1.0  0.76911  0.43690  0.69579  1.0000 0.4506753516
C   C62       1.0  0.32332  0.51911  0.83221  1.0000 0.4506753516
C   C63       1.0  0.68690  0.49111  0.16779  1.0000 0.4506753516
C   C64       1.0  0.74111  0.07332  0.30421  1.0000 0.4506753516
C   C65       1.0  0.55136  0.37656  0.84772  1.0000 -0.2614339366
C   C66       1.0  0.95364  0.30136  0.67480  1.0000 -0.2614339366
C   C67       1.0  0.62656  0.27884  0.32520  1.0000 -0.2614339366
C   C68       1.0  0.52884  0.70364  0.15228  1.0000 -0.2614339366
C   C69       1.0  0.69864  0.37344  0.65228  1.0000 -0.2614339366
C   C70       1.0  0.29636  0.44864  0.82520  1.0000 -0.2614339366
C   C71       1.0  0.62344  0.47116  0.17480  1.0000 -0.2614339366
C   C72       1.0  0.72116  0.04636  0.34772  1.0000 -0.2614339366
C   C73       1.0  0.59757  0.45862  0.85659  1.0000 -0.3453393312
C   C74       1.0  0.99098  0.34757  0.63895  1.0000 -0.3453393312
C   C75       1.0  0.70862  0.35203  0.36105  1.0000 -0.3453393312
C   C76       1.0  0.60203  0.74098  0.14341  1.0000 -0.3453393312
C   C77       1.0  0.65243  0.29138  0.64341  1.0000 -0.3453393312
C   C78       1.0  0.25902  0.40243  0.86105  1.0000 -0.3453393312
C   C79       1.0  0.54138  0.39797  0.13895  1.0000 -0.3453393312
C   C80       1.0  0.64797  0.00902  0.35659  1.0000 -0.3453393312
C   C81       1.0  0.32670  0.27620  0.78370  1.0000 0.1301531186
C   C82       1.0  0.79300  0.07670  0.55050  1.0000 0.1208033219
C   C83       1.0  0.52620  0.24250  0.44950  1.0000 0.1208033219
C   C84       1.0  0.49250  0.54300  0.21630  1.0000 0.1301531186
C   C85       1.0  0.92330  0.47380  0.71630  1.0000 0.1301531186
C   C86       1.0  0.45700  0.67330  0.94950  1.0000 0.1301531186
C   C87       1.0  0.72380  0.50750  0.05050  1.0000 0.1301531186
C   C88       1.0  0.75750  0.20700  0.28370  1.0000 0.1208033219
C   C89       1.0  0.35060  0.36000  0.84640  1.0000 -0.3972387686
C   C90       1.0  0.75420  0.10060  0.49060  1.0000 -0.3972387686
C   C91       1.0  0.61000  0.26360  0.50940  1.0000 -0.3972387686
C   C92       1.0  0.51360  0.50420  0.15360  1.0000 -0.3972387686
C   C93       1.0  0.89940  0.39000  0.65360  1.0000 -0.3972387686
C   C94       1.0  0.49580  0.64940  0.00940  1.0000 -0.3972387686
C   C95       1.0  0.64000  0.48640  0.99060  1.0000 -0.3972387686
C   C96       1.0  0.73640  0.24580  0.34640  1.0000 -0.3972387686
C   C97       1.0  0.23070  0.24640  0.78930  1.0000 -0.2120612778
C   C98       1.0  0.69140  0.98070  0.48430  1.0000 -0.2120612778
C   C99       1.0  0.49640  0.20710  0.51570  1.0000 -0.2120612778
C   C100      1.0  0.45710  0.44140  0.21070  1.0000 -0.2120612778
C   C101      1.0  0.01930  0.50360  0.71070  1.0000 -0.2120612778
C   C102      1.0  0.55860  0.76930  0.01570  1.0000 -0.2120612778
C   C103      1.0  0.75360  0.54290  0.98430  1.0000 -0.2120612778
C   C104      1.0  0.79290  0.30860  0.28930  1.0000 -0.2120612778
C   C105      1.0  0.42863  0.20294  0.92057  1.0000 0.3115816563
C   C106      1.0  0.75806  0.17863  0.72569  1.0000 0.3115816563
C   C107      1.0  0.45294  0.03237  0.27431  1.0000 0.3115816563
C   C108      1.0  0.28237  0.50806  0.07943  1.0000 0.3115816563
C   C109      1.0  0.82137  0.54706  0.57943  1.0000 0.3115816563
C   C110      1.0  0.49194  0.57137  0.77431  1.0000 0.3115816563
C   C111      1.0  0.79706  0.71763  0.22569  1.0000 0.3115816563
C   C112      1.0  0.96763  0.24194  0.42057  1.0000 0.3115816563
C   C113      1.0  0.38547  0.18646  0.95133  1.0000 -0.222032737
C   C114      1.0  0.68414  0.13547  0.69901  1.0000 -0.222032737
C   C115      1.0  0.43646  0.98513  0.30099  1.0000 -0.222032737
C   C116      1.0  0.23513  0.43414  0.04867  1.0000 -0.222032737
C   C117      1.0  0.86453  0.56354  0.54867  1.0000 -0.222032737
C   C118      1.0  0.56586  0.61453  0.80099  1.0000 -0.222032737
C   C119      1.0  0.81354  0.76487  0.19901  1.0000 -0.222032737
C   C120      1.0  0.01487  0.31586  0.45133  1.0000 -0.222032737
C   C121      1.0  0.42380  0.22712  0.99812  1.0000 -0.0642334745
C   C122      1.0  0.67568  0.17380  0.69668  1.0000 -0.0642334745
C   C123      1.0  0.47712  0.97900  0.30332  1.0000 -0.0642334745
C   C124      1.0  0.22900  0.42568  0.00188  1.0000 -0.0642334745
C   C125      1.0  0.82620  0.52288  0.50188  1.0000 -0.0642334745
C   C126      1.0  0.57432  0.57620  0.80332  1.0000 -0.0642334745
C   C127      1.0  0.77288  0.77100  0.19668  1.0000 -0.0642334745
C   C128      1.0  0.02100  0.32432  0.49812  1.0000 -0.0642334745
C   C129      1.0  0.50577  0.28539  0.01736  1.0000 -0.1540514575
C   C130      1.0  0.73841  0.25577  0.72038  1.0000 -0.1540514575
C   C131      1.0  0.53539  0.01803  0.27962  1.0000 -0.1540514575
C   C132      1.0  0.26803  0.48841  0.98264  1.0000 -0.1540514575
C   C133      1.0  0.74423  0.46461  0.48264  1.0000 -0.1540514575
C   C134      1.0  0.51159  0.49423  0.77962  1.0000 -0.1540514575
C   C135      1.0  0.71461  0.73197  0.22038  1.0000 -0.1540514575
C   C136      1.0  0.98197  0.26159  0.51736  1.0000 -0.1540514575
C   C137      1.0  0.54953  0.30298  0.98831  1.0000 -0.1001815237
C   C138      1.0  0.81122  0.29953  0.74655  1.0000 -0.1001815237
C   C139      1.0  0.55298  0.06467  0.25345  1.0000 -0.1001815237
C   C140      1.0  0.31467  0.56122  0.01169  1.0000 -0.1001815237
C   C141      1.0  0.70047  0.44702  0.51169  1.0000 -0.1001815237
C   C142      1.0  0.43878  0.45047  0.75345  1.0000 -0.1001815237
C   C143      1.0  0.69702  0.68533  0.24655  1.0000 -0.1001815237
C   C144      1.0  0.93533  0.18878  0.48831  1.0000 -0.1001815237
C   C145      1.0  0.51280  0.26304  0.93964  1.0000 -0.1587679362
C   C146      1.0  0.82316  0.26280  0.74976  1.0000 -0.1587679362
C   C147      1.0  0.51304  0.07340  0.25024  1.0000 -0.1587679362
C   C148      1.0  0.32340  0.57316  0.06036  1.0000 -0.1587679362
C   C149      1.0  0.73720  0.48696  0.56036  1.0000 -0.1587679362
C   C150      1.0  0.42684  0.48720  0.75024  1.0000 -0.1587679362
C   C151      1.0  0.73696  0.67660  0.24976  1.0000 -0.1587679362
C   C152      1.0  0.92660  0.17684  0.43964  1.0000 -0.1587679362
C   C153      1.0  0.56305  0.28293  0.91146  1.0000 0.4340485707
C   C154      1.0  0.90159  0.31305  0.78012  1.0000 0.4340485707
C   C155      1.0  0.53293  0.12147  0.21988  1.0000 0.4340485707
C   C156      1.0  0.37147  0.65159  0.08854  1.0000 0.4340485707
C   C157      1.0  0.68695  0.46707  0.58854  1.0000 0.4340485707
C   C158      1.0  0.34841  0.43695  0.71988  1.0000 0.4340485707
C   C159      1.0  0.71707  0.62853  0.28012  1.0000 0.4340485707
C   C160      1.0  0.87853  0.09841  0.41146  1.0000 0.4340485707
C   C161      1.0  0.54346  0.22024  0.80050  1.0000 0.4506753516
C   C162      1.0  0.99296  0.29346  0.82322  1.0000 0.4506753516
C   C163      1.0  0.47024  0.16974  0.17678  1.0000 0.4506753516
C   C164      1.0  0.41974  0.74296  0.19950  1.0000 0.4506753516
C   C165      1.0  0.70654  0.52976  0.69950  1.0000 0.4506753516
C   C166      1.0  0.25704  0.45654  0.67678  1.0000 0.4506753516
C   C167      1.0  0.77976  0.58026  0.32322  1.0000 0.4506753516
C   C168      1.0  0.83026  0.00704  0.30050  1.0000 0.4506753516
C   C169      1.0  0.58461  0.22578  0.77079  1.0000 -0.2488434426
C   C170      1.0  0.06382  0.33461  0.85883  1.0000 -0.2488434426
C   C171      1.0  0.47578  0.20499  0.14117  1.0000 -0.2488434426
C   C172      1.0  0.45499  0.81382  0.22921  1.0000 -0.2488434426
C   C173      1.0  0.66539  0.52422  0.72921  1.0000 -0.2488434426
C   C174      1.0  0.18618  0.41539  0.64117  1.0000 -0.2488434426
C   C175      1.0  0.77422  0.54501  0.35883  1.0000 -0.2488434426
C   C176      1.0  0.79501  0.93618  0.27079  1.0000 -0.2488434426
C   C177      1.0  0.53060  0.14407  0.73927  1.0000 -0.3321446236
C   C178      1.0  0.04133  0.28060  0.88653  1.0000 -0.3321446236
C   C179      1.0  0.39407  0.15480  0.11347  1.0000 -0.3321446236
C   C180      1.0  0.40480  0.79133  0.26073  1.0000 -0.3321446236
C   C181      1.0  0.71940  0.60593  0.76073  1.0000 -0.3321446236
C   C182      1.0  0.20867  0.46940  0.61347  1.0000 -0.3321446236
C   C183      1.0  0.85593  0.59520  0.38653  1.0000 -0.3321446236
C   C184      1.0  0.84520  0.95867  0.23927  1.0000 -0.3321446236
C   C185      1.0  0.39074  0.04620  0.86454  1.0000 0.0973953493
C   C186      1.0  0.77620  0.14074  0.84454  1.0000 0.0973953493
C   C187      1.0  0.29620  0.93166  0.15546  1.0000 0.0973953493
C   C188      1.0  0.18166  0.52620  0.13546  1.0000 0.0973953493
C   C189      1.0  0.85926  0.70380  0.63546  1.0000 0.0973953493
C   C190      1.0  0.47380  0.60926  0.65546  1.0000 0.0973953493
C   C191      1.0  0.95380  0.81834  0.34454  1.0000 0.0973953493
C   C192      1.0  0.06834  0.22380  0.36454  1.0000 0.0973953493
C   C193      1.0  0.36518  0.98130  0.86708  1.0000 -0.2039742731
C   C194      1.0  0.74810  0.11518  0.88388  1.0000 -0.2039742731
C   C195      1.0  0.23130  0.86422  0.11612  1.0000 -0.2039742731
C   C196      1.0  0.11422  0.49810  0.13292  1.0000 -0.2039742731
C   C197      1.0  0.88482  0.76870  0.63292  1.0000 -0.2039742731
C   C198      1.0  0.50190  0.63482  0.61612  1.0000 -0.2039742731
C   C199      1.0  0.01870  0.88578  0.38388  1.0000 -0.2039742731
C   C200      1.0  0.13578  0.25190  0.36708  1.0000 -0.2039742731
C   C201      1.0  0.31383  0.91880  0.83423  1.0000 0.1405770868
C   C202      1.0  0.72960  0.06383  0.89503  1.0000 0.1405770868
C   C203      1.0  0.16880  0.83457  0.10497  1.0000 0.1461007938
C   C204      1.0  0.08457  0.47960  0.16577  1.0000 0.1461007938
C   C205      1.0  0.93617  0.83120  0.66577  1.0000 0.1405770868
C   C206      1.0  0.52040  0.68617  0.60497  1.0000 0.1405770868
C   C207      1.0  0.08120  0.91543  0.39503  1.0000 0.1461007938
C   C208      1.0  0.16543  0.27040  0.33423  1.0000 0.1461007938
C   C209      1.0  0.30160  0.92630  0.79010  1.0000 -0.222032737
C   C210      1.0  0.76150  0.05160  0.87530  1.0000 -0.222032737
C   C211      1.0  0.17630  0.88620  0.12470  1.0000 -0.222032737
C   C212      1.0  0.13620  0.51150  0.20990  1.0000 -0.222032737
C   C213      1.0  0.94840  0.82370  0.70990  1.0000 -0.222032737
C   C214      1.0  0.48850  0.69840  0.62470  1.0000 -0.222032737
C   C215      1.0  0.07370  0.86380  0.37530  1.0000 -0.222032737
C   C216      1.0  0.11380  0.23850  0.29010  1.0000 -0.222032737
C   C217      1.0  0.32954  0.99230  0.78924  1.0000 0.0339962523
C   C218      1.0  0.79030  0.07954  0.83724  1.0000 0.0339962523
C   C219      1.0  0.24230  0.95306  0.16276  1.0000 0.0339962523
C   C220      1.0  0.20306  0.54030  0.21076  1.0000 0.0339962523
C   C221      1.0  0.92046  0.75770  0.71076  1.0000 0.0339962523
C   C222      1.0  0.45970  0.67046  0.66276  1.0000 0.0339962523
C   C223      1.0  0.00770  0.79694  0.33724  1.0000 0.0339962523
C   C224      1.0  0.04694  0.20970  0.28924  1.0000 0.0339962523
C   C225      1.0  0.28134  0.84550  0.83764  1.0000 -0.2120612778
C   C226      1.0  0.69370  0.03134  0.93584  1.0000 -0.2120612778
C   C227      1.0  0.09550  0.75786  0.06416  1.0000 -0.2120612778
C   C228      1.0  0.00786  0.44370  0.16236  1.0000 -0.2120612778
C   C229      1.0  0.96866  0.90450  0.66236  1.0000 -0.2120612778
C   C230      1.0  0.55630  0.71866  0.56416  1.0000 -0.2120612778
C   C231      1.0  0.15450  0.99214  0.43584  1.0000 -0.2120612778
C   C232      1.0  0.24214  0.30630  0.33764  1.0000 -0.2120612778
C   C233      1.0  0.48479  0.41971  0.59810  1.0000 0.2947524116
C   C234      1.0  0.13669  0.23479  0.56508  1.0000 0.2947524116
C   C235      1.0  0.66971  0.57161  0.43492  1.0000 0.2947524116
C   C236      1.0  0.82161  0.88669  0.40190  1.0000 0.2947524116
C   C237      1.0  0.76521  0.33029  0.90190  1.0000 0.2947524116
C   C238      1.0  0.11331  0.51521  0.93492  1.0000 0.2947524116
C   C239      1.0  0.58029  0.17839  0.06508  1.0000 0.2947524116
C   C240      1.0  0.42839  0.86331  0.09810  1.0000 0.2947524116
C   C241      1.0  0.48092  0.45344  0.57236  1.0000 -0.2120612778
C   C242      1.0  0.15856  0.23092  0.52748  1.0000 -0.2120612778
C   C243      1.0  0.70344  0.63108  0.47252  1.0000 -0.2120612778
C   C244      1.0  0.88108  0.90856  0.42764  1.0000 -0.2120612778
C   C245      1.0  0.76908  0.29656  0.92764  1.0000 -0.2120612778
C   C246      1.0  0.09144  0.51908  0.97252  1.0000 -0.2120612778
C   C247      1.0  0.54656  0.11892  0.02748  1.0000 -0.2120612778
C   C248      1.0  0.36892  0.84144  0.07236  1.0000 -0.2120612778
C   C249      1.0  0.43213  0.44942  0.57755  1.0000 -0.0811973862
C   C250      1.0  0.10458  0.18213  0.48271  1.0000 -0.0811973862
C   C251      1.0  0.69942  0.62187  0.51729  1.0000 -0.0811973862
C   C252      1.0  0.87187  0.85458  0.42245  1.0000 -0.0811973862
C   C253      1.0  0.81787  0.30058  0.92245  1.0000 -0.0811973862
C   C254      1.0  0.14542  0.56787  0.01729  1.0000 -0.0811973862
C   C255      1.0  0.55058  0.12813  0.98271  1.0000 -0.0811973862
C   C256      1.0  0.37813  0.89542  0.07755  1.0000 -0.0811973862
C   C257      1.0  0.38501  0.41073  0.60894  1.0000 -0.1356332861
C   C258      1.0  0.02607  0.13501  0.47428  1.0000 -0.1356332861
C   C259      1.0  0.66073  0.55179  0.52572  1.0000 -0.1356332861
C   C260      1.0  0.80179  0.77607  0.39106  1.0000 -0.1356332861
C   C261      1.0  0.86499  0.33927  0.89106  1.0000 -0.1356332861
C   C262      1.0  0.22393  0.61499  0.02572  1.0000 -0.1356332861
C   C263      1.0  0.58927  0.19821  0.97428  1.0000 -0.1356332861
C   C264      1.0  0.44821  0.97393  0.10894  1.0000 -0.1356332861
C   C265      1.0  0.38843  0.37750  0.63473  1.0000 -0.0811973862
C   C266      1.0  0.00370  0.13843  0.51093  1.0000 -0.0811973862
C   C267      1.0  0.62750  0.49277  0.48907  1.0000 -0.0811973862
C   C268      1.0  0.74277  0.75370  0.36527  1.0000 -0.0811973862
C   C269      1.0  0.86157  0.37250  0.86527  1.0000 -0.0811973862
C   C270      1.0  0.24630  0.61157  0.98907  1.0000 -0.0811973862
C   C271      1.0  0.62250  0.25723  0.01093  1.0000 -0.0811973862
C   C272      1.0  0.50723  0.99630  0.13473  1.0000 -0.0811973862
C   C273      1.0  0.43732  0.38074  0.62986  1.0000 -0.1540514575
C   C274      1.0  0.05746  0.18732  0.55658  1.0000 -0.1540514575
C   C275      1.0  0.63074  0.50088  0.44342  1.0000 -0.1540514575
C   C276      1.0  0.75088  0.80746  0.37014  1.0000 -0.1540514575
C   C277      1.0  0.81268  0.36926  0.87014  1.0000 -0.1540514575
C   C278      1.0  0.19254  0.56268  0.94342  1.0000 -0.1540514575
C   C279      1.0  0.61926  0.24912  0.05658  1.0000 -0.1540514575
C   C280      1.0  0.49912  0.94254  0.12986  1.0000 -0.1540514575
C   C281      1.0  0.43468  0.34081  0.65769  1.0000 0.4422883689
C   C282      1.0  0.02699  0.18468  0.59387  1.0000 0.4422883689
C   C283      1.0  0.59081  0.43312  0.40613  1.0000 0.4422883689
C   C284      1.0  0.68312  0.77699  0.34231  1.0000 0.4422883689
C   C285      1.0  0.81532  0.40919  0.84231  1.0000 0.4422883689
C   C286      1.0  0.22301  0.56532  0.90613  1.0000 0.4422883689
C   C287      1.0  0.65919  0.31688  0.09387  1.0000 0.4422883689
C   C288      1.0  0.56688  0.97301  0.15769  1.0000 0.4422883689
C   C289      1.0  0.49992  0.28727  0.66679  1.0000 0.4422883689
C   C290      1.0  0.08313  0.24992  0.71265  1.0000 0.4422883689
C   C291      1.0  0.53727  0.37048  0.28735  1.0000 0.4422883689
C   C292      1.0  0.62048  0.83313  0.33321  1.0000 0.4422883689
C   C293      1.0  0.75008  0.46273  0.83321  1.0000 0.4422883689
C   C294      1.0  0.16687  0.50008  0.78735  1.0000 0.4422883689
C   C295      1.0  0.71273  0.37952  0.21265  1.0000 0.4422883689
C   C296      1.0  0.62952  0.91687  0.16679  1.0000 0.4422883689
C   C297      1.0  0.49468  0.24092  0.68960  1.0000 -0.2488434426
C   C298      1.0  0.05508  0.24468  0.75376  1.0000 -0.2488434426
C   C299      1.0  0.49092  0.30132  0.24624  1.0000 -0.2488434426
C   C300      1.0  0.55132  0.80508  0.31040  1.0000 -0.2488434426
C   C301      1.0  0.75532  0.50908  0.81040  1.0000 -0.2488434426
C   C302      1.0  0.19492  0.50532  0.74624  1.0000 -0.2488434426
C   C303      1.0  0.75908  0.44868  0.25376  1.0000 -0.2488434426
C   C304      1.0  0.69868  0.94492  0.18960  1.0000 -0.2488434426
C   C305      1.0  0.42480  0.15150  0.65530  1.0000 -0.3420387868
C   C306      1.0  0.01950  0.17480  0.77330  1.0000 -0.3420387868
C   C307      1.0  0.40150  0.24620  0.22670  1.0000 -0.3420387868
C   C308      1.0  0.49620  0.76950  0.34470  1.0000 -0.3420387868
C   C309      1.0  0.82520  0.59850  0.84470  1.0000 -0.3420387868
C   C310      1.0  0.23050  0.57520  0.72670  1.0000 -0.3420387868
C   C311      1.0  0.84850  0.50380  0.27330  1.0000 -0.3420387868
C   C312      1.0  0.75380  0.98050  0.15530  1.0000 -0.3420387868
C   C313      1.0  0.08065  0.57606  0.83931  1.0000 0.0973953493
C   C314      1.0  0.49134  0.83065  0.00459  1.0000 0.0973953493
C   C315      1.0  0.82606  0.48675  0.99541  1.0000 0.0973953493
C   C316      1.0  0.73675  0.24134  0.16069  1.0000 0.0973953493
C   C317      1.0  0.16935  0.17394  0.66069  1.0000 0.0973953493
C   C318      1.0  0.75866  0.91935  0.49541  1.0000 0.0973953493
C   C319      1.0  0.42394  0.26325  0.50459  1.0000 0.0973953493
C   C320      1.0  0.51325  0.50866  0.33931  1.0000 0.0973953493
C   C321      1.0  0.10642  0.63971  0.83453  1.0000 -0.1913439072
C   C322      1.0  0.52189  0.85642  0.96671  1.0000 -0.1913439072
C   C323      1.0  0.88971  0.55518  0.03329  1.0000 -0.1913439072
C   C324      1.0  0.80518  0.27189  0.16547  1.0000 -0.1913439072
C   C325      1.0  0.14358  0.11029  0.66547  1.0000 -0.1913439072
C   C326      1.0  0.72811  0.89358  0.53329  1.0000 -0.1913439072
C   C327      1.0  0.36029  0.19482  0.46671  1.0000 -0.1913439072
C   C328      1.0  0.44482  0.47811  0.33453  1.0000 -0.1913439072
C   C329      1.0  0.17437  0.70025  0.81922  1.0000 0.161539115
C   C330      1.0  0.60515  0.92437  0.97412  1.0000 0.161539115
C   C331      1.0  0.95025  0.63103  0.02588  1.0000 0.161539115
C   C332      1.0  0.88103  0.35515  0.18078  1.0000 0.161539115
C   C333      1.0  0.07563  0.04975  0.68078  1.0000 0.161539115
C   C334      1.0  0.64485  0.82563  0.52588  1.0000 0.161539115
C   C335      1.0  0.29975  0.11897  0.47412  1.0000 0.161539115
C   C336      1.0  0.36897  0.39485  0.31922  1.0000 0.161539115
C   C337      1.0  0.21330  0.69460  0.81030  1.0000 -0.2120612778
C   C338      1.0  0.65300  0.96330  0.01870  1.0000 -0.2120612778
C   C339      1.0  0.94460  0.63430  0.98130  1.0000 -0.2120612778
C   C340      1.0  0.88430  0.40300  0.18970  1.0000 -0.2120612778
C   C341      1.0  0.03670  0.05540  0.68970  1.0000 -0.2120612778
C   C342      1.0  0.59700  0.78670  0.48130  1.0000 -0.2120612778
C   C343      1.0  0.30540  0.11570  0.51870  1.0000 -0.2120612778
C   C344      1.0  0.36570  0.34700  0.31030  1.0000 -0.2120612778
C   C345      1.0  0.18539  0.62985  0.81704  1.0000 0.0836930499
C   C346      1.0  0.61835  0.93539  0.05554  1.0000 0.0836930499
C   C347      1.0  0.87985  0.56281  0.94446  1.0000 0.0836930499
C   C348      1.0  0.81281  0.36835  0.18296  1.0000 0.0836930499
C   C349      1.0  0.06461  0.12015  0.68296  1.0000 0.0836930499
C   C350      1.0  0.63165  0.81461  0.44446  1.0000 0.0836930499
C   C351      1.0  0.37015  0.18719  0.55554  1.0000 0.0836930499
C   C352      1.0  0.43719  0.38165  0.31704  1.0000 0.0836930499
C   C353      1.0  0.20410  0.77110  0.81220  1.0000 -0.222032737
C   C354      1.0  0.64190  0.95410  0.93300  1.0000 -0.222032737
C   C355      1.0  0.02110  0.70890  0.06700  1.0000 -0.222032737
C   C356      1.0  0.95890  0.39190  0.18780  1.0000 -0.222032737
C   C357      1.0  0.04590  0.97890  0.68780  1.0000 -0.222032737
C   C358      1.0  0.60810  0.79590  0.56700  1.0000 -0.222032737
C   C359      1.0  0.22890  0.04110  0.43300  1.0000 -0.222032737
C   C360      1.0  0.29110  0.35810  0.31220  1.0000 -0.222032737
N   N1        1.0  0.36937  0.18739  0.75388  1.0000 -0.3420387868
N   N2        1.0  0.86549  0.11937  0.68198  1.0000 -0.3420387868
N   N3        1.0  0.43739  0.18351  0.31802  1.0000 -0.3420387868
N   N4        1.0  0.43351  0.61549  0.24612  1.0000 -0.3420387868
N   N5        1.0  0.88063  0.56261  0.74612  1.0000 -0.3420387868
N   N6        1.0  0.38451  0.63063  0.81802  1.0000 -0.3420387868
N   N7        1.0  0.81261  0.56649  0.18198  1.0000 -0.3420387868
N   N8        1.0  0.81649  0.13451  0.25388  1.0000 -0.3420387868
N   N9        1.0  0.43138  0.23757  0.79701  1.0000 -0.313954059
N   N10       1.0  0.88437  0.18138  0.69381  1.0000 -0.313954059
N   N11       1.0  0.48757  0.19056  0.30619  1.0000 -0.313954059
N   N12       1.0  0.44056  0.63437  0.20299  1.0000 -0.313954059
N   N13       1.0  0.81862  0.51243  0.70299  1.0000 -0.313954059
N   N14       1.0  0.36563  0.56862  0.80619  1.0000 -0.313954059
N   N15       1.0  0.76243  0.55944  0.19381  1.0000 -0.313954059
N   N16       1.0  0.80944  0.11563  0.29701  1.0000 -0.313954059
N   N17       1.0  0.29492  0.28109  0.80581  1.0000 0.0637848675
N   N18       1.0  0.73911  0.04492  0.51383  1.0000 0.0637848675
N   N19       1.0  0.53109  0.22528  0.48617  1.0000 0.0637848675
N   N20       1.0  0.47528  0.48911  0.19419  1.0000 0.0637848675
N   N21       1.0  0.95508  0.46891  0.69419  1.0000 0.0637848675
N   N22       1.0  0.51089  0.70508  0.98617  1.0000 0.0637848675
N   N23       1.0  0.71891  0.52472  0.01383  1.0000 0.0637848675
N   N24       1.0  0.77472  0.26089  0.30581  1.0000 0.0637848675
N   N25       1.0  0.52786  0.24091  0.86683  1.0000 -0.3321446236
N   N26       1.0  0.91103  0.27786  0.78695  1.0000 -0.3321446236
N   N27       1.0  0.49091  0.12408  0.21305  1.0000 -0.3321446236
N   N28       1.0  0.37408  0.66103  0.13317  1.0000 -0.3321446236
N   N29       1.0  0.72214  0.50909  0.63317  1.0000 -0.3321446236
N   N30       1.0  0.33897  0.47214  0.71305  1.0000 -0.3321446236
N   N31       1.0  0.75909  0.62592  0.28695  1.0000 -0.3321446236
N   N32       1.0  0.87592  0.08897  0.36683  1.0000 -0.3321446236
N   N33       1.0  0.57979  0.25953  0.84446  1.0000 -0.313954059
N   N34       1.0  0.98533  0.32979  0.82026  1.0000 -0.313954059
N   N35       1.0  0.50953  0.16507  0.17974  1.0000 -0.313954059
N   N36       1.0  0.41507  0.73533  0.15554  1.0000 -0.313954059
N   N37       1.0  0.67021  0.49047  0.65554  1.0000 -0.313954059
N   N38       1.0  0.26467  0.42021  0.67974  1.0000 -0.313954059
N   N39       1.0  0.74047  0.58493  0.32026  1.0000 -0.313954059
N   N40       1.0  0.83493  0.01467  0.34446  1.0000 -0.313954059
N   N41       1.0  0.36840  0.05012  0.83072  1.0000 -0.2120612778
N   N42       1.0  0.78768  0.11840  0.81828  1.0000 -0.2120612778
N   N43       1.0  0.30012  0.96940  0.18172  1.0000 -0.2120612778
N   N44       1.0  0.21940  0.53768  0.16928  1.0000 -0.2120612778
N   N45       1.0  0.88160  0.69988  0.66928  1.0000 -0.2120612778
N   N46       1.0  0.46232  0.63160  0.68172  1.0000 -0.2120612778
N   N47       1.0  0.94988  0.78060  0.31828  1.0000 -0.2120612778
N   N48       1.0  0.03060  0.21232  0.33072  1.0000 -0.2120612778
N   N49       1.0  0.47416  0.33622  0.65066  1.0000 -0.3453393312
N   N50       1.0  0.07350  0.22416  0.63794  1.0000 -0.3453393312
N   N51       1.0  0.58622  0.43556  0.36206  1.0000 -0.3453393312
N   N52       1.0  0.68556  0.82350  0.34934  1.0000 -0.3453393312
N   N53       1.0  0.77584  0.41378  0.84934  1.0000 -0.3420387868
N   N54       1.0  0.17650  0.52584  0.86206  1.0000 -0.3453393312
N   N55       1.0  0.66378  0.31444  0.13794  1.0000 -0.3420387868
N   N56       1.0  0.56444  0.92650  0.15066  1.0000 -0.3453393312
N   N57       1.0  0.46464  0.29393  0.67827  1.0000 -0.3199998811
N   N58       1.0  0.03637  0.21464  0.67071  1.0000 -0.3199998811
N   N59       1.0  0.54393  0.36566  0.32929  1.0000 -0.3199998811
N   N60       1.0  0.61566  0.78637  0.32173  1.0000 -0.3199998811
N   N61       1.0  0.78536  0.45607  0.82173  1.0000 -0.3199998811
N   N62       1.0  0.21363  0.53536  0.82929  1.0000 -0.3199998811
N   N63       1.0  0.70607  0.38434  0.17071  1.0000 -0.3199998811
N   N64       1.0  0.63434  0.96363  0.17827  1.0000 -0.3199998811
N   N65       1.0  0.11810  0.56969  0.83033  1.0000 -0.2265602239
N   N66       1.0  0.53777  0.86810  0.04841  1.0000 -0.2265602239
N   N67       1.0  0.81969  0.48936  0.95159  1.0000 -0.2265602239
N   N68       1.0  0.73936  0.28777  0.16967  1.0000 -0.2265602239
N   N69       1.0  0.13190  0.18031  0.66967  1.0000 -0.2265602239
N   N70       1.0  0.71223  0.88190  0.45159  1.0000 -0.2265602239
N   N71       1.0  0.43031  0.26064  0.54841  1.0000 -0.2265602239
N   N72       1.0  0.51064  0.46223  0.33033  1.0000 -0.2265602239
O   O1        1.0  0.28602  0.14754  0.67098  1.0000 -0.4721739193
O   O2        1.0  0.86504  0.03602  0.63848  1.0000 -0.4721739193
O   O3        1.0  0.39754  0.22656  0.36152  1.0000 -0.4721739193
O   O4        1.0  0.47656  0.61504  0.32902  1.0000 -0.4721739193
O   O5        1.0  0.96398  0.60246  0.82902  1.0000 -0.4721739193
O   O6        1.0  0.38496  0.71398  0.86152  1.0000 -0.4721739193
O   O7        1.0  0.85246  0.52344  0.13848  1.0000 -0.4721739193
O   O8        1.0  0.77344  0.13496  0.17098  1.0000 -0.4721739193
O   O9        1.0  0.31601  0.08253  0.77622  1.0000 -0.4721739193
O   O10       1.0  0.78979  0.06601  0.73348  1.0000 -0.4721739193
O   O11       1.0  0.33253  0.05631  0.26652  1.0000 -0.4721739193
O   O12       1.0  0.30631  0.53979  0.22378  1.0000 -0.4721739193
O   O13       1.0  0.93399  0.66747  0.72378  1.0000 -0.4721739193
O   O14       1.0  0.46021  0.68399  0.76652  1.0000 -0.4721739193
O   O15       1.0  0.91747  0.69369  0.23348  1.0000 -0.4721739193
O   O16       1.0  0.94369  0.21021  0.27622  1.0000 -0.4721739193
O   O17       1.0  0.46977  0.33453  0.77430  1.0000 -0.5194327012
O   O18       1.0  0.94547  0.21977  0.63524  1.0000 -0.5194327012
O   O19       1.0  0.58453  0.31023  0.36476  1.0000 -0.5194327012
O   O20       1.0  0.56023  0.69547  0.22570  1.0000 -0.5194327012
O   O21       1.0  0.78023  0.41547  0.72570  1.0000 -0.5194327012
O   O22       1.0  0.30453  0.53023  0.86476  1.0000 -0.5194327012
O   O23       1.0  0.66547  0.43977  0.13524  1.0000 -0.5194327012
O   O24       1.0  0.68977  0.05453  0.27430  1.0000 -0.5194327012
O   O25       1.0  0.30304  0.22856  0.75520  1.0000 -0.3420387868
O   O26       1.0  0.79784  0.05304  0.57448  1.0000 -0.3420387868
O   O27       1.0  0.47856  0.22336  0.42552  1.0000 -0.3420387868
O   O28       1.0  0.47336  0.54784  0.24480  1.0000 -0.3420387868
O   O29       1.0  0.94696  0.52144  0.74480  1.0000 -0.3420387868
O   O30       1.0  0.45216  0.69696  0.92552  1.0000 -0.3420387868
O   O31       1.0  0.77144  0.52664  0.07448  1.0000 -0.3420387868
O   O32       1.0  0.77664  0.20216  0.25520  1.0000 -0.3420387868
O   O33       1.0  0.38746  0.16133  0.87587  1.0000 -0.4585186466
O   O34       1.0  0.76159  0.13746  0.72613  1.0000 -0.4585186466
O   O35       1.0  0.41133  0.03546  0.27387  1.0000 -0.4585186466
O   O36       1.0  0.28546  0.51159  0.12413  1.0000 -0.4585186466
O   O37       1.0  0.86254  0.58867  0.62413  1.0000 -0.4585186466
O   O38       1.0  0.48841  0.61254  0.77387  1.0000 -0.4585186466
O   O39       1.0  0.83867  0.71454  0.22613  1.0000 -0.4585186466
O   O40       1.0  0.96454  0.23841  0.37587  1.0000 -0.4585186466
O   O41       1.0  0.63913  0.33963  0.93106  1.0000 -0.4721739193
O   O42       1.0  0.95807  0.38913  0.79950  1.0000 -0.4721739193
O   O43       1.0  0.58963  0.15857  0.20050  1.0000 -0.4721739193
O   O44       1.0  0.40857  0.70807  0.06894  1.0000 -0.4721739193
O   O45       1.0  0.61087  0.41037  0.56894  1.0000 -0.4721739193
O   O46       1.0  0.29193  0.36087  0.70050  1.0000 -0.4721739193
O   O47       1.0  0.66037  0.59143  0.29950  1.0000 -0.4721739193
O   O48       1.0  0.84143  0.04193  0.43106  1.0000 -0.4721739193
O   O49       1.0  0.46976  0.17275  0.78129  1.0000 -0.4761841408
O   O50       1.0  0.93847  0.21976  0.79701  1.0000 -0.4761841408
O   O51       1.0  0.42275  0.14146  0.20299  1.0000 -0.4761841408
O   O52       1.0  0.39146  0.68847  0.21871  1.0000 -0.4761841408
O   O53       1.0  0.78024  0.57725  0.71871  1.0000 -0.4761841408
O   O54       1.0  0.31153  0.53024  0.70299  1.0000 -0.4761841408
O   O55       1.0  0.82725  0.60854  0.29701  1.0000 -0.4761841408
O   O56       1.0  0.85854  0.06153  0.28129  1.0000 -0.4761841408
O   O57       1.0  0.53382  0.42705  0.59045  1.0000 -0.4877377935
O   O58       1.0  0.19337  0.28382  0.60677  1.0000 -0.4877377935
O   O59       1.0  0.67705  0.58660  0.39323  1.0000 -0.4877377935
O   O60       1.0  0.83660  0.94337  0.40955  1.0000 -0.4877377935
O   O61       1.0  0.71618  0.32295  0.90955  1.0000 -0.4877377935
O   O62       1.0  0.05663  0.46618  0.89323  1.0000 -0.4877377935
O   O63       1.0  0.57295  0.16340  0.10677  1.0000 -0.4877377935
O   O64       1.0  0.41340  0.80663  0.09045  1.0000 -0.4877377935
O   O65       1.0  0.39267  0.30942  0.68719  1.0000 -0.4761841408
O   O66       1.0  0.95548  0.14267  0.58325  1.0000 -0.4761841408
O   O67       1.0  0.55942  0.37223  0.41675  1.0000 -0.4761841408
O   O68       1.0  0.62223  0.70548  0.31281  1.0000 -0.4761841408
O   O69       1.0  0.85733  0.44058  0.81281  1.0000 -0.4761841408
O   O70       1.0  0.29452  0.60733  0.91675  1.0000 -0.4761841408
O   O71       1.0  0.69058  0.37777  0.08325  1.0000 -0.4761841408
O   O72       1.0  0.62777  0.04452  0.18719  1.0000 -0.4761841408
O   O73       1.0  0.53739  0.31591  0.63404  1.0000 -0.5057929233
O   O74       1.0  0.15335  0.28739  0.72148  1.0000 -0.5057929233
O   O75       1.0  0.56591  0.43187  0.27852  1.0000 -0.5057929233
O   O76       1.0  0.68187  0.90335  0.36596  1.0000 -0.5057929233
O   O77       1.0  0.71261  0.43409  0.86596  1.0000 -0.5057929233
O   O78       1.0  0.09665  0.46261  0.77852  1.0000 -0.5057929233
O   O79       1.0  0.68409  0.31813  0.22148  1.0000 -0.5057929233
O   O80       1.0  0.56813  0.84665  0.13404  1.0000 -0.5057929233
