# DDEC6 charges by PACMAN v1.1 (https://github.com/mtap-research/PACMAN-charge/)
data_2005[Zn][srs]3[FSR]7
_chemical_formula_sum              "Zn24 H192 C288 I48 N96"
_cell_length_a       13.7285
_cell_length_b       27.568
_cell_length_c       45.836
_cell_angle_alpha    90
_cell_angle_beta     90
_cell_angle_gamma    90

_symmetry_space_group_name_H-M    "P 1"
_symmetry_Int_Tables_number       1

loop_
  _symmetry_equiv_pos_as_xyz
  'x, y, z'

loop_
  _atom_site_type_symbol
  _atom_site_label
  _atom_site_symmetry_multiplicity
  _atom_site_fract_x
  _atom_site_fract_y
  _atom_site_fract_z
  _atom_site_occupancy
  _atom_site_charge
Zn  Zn1       1.0  0.65755  0.75324  0.68780  1.0000 0.4683033598
Zn  Zn2       1.0  0.34245  0.74676  0.18780  1.0000 0.4683033598
Zn  Zn3       1.0  0.15755  0.24676  0.81220  1.0000 0.4683033598
Zn  Zn4       1.0  0.84245  0.25324  0.31220  1.0000 0.4683033598
Zn  Zn5       1.0  0.36176  0.02980  0.90795  1.0000 0.4603818578
Zn  Zn6       1.0  0.63824  0.47020  0.40795  1.0000 0.4603818578
Zn  Zn7       1.0  0.86176  0.97020  0.59205  1.0000 0.4603818578
Zn  Zn8       1.0  0.13824  0.52980  0.09205  1.0000 0.4603818578
Zn  Zn9       1.0  0.35904  0.54954  0.92628  1.0000 0.4516604317
Zn  Zn10      1.0  0.64096  0.95046  0.42628  1.0000 0.4516604317
Zn  Zn11      1.0  0.85904  0.45046  0.57372  1.0000 0.4516604317
Zn  Zn12      1.0  0.14096  0.04954  0.07372  1.0000 0.4516604317
Zn  Zn13      1.0  0.34245  0.24676  0.31220  1.0000 0.4683033598
Zn  Zn14      1.0  0.65755  0.25324  0.81220  1.0000 0.4683033598
Zn  Zn15      1.0  0.84245  0.75324  0.18780  1.0000 0.4683033598
Zn  Zn16      1.0  0.15755  0.74676  0.68780  1.0000 0.4683033598
Zn  Zn17      1.0  0.63824  0.97020  0.09205  1.0000 0.4603818578
Zn  Zn18      1.0  0.36176  0.52980  0.59205  1.0000 0.4603818578
Zn  Zn19      1.0  0.13824  0.02980  0.40795  1.0000 0.4603818578
Zn  Zn20      1.0  0.86176  0.47020  0.90795  1.0000 0.4603818578
Zn  Zn21      1.0  0.64096  0.45046  0.07372  1.0000 0.4516604317
Zn  Zn22      1.0  0.35904  0.04954  0.57372  1.0000 0.4516604317
Zn  Zn23      1.0  0.14096  0.54954  0.42628  1.0000 0.4516604317
Zn  Zn24      1.0  0.85904  0.95046  0.92628  1.0000 0.4516604317
H   H1        1.0  0.55110  0.69110  0.73240  1.0000 0.1091481321
H   H2        1.0  0.44890  0.80890  0.23240  1.0000 0.1091481321
H   H3        1.0  0.05110  0.30890  0.76760  1.0000 0.1091481321
H   H4        1.0  0.94890  0.19110  0.26760  1.0000 0.1091481321
H   H5        1.0  0.49160  0.69840  0.77940  1.0000 0.1336936404
H   H6        1.0  0.50840  0.80160  0.27940  1.0000 0.1336936404
H   H7        1.0  0.99160  0.30160  0.72060  1.0000 0.1336936404
H   H8        1.0  0.00840  0.19840  0.22060  1.0000 0.1336936404
H   H9        1.0  0.51940  0.84450  0.77230  1.0000 0.1371243178
H   H10       1.0  0.48060  0.65550  0.27230  1.0000 0.1371243178
H   H11       1.0  0.01940  0.15550  0.72770  1.0000 0.1371243178
H   H12       1.0  0.98060  0.34450  0.22770  1.0000 0.1371243178
H   H13       1.0  0.57730  0.83280  0.72480  1.0000 0.1159445538
H   H14       1.0  0.42270  0.66720  0.22480  1.0000 0.1159445538
H   H15       1.0  0.07730  0.16720  0.77520  1.0000 0.1159445538
H   H16       1.0  0.92270  0.33280  0.27520  1.0000 0.1159445538
H   H17       1.0  0.45850  0.64980  0.84020  1.0000 0.1336936404
H   H18       1.0  0.54150  0.85020  0.34020  1.0000 0.1336936404
H   H19       1.0  0.95850  0.35020  0.65980  1.0000 0.1336936404
H   H20       1.0  0.04150  0.14980  0.15980  1.0000 0.1336936404
H   H21       1.0  0.43350  0.58070  0.86810  1.0000 0.0992204814
H   H22       1.0  0.56650  0.91930  0.36810  1.0000 0.0992204814
H   H23       1.0  0.93350  0.41930  0.63190  1.0000 0.0992204814
H   H24       1.0  0.06650  0.08070  0.13190  1.0000 0.0992204814
H   H25       1.0  0.36520  0.65950  0.93720  1.0000 0.1091481321
H   H26       1.0  0.63480  0.84050  0.43720  1.0000 0.1091481321
H   H27       1.0  0.86520  0.34050  0.56280  1.0000 0.1091481321
H   H28       1.0  0.13480  0.15950  0.06280  1.0000 0.1091481321
H   H29       1.0  0.39220  0.73040  0.91160  1.0000 0.1371243178
H   H30       1.0  0.60780  0.76960  0.41160  1.0000 0.1371243178
H   H31       1.0  0.89220  0.26960  0.58840  1.0000 0.1371243178
H   H32       1.0  0.10780  0.23040  0.08840  1.0000 0.1371243178
H   H33       1.0  0.41630  0.84980  0.90700  1.0000 0.1336936404
H   H34       1.0  0.58370  0.65020  0.40700  1.0000 0.1336936404
H   H35       1.0  0.91630  0.15020  0.59300  1.0000 0.1336936404
H   H36       1.0  0.08370  0.34980  0.09300  1.0000 0.1336936404
H   H37       1.0  0.39530  0.92690  0.92670  1.0000 0.1091481321
H   H38       1.0  0.60470  0.57310  0.42670  1.0000 0.1091481321
H   H39       1.0  0.89530  0.07310  0.57330  1.0000 0.1091481321
H   H40       1.0  0.10470  0.42690  0.07330  1.0000 0.1091481321
H   H41       1.0  0.41650  0.98730  0.84900  1.0000 0.1091481321
H   H42       1.0  0.58350  0.51270  0.34900  1.0000 0.1091481321
H   H43       1.0  0.91650  0.01270  0.65100  1.0000 0.1091481321
H   H44       1.0  0.08350  0.48730  0.15100  1.0000 0.1091481321
H   H45       1.0  0.44420  0.91210  0.82750  1.0000 0.1336936404
H   H46       1.0  0.55580  0.58790  0.32750  1.0000 0.1336936404
H   H47       1.0  0.94420  0.08790  0.67250  1.0000 0.1336936404
H   H48       1.0  0.05580  0.41210  0.17250  1.0000 0.1336936404
H   H49       1.0  0.69580  0.81130  0.63430  1.0000 0.1091481321
H   H50       1.0  0.30420  0.68870  0.13430  1.0000 0.1091481321
H   H51       1.0  0.19580  0.18870  0.86570  1.0000 0.1091481321
H   H52       1.0  0.80420  0.31130  0.36570  1.0000 0.1091481321
H   H53       1.0  0.61220  0.84760  0.59600  1.0000 0.1371243178
H   H54       1.0  0.38780  0.65240  0.09600  1.0000 0.1371243178
H   H55       1.0  0.11220  0.15240  0.90400  1.0000 0.1371243178
H   H56       1.0  0.88780  0.34760  0.40400  1.0000 0.1371243178
H   H57       1.0  0.35910  0.80560  0.63250  1.0000 0.1336936404
H   H58       1.0  0.64090  0.69440  0.13250  1.0000 0.1336936404
H   H59       1.0  0.85910  0.19440  0.86750  1.0000 0.1336936404
H   H60       1.0  0.14090  0.30560  0.36750  1.0000 0.1336936404
H   H61       1.0  0.44790  0.77110  0.67060  1.0000 0.1091481321
H   H62       1.0  0.55210  0.72890  0.17060  1.0000 0.1091481321
H   H63       1.0  0.94790  0.22890  0.82940  1.0000 0.1091481321
H   H64       1.0  0.05210  0.27110  0.32940  1.0000 0.1091481321
H   H65       1.0  0.44910  0.96940  0.45650  1.0000 0.1091481321
H   H66       1.0  0.55090  0.53060  0.95650  1.0000 0.1091481321
H   H67       1.0  0.94910  0.03060  0.04350  1.0000 0.1091481321
H   H68       1.0  0.05090  0.46940  0.54350  1.0000 0.1091481321
H   H69       1.0  0.36340  0.94450  0.49690  1.0000 0.1371243178
H   H70       1.0  0.63660  0.55550  0.99690  1.0000 0.1371243178
H   H71       1.0  0.86340  0.05550  0.00310  1.0000 0.1371243178
H   H72       1.0  0.13660  0.44450  0.50310  1.0000 0.1371243178
H   H73       1.0  0.60640  0.87600  0.52570  1.0000 0.1371243178
H   H74       1.0  0.39360  0.62400  0.02570  1.0000 0.1371243178
H   H75       1.0  0.10640  0.12400  0.97430  1.0000 0.1371243178
H   H76       1.0  0.89360  0.37600  0.47430  1.0000 0.1371243178
H   H77       1.0  0.68630  0.90370  0.48430  1.0000 0.1091481321
H   H78       1.0  0.31370  0.59630  0.98430  1.0000 0.1091481321
H   H79       1.0  0.18630  0.09630  0.01570  1.0000 0.1091481321
H   H80       1.0  0.81370  0.40370  0.51570  1.0000 0.1091481321
H   H81       1.0  0.98770  0.93910  0.54080  1.0000 0.1091481321
H   H82       1.0  0.01230  0.56090  0.04080  1.0000 0.1091481321
H   H83       1.0  0.48770  0.06090  0.95920  1.0000 0.1091481321
H   H84       1.0  0.51230  0.43910  0.45920  1.0000 0.1091481321
H   H85       1.0  0.14630  0.91190  0.53230  1.0000 0.1371243178
H   H86       1.0  0.85370  0.58810  0.03230  1.0000 0.1371243178
H   H87       1.0  0.64630  0.08810  0.96770  1.0000 0.1371243178
H   H88       1.0  0.35370  0.41190  0.46770  1.0000 0.1371243178
H   H89       1.0  0.18810  0.90540  0.61960  1.0000 0.1371243178
H   H90       1.0  0.81190  0.59460  0.11960  1.0000 0.1371243178
H   H91       1.0  0.68810  0.09460  0.88040  1.0000 0.1371243178
H   H92       1.0  0.31190  0.40540  0.38040  1.0000 0.1371243178
H   H93       1.0  0.03000  0.93240  0.62550  1.0000 0.1091481321
H   H94       1.0  0.97000  0.56760  0.12550  1.0000 0.1091481321
H   H95       1.0  0.53000  0.06760  0.87450  1.0000 0.1091481321
H   H96       1.0  0.47000  0.43240  0.37450  1.0000 0.1091481321
H   H97       1.0  0.44890  0.30890  0.26760  1.0000 0.1091481321
H   H98       1.0  0.55110  0.19110  0.76760  1.0000 0.1091481321
H   H99       1.0  0.94890  0.69110  0.23240  1.0000 0.1091481321
H   H100      1.0  0.05110  0.80890  0.73240  1.0000 0.1091481321
H   H101      1.0  0.50840  0.30160  0.22060  1.0000 0.1336936404
H   H102      1.0  0.49160  0.19840  0.72060  1.0000 0.1336936404
H   H103      1.0  0.00840  0.69840  0.27940  1.0000 0.1336936404
H   H104      1.0  0.99160  0.80160  0.77940  1.0000 0.1336936404
H   H105      1.0  0.48060  0.15550  0.22770  1.0000 0.1371243178
H   H106      1.0  0.51940  0.34450  0.72770  1.0000 0.1371243178
H   H107      1.0  0.98060  0.84450  0.27230  1.0000 0.1371243178
H   H108      1.0  0.01940  0.65550  0.77230  1.0000 0.1371243178
H   H109      1.0  0.42270  0.16720  0.27520  1.0000 0.1159445538
H   H110      1.0  0.57730  0.33280  0.77520  1.0000 0.1159445538
H   H111      1.0  0.92270  0.83280  0.22480  1.0000 0.1159445538
H   H112      1.0  0.07730  0.66720  0.72480  1.0000 0.1159445538
H   H113      1.0  0.54150  0.35020  0.15980  1.0000 0.1336936404
H   H114      1.0  0.45850  0.14980  0.65980  1.0000 0.1336936404
H   H115      1.0  0.04150  0.64980  0.34020  1.0000 0.1336936404
H   H116      1.0  0.95850  0.85020  0.84020  1.0000 0.1336936404
H   H117      1.0  0.56650  0.41930  0.13190  1.0000 0.0992204814
H   H118      1.0  0.43350  0.08070  0.63190  1.0000 0.0992204814
H   H119      1.0  0.06650  0.58070  0.36810  1.0000 0.0992204814
H   H120      1.0  0.93350  0.91930  0.86810  1.0000 0.0992204814
H   H121      1.0  0.63480  0.34050  0.06280  1.0000 0.1091481321
H   H122      1.0  0.36520  0.15950  0.56280  1.0000 0.1091481321
H   H123      1.0  0.13480  0.65950  0.43720  1.0000 0.1091481321
H   H124      1.0  0.86520  0.84050  0.93720  1.0000 0.1091481321
H   H125      1.0  0.60780  0.26960  0.08840  1.0000 0.1371243178
H   H126      1.0  0.39220  0.23040  0.58840  1.0000 0.1371243178
H   H127      1.0  0.10780  0.73040  0.41160  1.0000 0.1371243178
H   H128      1.0  0.89220  0.76960  0.91160  1.0000 0.1371243178
H   H129      1.0  0.58370  0.15020  0.09300  1.0000 0.1336936404
H   H130      1.0  0.41630  0.34980  0.59300  1.0000 0.1336936404
H   H131      1.0  0.08370  0.84980  0.40700  1.0000 0.1336936404
H   H132      1.0  0.91630  0.65020  0.90700  1.0000 0.1336936404
H   H133      1.0  0.60470  0.07310  0.07330  1.0000 0.1091481321
H   H134      1.0  0.39530  0.42690  0.57330  1.0000 0.1091481321
H   H135      1.0  0.10470  0.92690  0.42670  1.0000 0.1091481321
H   H136      1.0  0.89530  0.57310  0.92670  1.0000 0.1091481321
H   H137      1.0  0.58350  0.01270  0.15100  1.0000 0.1091481321
H   H138      1.0  0.41650  0.48730  0.65100  1.0000 0.1091481321
H   H139      1.0  0.08350  0.98730  0.34900  1.0000 0.1091481321
H   H140      1.0  0.91650  0.51270  0.84900  1.0000 0.1091481321
H   H141      1.0  0.55580  0.08790  0.17250  1.0000 0.1336936404
H   H142      1.0  0.44420  0.41210  0.67250  1.0000 0.1336936404
H   H143      1.0  0.05580  0.91210  0.32750  1.0000 0.1336936404
H   H144      1.0  0.94420  0.58790  0.82750  1.0000 0.1336936404
H   H145      1.0  0.30420  0.18870  0.36570  1.0000 0.1091481321
H   H146      1.0  0.69580  0.31130  0.86570  1.0000 0.1091481321
H   H147      1.0  0.80420  0.81130  0.13430  1.0000 0.1091481321
H   H148      1.0  0.19580  0.68870  0.63430  1.0000 0.1091481321
H   H149      1.0  0.38780  0.15240  0.40400  1.0000 0.1371243178
H   H150      1.0  0.61220  0.34760  0.90400  1.0000 0.1371243178
H   H151      1.0  0.88780  0.84760  0.09600  1.0000 0.1371243178
H   H152      1.0  0.11220  0.65240  0.59600  1.0000 0.1371243178
H   H153      1.0  0.64090  0.19440  0.36750  1.0000 0.1336936404
H   H154      1.0  0.35910  0.30560  0.86750  1.0000 0.1336936404
H   H155      1.0  0.14090  0.80560  0.13250  1.0000 0.1336936404
H   H156      1.0  0.85910  0.69440  0.63250  1.0000 0.1336936404
H   H157      1.0  0.55210  0.22890  0.32940  1.0000 0.1091481321
H   H158      1.0  0.44790  0.27110  0.82940  1.0000 0.1091481321
H   H159      1.0  0.05210  0.77110  0.17060  1.0000 0.1091481321
H   H160      1.0  0.94790  0.72890  0.67060  1.0000 0.1091481321
H   H161      1.0  0.55090  0.03060  0.54350  1.0000 0.1091481321
H   H162      1.0  0.44910  0.46940  0.04350  1.0000 0.1091481321
H   H163      1.0  0.05090  0.96940  0.95650  1.0000 0.1091481321
H   H164      1.0  0.94910  0.53060  0.45650  1.0000 0.1091481321
H   H165      1.0  0.63660  0.05550  0.50310  1.0000 0.1371243178
H   H166      1.0  0.36340  0.44450  0.00310  1.0000 0.1371243178
H   H167      1.0  0.13660  0.94450  0.99690  1.0000 0.1371243178
H   H168      1.0  0.86340  0.55550  0.49690  1.0000 0.1371243178
H   H169      1.0  0.39360  0.12400  0.47430  1.0000 0.1371243178
H   H170      1.0  0.60640  0.37600  0.97430  1.0000 0.1371243178
H   H171      1.0  0.89360  0.87600  0.02570  1.0000 0.1371243178
H   H172      1.0  0.10640  0.62400  0.52570  1.0000 0.1371243178
H   H173      1.0  0.31370  0.09630  0.51570  1.0000 0.1091481321
H   H174      1.0  0.68630  0.40370  0.01570  1.0000 0.1091481321
H   H175      1.0  0.81370  0.90370  0.98430  1.0000 0.1091481321
H   H176      1.0  0.18630  0.59630  0.48430  1.0000 0.1091481321
H   H177      1.0  0.01230  0.06090  0.45920  1.0000 0.1091481321
H   H178      1.0  0.98770  0.43910  0.95920  1.0000 0.1091481321
H   H179      1.0  0.51230  0.93910  0.04080  1.0000 0.1091481321
H   H180      1.0  0.48770  0.56090  0.54080  1.0000 0.1091481321
H   H181      1.0  0.85370  0.08810  0.46770  1.0000 0.1371243178
H   H182      1.0  0.14630  0.41190  0.96770  1.0000 0.1371243178
H   H183      1.0  0.35370  0.91190  0.03230  1.0000 0.1371243178
H   H184      1.0  0.64630  0.58810  0.53230  1.0000 0.1371243178
H   H185      1.0  0.81190  0.09460  0.38040  1.0000 0.1371243178
H   H186      1.0  0.18810  0.40540  0.88040  1.0000 0.1371243178
H   H187      1.0  0.31190  0.90540  0.11960  1.0000 0.1371243178
H   H188      1.0  0.68810  0.59460  0.61960  1.0000 0.1371243178
H   H189      1.0  0.97000  0.06760  0.37450  1.0000 0.1091481321
H   H190      1.0  0.03000  0.43240  0.87450  1.0000 0.1091481321
H   H191      1.0  0.47000  0.93240  0.12550  1.0000 0.1091481321
H   H192      1.0  0.53000  0.56760  0.62550  1.0000 0.1091481321
C   C1        1.0  0.54630  0.72250  0.74080  1.0000 0.0992204814
C   C2        1.0  0.45370  0.77750  0.24080  1.0000 0.0992204814
C   C3        1.0  0.04630  0.27750  0.75920  1.0000 0.0992204814
C   C4        1.0  0.95370  0.22250  0.25920  1.0000 0.0992204814
C   C5        1.0  0.51080  0.72640  0.76878  1.0000 -0.1499611497
C   C6        1.0  0.48920  0.77360  0.26878  1.0000 -0.1499611497
C   C7        1.0  0.01080  0.27360  0.73122  1.0000 -0.1499611497
C   C8        1.0  0.98920  0.22640  0.23122  1.0000 -0.1499611497
C   C9        1.0  0.50390  0.77230  0.78108  1.0000 0.0613121962
C   C10       1.0  0.49610  0.72770  0.28108  1.0000 0.0613121962
C   C11       1.0  0.00390  0.22770  0.71892  1.0000 0.0613121962
C   C12       1.0  0.99610  0.27230  0.21892  1.0000 0.0613121962
C   C13       1.0  0.52700  0.81270  0.76460  1.0000 -0.16114963
C   C14       1.0  0.47300  0.68730  0.26460  1.0000 -0.16114963
C   C15       1.0  0.02700  0.18730  0.73540  1.0000 -0.16114963
C   C16       1.0  0.97300  0.31270  0.23540  1.0000 -0.16114963
C   C17       1.0  0.56180  0.80530  0.73636  1.0000 0.0898365596
C   C18       1.0  0.43820  0.69470  0.23636  1.0000 0.0898365596
C   C19       1.0  0.06180  0.19470  0.76364  1.0000 0.0898365596
C   C20       1.0  0.93820  0.30530  0.26364  1.0000 0.0898365596
C   C21       1.0  0.47630  0.77810  0.81238  1.0000 0.3804339924
C   C22       1.0  0.52370  0.72190  0.31238  1.0000 0.3804339924
C   C23       1.0  0.97630  0.22190  0.68762  1.0000 0.3804339924
C   C24       1.0  0.02370  0.27810  0.18762  1.0000 0.3804339924
C   C25       1.0  0.44090  0.74260  0.85543  1.0000 0.3804339924
C   C26       1.0  0.55910  0.75740  0.35543  1.0000 0.3804339924
C   C27       1.0  0.94090  0.25740  0.64457  1.0000 0.3804339924
C   C28       1.0  0.05910  0.24260  0.14457  1.0000 0.3804339924
C   C29       1.0  0.44340  0.82430  0.85145  1.0000 0.3804339924
C   C30       1.0  0.55660  0.67570  0.35145  1.0000 0.3804339924
C   C31       1.0  0.94340  0.17570  0.64855  1.0000 0.3743602258
C   C32       1.0  0.05660  0.32430  0.14855  1.0000 0.3804339924
C   C33       1.0  0.42670  0.69800  0.87318  1.0000 0.0613121962
C   C34       1.0  0.57330  0.80200  0.37318  1.0000 0.0613121962
C   C35       1.0  0.92670  0.30200  0.62682  1.0000 0.073056219
C   C36       1.0  0.07330  0.19800  0.12682  1.0000 0.0613121962
C   C37       1.0  0.43950  0.65240  0.86005  1.0000 -0.16114963
C   C38       1.0  0.56050  0.84760  0.36005  1.0000 -0.16114963
C   C39       1.0  0.93950  0.34760  0.63995  1.0000 -0.16114963
C   C40       1.0  0.06050  0.15240  0.13995  1.0000 -0.16114963
C   C41       1.0  0.42360  0.61160  0.87680  1.0000 0.0898365596
C   C42       1.0  0.57640  0.88840  0.37680  1.0000 0.0898365596
C   C43       1.0  0.92360  0.38840  0.62320  1.0000 0.0898365596
C   C44       1.0  0.07640  0.11160  0.12320  1.0000 0.0898365596
C   C45       1.0  0.38420  0.65770  0.91733  1.0000 0.073056219
C   C46       1.0  0.61580  0.84230  0.41733  1.0000 0.073056219
C   C47       1.0  0.88420  0.34230  0.58267  1.0000 0.073056219
C   C48       1.0  0.11580  0.15770  0.08267  1.0000 0.073056219
C   C49       1.0  0.39980  0.70000  0.90220  1.0000 -0.16114963
C   C50       1.0  0.60020  0.80000  0.40220  1.0000 -0.16114963
C   C51       1.0  0.89980  0.30000  0.59780  1.0000 -0.16114963
C   C52       1.0  0.10020  0.20000  0.09780  1.0000 -0.16114963
C   C53       1.0  0.43210  0.87260  0.86498  1.0000 0.0613121962
C   C54       1.0  0.56790  0.62740  0.36498  1.0000 0.0613121962
C   C55       1.0  0.93210  0.12740  0.63502  1.0000 0.0613121962
C   C56       1.0  0.06790  0.37260  0.13502  1.0000 0.0613121962
C   C57       1.0  0.41710  0.87750  0.89469  1.0000 -0.1428865644
C   C58       1.0  0.58290  0.62250  0.39469  1.0000 -0.1428865644
C   C59       1.0  0.91710  0.12250  0.60531  1.0000 -0.1428865644
C   C60       1.0  0.08290  0.37750  0.10531  1.0000 -0.1428865644
C   C61       1.0  0.40320  0.92360  0.90615  1.0000 0.0898365596
C   C62       1.0  0.59680  0.57640  0.40615  1.0000 0.0898365596
C   C63       1.0  0.90320  0.07640  0.59385  1.0000 0.0898365596
C   C64       1.0  0.09680  0.42360  0.09385  1.0000 0.0898365596
C   C65       1.0  0.41630  0.95910  0.86089  1.0000 0.0898365596
C   C66       1.0  0.58370  0.54090  0.36089  1.0000 0.0898365596
C   C67       1.0  0.91630  0.04090  0.63911  1.0000 0.0898365596
C   C68       1.0  0.08370  0.45910  0.13911  1.0000 0.0898365596
C   C69       1.0  0.43270  0.91430  0.84792  1.0000 -0.1499611497
C   C70       1.0  0.56730  0.58570  0.34792  1.0000 -0.1499611497
C   C71       1.0  0.93270  0.08570  0.65208  1.0000 -0.1499611497
C   C72       1.0  0.06730  0.41430  0.15208  1.0000 -0.1499611497
C   C73       1.0  0.62660  0.81020  0.63397  1.0000 0.0898365596
C   C74       1.0  0.37340  0.68980  0.13397  1.0000 0.0898365596
C   C75       1.0  0.12660  0.18980  0.86603  1.0000 0.0898365596
C   C76       1.0  0.87340  0.31020  0.36603  1.0000 0.0898365596
C   C77       1.0  0.57700  0.83180  0.61111  1.0000 -0.1196872598
C   C78       1.0  0.42300  0.66820  0.11111  1.0000 -0.1196872598
C   C79       1.0  0.07700  0.16820  0.88889  1.0000 -0.1196872598
C   C80       1.0  0.92300  0.33180  0.38889  1.0000 -0.1196872598
C   C81       1.0  0.47710  0.83050  0.61028  1.0000 0.0520288965
C   C82       1.0  0.52290  0.66950  0.11028  1.0000 0.0520288965
C   C83       1.0  0.97710  0.16950  0.88972  1.0000 0.0520288965
C   C84       1.0  0.02290  0.33050  0.38972  1.0000 0.0520288965
C   C85       1.0  0.42820  0.80740  0.63250  1.0000 -0.1196872598
C   C86       1.0  0.57180  0.69260  0.13250  1.0000 -0.1196872598
C   C87       1.0  0.92820  0.19260  0.86750  1.0000 -0.1196872598
C   C88       1.0  0.07180  0.30740  0.36750  1.0000 -0.1196872598
C   C89       1.0  0.48170  0.78660  0.65506  1.0000 0.0898365596
C   C90       1.0  0.51830  0.71340  0.15506  1.0000 0.0898365596
C   C91       1.0  0.98170  0.21340  0.84494  1.0000 0.0898365596
C   C92       1.0  0.01830  0.28660  0.34494  1.0000 0.0898365596
C   C93       1.0  0.42350  0.85460  0.58630  1.0000 0.3743602258
C   C94       1.0  0.57650  0.64540  0.08630  1.0000 0.3743602258
C   C95       1.0  0.92350  0.14540  0.91370  1.0000 0.3743602258
C   C96       1.0  0.07650  0.35460  0.41370  1.0000 0.3743602258
C   C97       1.0  0.42240  0.88980  0.54211  1.0000 0.3804339924
C   C98       1.0  0.57760  0.61020  0.04211  1.0000 0.3804339924
C   C99       1.0  0.92240  0.11020  0.95789  1.0000 0.3804339924
C   C100      1.0  0.07760  0.38980  0.45789  1.0000 0.3804339924
C   C101      1.0  0.28530  0.88880  0.56955  1.0000 0.3804339924
C   C102      1.0  0.71470  0.61120  0.06955  1.0000 0.3804339924
C   C103      1.0  0.78530  0.11120  0.93045  1.0000 0.3804339924
C   C104      1.0  0.21470  0.38880  0.43045  1.0000 0.3804339924
C   C105      1.0  0.48080  0.94970  0.47063  1.0000 0.073056219
C   C106      1.0  0.51920  0.55030  0.97063  1.0000 0.073056219
C   C107      1.0  0.98080  0.05030  0.02937  1.0000 0.073056219
C   C108      1.0  0.01920  0.44970  0.52937  1.0000 0.073056219
C   C109      1.0  0.42960  0.93520  0.49450  1.0000 -0.1499611497
C   C110      1.0  0.57040  0.56480  0.99450  1.0000 -0.1428865644
C   C111      1.0  0.92960  0.06480  0.00550  1.0000 -0.1428865644
C   C112      1.0  0.07040  0.43520  0.50550  1.0000 -0.1428865644
C   C113      1.0  0.47520  0.90680  0.51543  1.0000 0.0613121962
C   C114      1.0  0.52480  0.59320  0.01543  1.0000 0.0613121962
C   C115      1.0  0.97520  0.09320  0.98457  1.0000 0.0613121962
C   C116      1.0  0.02480  0.40680  0.48457  1.0000 0.0613121962
C   C117      1.0  0.57270  0.89490  0.51162  1.0000 -0.1499611497
C   C118      1.0  0.42730  0.60510  0.01162  1.0000 -0.1499611497
C   C119      1.0  0.07270  0.10510  0.98838  1.0000 -0.1499611497
C   C120      1.0  0.92730  0.39490  0.48838  1.0000 -0.1499611497
C   C121      1.0  0.61930  0.91130  0.48686  1.0000 0.073056219
C   C122      1.0  0.38070  0.58870  0.98686  1.0000 0.073056219
C   C123      1.0  0.11930  0.08870  0.01314  1.0000 0.073056219
C   C124      1.0  0.88070  0.41130  0.51314  1.0000 0.073056219
C   C125      1.0  0.02940  0.93280  0.55690  1.0000 0.0898365596
C   C126      1.0  0.97060  0.56720  0.05690  1.0000 0.0898365596
C   C127      1.0  0.52940  0.06720  0.94310  1.0000 0.0898365596
C   C128      1.0  0.47060  0.43280  0.44310  1.0000 0.0898365596
C   C129      1.0  0.12370  0.91600  0.55170  1.0000 -0.1330602842
C   C130      1.0  0.87630  0.58400  0.05170  1.0000 -0.1330602842
C   C131      1.0  0.62370  0.08400  0.94830  1.0000 -0.1330602842
C   C132      1.0  0.37630  0.41600  0.44830  1.0000 -0.1330602842
C   C133      1.0  0.18400  0.90530  0.57494  1.0000 0.0613121962
C   C134      1.0  0.81600  0.59470  0.07494  1.0000 0.0613121962
C   C135      1.0  0.68400  0.09470  0.92506  1.0000 0.0613121962
C   C136      1.0  0.31600  0.40530  0.42506  1.0000 0.0613121962
C   C137      1.0  0.14860  0.91210  0.60310  1.0000 -0.1196872598
C   C138      1.0  0.85140  0.58790  0.10310  1.0000 -0.1196872598
C   C139      1.0  0.64860  0.08790  0.89690  1.0000 -0.1196872598
C   C140      1.0  0.35140  0.41210  0.39690  1.0000 -0.1196872598
C   C141      1.0  0.05490  0.92880  0.60630  1.0000 0.0841854752
C   C142      1.0  0.94510  0.57120  0.10630  1.0000 0.0841854752
C   C143      1.0  0.55490  0.07120  0.89370  1.0000 0.0841854752
C   C144      1.0  0.44510  0.42880  0.39370  1.0000 0.0841854752
C   C145      1.0  0.45370  0.27750  0.25920  1.0000 0.0992204814
C   C146      1.0  0.54630  0.22250  0.75920  1.0000 0.0992204814
C   C147      1.0  0.95370  0.72250  0.24080  1.0000 0.0992204814
C   C148      1.0  0.04630  0.77750  0.74080  1.0000 0.0992204814
C   C149      1.0  0.48920  0.27360  0.23122  1.0000 -0.1499611497
C   C150      1.0  0.51080  0.22640  0.73122  1.0000 -0.1499611497
C   C151      1.0  0.98920  0.72640  0.26878  1.0000 -0.1499611497
C   C152      1.0  0.01080  0.77360  0.76878  1.0000 -0.1499611497
C   C153      1.0  0.49610  0.22770  0.21892  1.0000 0.0613121962
C   C154      1.0  0.50390  0.27230  0.71892  1.0000 0.0613121962
C   C155      1.0  0.99610  0.77230  0.28108  1.0000 0.0613121962
C   C156      1.0  0.00390  0.72770  0.78108  1.0000 0.0613121962
C   C157      1.0  0.47300  0.18730  0.23540  1.0000 -0.16114963
C   C158      1.0  0.52700  0.31270  0.73540  1.0000 -0.16114963
C   C159      1.0  0.97300  0.81270  0.26460  1.0000 -0.16114963
C   C160      1.0  0.02700  0.68730  0.76460  1.0000 -0.16114963
C   C161      1.0  0.43820  0.19470  0.26364  1.0000 0.0898365596
C   C162      1.0  0.56180  0.30530  0.76364  1.0000 0.0898365596
C   C163      1.0  0.93820  0.80530  0.23636  1.0000 0.0898365596
C   C164      1.0  0.06180  0.69470  0.73636  1.0000 0.0898365596
C   C165      1.0  0.52370  0.22190  0.18762  1.0000 0.3804339924
C   C166      1.0  0.47630  0.27810  0.68762  1.0000 0.3804339924
C   C167      1.0  0.02370  0.77810  0.31238  1.0000 0.3804339924
C   C168      1.0  0.97630  0.72190  0.81238  1.0000 0.3804339924
C   C169      1.0  0.55910  0.25740  0.14457  1.0000 0.3804339924
C   C170      1.0  0.44090  0.24260  0.64457  1.0000 0.3804339924
C   C171      1.0  0.05910  0.74260  0.35543  1.0000 0.3804339924
C   C172      1.0  0.94090  0.75740  0.85543  1.0000 0.3804339924
C   C173      1.0  0.55660  0.17570  0.14855  1.0000 0.3804339924
C   C174      1.0  0.44340  0.32430  0.64855  1.0000 0.3804339924
C   C175      1.0  0.05660  0.82430  0.35145  1.0000 0.3804339924
C   C176      1.0  0.94340  0.67570  0.85145  1.0000 0.3743602258
C   C177      1.0  0.57330  0.30200  0.12682  1.0000 0.0613121962
C   C178      1.0  0.42670  0.19800  0.62682  1.0000 0.073056219
C   C179      1.0  0.07330  0.69800  0.37318  1.0000 0.0613121962
C   C180      1.0  0.92670  0.80200  0.87318  1.0000 0.0613121962
C   C181      1.0  0.56050  0.34760  0.13995  1.0000 -0.16114963
C   C182      1.0  0.43950  0.15240  0.63995  1.0000 -0.16114963
C   C183      1.0  0.06050  0.65240  0.36005  1.0000 -0.16114963
C   C184      1.0  0.93950  0.84760  0.86005  1.0000 -0.16114963
C   C185      1.0  0.57640  0.38840  0.12320  1.0000 0.0898365596
C   C186      1.0  0.42360  0.11160  0.62320  1.0000 0.0898365596
C   C187      1.0  0.07640  0.61160  0.37680  1.0000 0.0898365596
C   C188      1.0  0.92360  0.88840  0.87680  1.0000 0.0898365596
C   C189      1.0  0.61580  0.34230  0.08267  1.0000 0.073056219
C   C190      1.0  0.38420  0.15770  0.58267  1.0000 0.073056219
C   C191      1.0  0.11580  0.65770  0.41733  1.0000 0.073056219
C   C192      1.0  0.88420  0.84230  0.91733  1.0000 0.073056219
C   C193      1.0  0.60020  0.30000  0.09780  1.0000 -0.16114963
C   C194      1.0  0.39980  0.20000  0.59780  1.0000 -0.16114963
C   C195      1.0  0.10020  0.70000  0.40220  1.0000 -0.16114963
C   C196      1.0  0.89980  0.80000  0.90220  1.0000 -0.16114963
C   C197      1.0  0.56790  0.12740  0.13502  1.0000 0.0613121962
C   C198      1.0  0.43210  0.37260  0.63502  1.0000 0.0613121962
C   C199      1.0  0.06790  0.87260  0.36498  1.0000 0.0613121962
C   C200      1.0  0.93210  0.62740  0.86498  1.0000 0.0613121962
C   C201      1.0  0.58290  0.12250  0.10531  1.0000 -0.1428865644
C   C202      1.0  0.41710  0.37750  0.60531  1.0000 -0.1428865644
C   C203      1.0  0.08290  0.87750  0.39469  1.0000 -0.1428865644
C   C204      1.0  0.91710  0.62250  0.89469  1.0000 -0.1428865644
C   C205      1.0  0.59680  0.07640  0.09385  1.0000 0.0898365596
C   C206      1.0  0.40320  0.42360  0.59385  1.0000 0.0898365596
C   C207      1.0  0.09680  0.92360  0.40615  1.0000 0.0898365596
C   C208      1.0  0.90320  0.57640  0.90615  1.0000 0.0898365596
C   C209      1.0  0.58370  0.04090  0.13911  1.0000 0.0898365596
C   C210      1.0  0.41630  0.45910  0.63911  1.0000 0.0898365596
C   C211      1.0  0.08370  0.95910  0.36089  1.0000 0.0898365596
C   C212      1.0  0.91630  0.54090  0.86089  1.0000 0.0898365596
C   C213      1.0  0.56730  0.08570  0.15208  1.0000 -0.1499611497
C   C214      1.0  0.43270  0.41430  0.65208  1.0000 -0.1499611497
C   C215      1.0  0.06730  0.91430  0.34792  1.0000 -0.1499611497
C   C216      1.0  0.93270  0.58570  0.84792  1.0000 -0.1499611497
C   C217      1.0  0.37340  0.18980  0.36603  1.0000 0.0898365596
C   C218      1.0  0.62660  0.31020  0.86603  1.0000 0.0898365596
C   C219      1.0  0.87340  0.81020  0.13397  1.0000 0.0898365596
C   C220      1.0  0.12660  0.68980  0.63397  1.0000 0.0898365596
C   C221      1.0  0.42300  0.16820  0.38889  1.0000 -0.1196872598
C   C222      1.0  0.57700  0.33180  0.88889  1.0000 -0.1196872598
C   C223      1.0  0.92300  0.83180  0.11111  1.0000 -0.1196872598
C   C224      1.0  0.07700  0.66820  0.61111  1.0000 -0.1196872598
C   C225      1.0  0.52290  0.16950  0.38972  1.0000 0.0520288965
C   C226      1.0  0.47710  0.33050  0.88972  1.0000 0.0520288965
C   C227      1.0  0.02290  0.83050  0.11028  1.0000 0.0520288965
C   C228      1.0  0.97710  0.66950  0.61028  1.0000 0.0520288965
C   C229      1.0  0.57180  0.19260  0.36750  1.0000 -0.1196872598
C   C230      1.0  0.42820  0.30740  0.86750  1.0000 -0.1196872598
C   C231      1.0  0.07180  0.80740  0.13250  1.0000 -0.1196872598
C   C232      1.0  0.92820  0.69260  0.63250  1.0000 -0.1196872598
C   C233      1.0  0.51830  0.21340  0.34494  1.0000 0.0898365596
C   C234      1.0  0.48170  0.28660  0.84494  1.0000 0.0898365596
C   C235      1.0  0.01830  0.78660  0.15506  1.0000 0.0898365596
C   C236      1.0  0.98170  0.71340  0.65506  1.0000 0.0898365596
C   C237      1.0  0.57650  0.14540  0.41370  1.0000 0.3743602258
C   C238      1.0  0.42350  0.35460  0.91370  1.0000 0.3743602258
C   C239      1.0  0.07650  0.85460  0.08630  1.0000 0.3743602258
C   C240      1.0  0.92350  0.64540  0.58630  1.0000 0.3743602258
C   C241      1.0  0.57760  0.11020  0.45789  1.0000 0.3804339924
C   C242      1.0  0.42240  0.38980  0.95789  1.0000 0.3804339924
C   C243      1.0  0.07760  0.88980  0.04211  1.0000 0.3804339924
C   C244      1.0  0.92240  0.61020  0.54211  1.0000 0.3804339924
C   C245      1.0  0.71470  0.11120  0.43045  1.0000 0.3804339924
C   C246      1.0  0.28530  0.38880  0.93045  1.0000 0.3804339924
C   C247      1.0  0.21470  0.88880  0.06955  1.0000 0.3804339924
C   C248      1.0  0.78530  0.61120  0.56955  1.0000 0.3804339924
C   C249      1.0  0.51920  0.05030  0.52937  1.0000 0.073056219
C   C250      1.0  0.48080  0.44970  0.02937  1.0000 0.073056219
C   C251      1.0  0.01920  0.94970  0.97063  1.0000 0.073056219
C   C252      1.0  0.98080  0.55030  0.47063  1.0000 0.073056219
C   C253      1.0  0.57040  0.06480  0.50550  1.0000 -0.1428865644
C   C254      1.0  0.42960  0.43520  0.00550  1.0000 -0.1428865644
C   C255      1.0  0.07040  0.93520  0.99450  1.0000 -0.1499611497
C   C256      1.0  0.92960  0.56480  0.49450  1.0000 -0.1428865644
C   C257      1.0  0.52480  0.09320  0.48457  1.0000 0.0613121962
C   C258      1.0  0.47520  0.40680  0.98457  1.0000 0.0613121962
C   C259      1.0  0.02480  0.90680  0.01543  1.0000 0.0613121962
C   C260      1.0  0.97520  0.59320  0.51543  1.0000 0.0613121962
C   C261      1.0  0.42730  0.10510  0.48838  1.0000 -0.1499611497
C   C262      1.0  0.57270  0.39490  0.98838  1.0000 -0.1499611497
C   C263      1.0  0.92730  0.89490  0.01162  1.0000 -0.1499611497
C   C264      1.0  0.07270  0.60510  0.51162  1.0000 -0.1499611497
C   C265      1.0  0.38070  0.08870  0.51314  1.0000 0.073056219
C   C266      1.0  0.61930  0.41130  0.01314  1.0000 0.073056219
C   C267      1.0  0.88070  0.91130  0.98686  1.0000 0.073056219
C   C268      1.0  0.11930  0.58870  0.48686  1.0000 0.073056219
C   C269      1.0  0.97060  0.06720  0.44310  1.0000 0.0898365596
C   C270      1.0  0.02940  0.43280  0.94310  1.0000 0.0898365596
C   C271      1.0  0.47060  0.93280  0.05690  1.0000 0.0898365596
C   C272      1.0  0.52940  0.56720  0.55690  1.0000 0.0898365596
C   C273      1.0  0.87630  0.08400  0.44830  1.0000 -0.1330602842
C   C274      1.0  0.12370  0.41600  0.94830  1.0000 -0.1330602842
C   C275      1.0  0.37630  0.91600  0.05170  1.0000 -0.1330602842
C   C276      1.0  0.62370  0.58400  0.55170  1.0000 -0.1330602842
C   C277      1.0  0.81600  0.09470  0.42506  1.0000 0.0613121962
C   C278      1.0  0.18400  0.40530  0.92506  1.0000 0.0613121962
C   C279      1.0  0.31600  0.90530  0.07494  1.0000 0.0613121962
C   C280      1.0  0.68400  0.59470  0.57494  1.0000 0.0613121962
C   C281      1.0  0.85140  0.08790  0.39690  1.0000 -0.1196872598
C   C282      1.0  0.14860  0.41210  0.89690  1.0000 -0.1196872598
C   C283      1.0  0.35140  0.91210  0.10310  1.0000 -0.1196872598
C   C284      1.0  0.64860  0.58790  0.60310  1.0000 -0.1196872598
C   C285      1.0  0.94510  0.07120  0.39370  1.0000 0.0841854752
C   C286      1.0  0.05490  0.42880  0.89370  1.0000 0.0841854752
C   C287      1.0  0.44510  0.92880  0.10630  1.0000 0.0841854752
C   C288      1.0  0.55490  0.57120  0.60630  1.0000 0.0841854752
I   I1        1.0  0.81030  0.80479  0.69608  1.0000 -0.4635064978
I   I2        1.0  0.18970  0.69521  0.19608  1.0000 -0.4635064978
I   I3        1.0  0.31030  0.19521  0.80392  1.0000 -0.4635064978
I   I4        1.0  0.68970  0.30479  0.30392  1.0000 -0.4635064978
I   I5        1.0  0.67193  0.66305  0.67629  1.0000 -0.4712036516
I   I6        1.0  0.32807  0.83695  0.17629  1.0000 -0.4712036516
I   I7        1.0  0.17193  0.33695  0.82371  1.0000 -0.4712036516
I   I8        1.0  0.82807  0.16305  0.32371  1.0000 -0.4712036516
I   I9        1.0  0.28118  0.07666  0.86681  1.0000 -0.4491411376
I   I10       1.0  0.71882  0.42334  0.36681  1.0000 -0.4491411376
I   I11       1.0  0.78118  0.92334  0.63319  1.0000 -0.4491411376
I   I12       1.0  0.21882  0.57666  0.13319  1.0000 -0.4491411376
I   I13       1.0  0.27862  0.01521  0.95704  1.0000 -0.4712036516
I   I14       1.0  0.72138  0.48479  0.45704  1.0000 -0.4712036516
I   I15       1.0  0.77862  0.98479  0.54296  1.0000 -0.4712036516
I   I16       1.0  0.22138  0.51521  0.04296  1.0000 -0.4712036516
I   I17       1.0  0.45231  0.48303  0.89959  1.0000 -0.4364229071
I   I18       1.0  0.54769  0.01697  0.39959  1.0000 -0.4364229071
I   I19       1.0  0.95231  0.51697  0.60041  1.0000 -0.4364229071
I   I20       1.0  0.04769  0.98303  0.10041  1.0000 -0.4364229071
I   I21       1.0  0.17495  0.55086  0.93352  1.0000 -0.4635064978
I   I22       1.0  0.82505  0.94914  0.43352  1.0000 -0.4635064978
I   I23       1.0  0.67495  0.44914  0.56648  1.0000 -0.4635064978
I   I24       1.0  0.32505  0.05086  0.06648  1.0000 -0.4635064978
I   I25       1.0  0.18970  0.19521  0.30392  1.0000 -0.4635064978
I   I26       1.0  0.81030  0.30479  0.80392  1.0000 -0.4635064978
I   I27       1.0  0.68970  0.80479  0.19608  1.0000 -0.4635064978
I   I28       1.0  0.31030  0.69521  0.69608  1.0000 -0.4635064978
I   I29       1.0  0.32807  0.33695  0.32371  1.0000 -0.4712036516
I   I30       1.0  0.67193  0.16305  0.82371  1.0000 -0.4712036516
I   I31       1.0  0.82807  0.66305  0.17629  1.0000 -0.4712036516
I   I32       1.0  0.17193  0.83695  0.67629  1.0000 -0.4712036516
I   I33       1.0  0.71882  0.92334  0.13319  1.0000 -0.4491411376
I   I34       1.0  0.28118  0.57666  0.63319  1.0000 -0.4491411376
I   I35       1.0  0.21882  0.07666  0.36681  1.0000 -0.4491411376
I   I36       1.0  0.78118  0.42334  0.86681  1.0000 -0.4491411376
I   I37       1.0  0.72138  0.98479  0.04296  1.0000 -0.4712036516
I   I38       1.0  0.27862  0.51521  0.54296  1.0000 -0.4712036516
I   I39       1.0  0.22138  0.01521  0.45704  1.0000 -0.4712036516
I   I40       1.0  0.77862  0.48479  0.95704  1.0000 -0.4712036516
I   I41       1.0  0.54769  0.51697  0.10041  1.0000 -0.4364229071
I   I42       1.0  0.45231  0.98303  0.60041  1.0000 -0.4364229071
I   I43       1.0  0.04769  0.48303  0.39959  1.0000 -0.4364229071
I   I44       1.0  0.95231  0.01697  0.89959  1.0000 -0.4364229071
I   I45       1.0  0.82505  0.44914  0.06648  1.0000 -0.4635064978
I   I46       1.0  0.17495  0.05086  0.56648  1.0000 -0.4635064978
I   I47       1.0  0.32505  0.55086  0.43352  1.0000 -0.4635064978
I   I48       1.0  0.67495  0.94914  0.93352  1.0000 -0.4635064978
N   N1        1.0  0.57440  0.76100  0.72471  1.0000 -0.1882752258
N   N2        1.0  0.42560  0.73900  0.22471  1.0000 -0.1882752258
N   N3        1.0  0.07440  0.23900  0.77529  1.0000 -0.1882752258
N   N4        1.0  0.92560  0.26100  0.27529  1.0000 -0.1882752258
N   N5        1.0  0.46380  0.73680  0.82755  1.0000 -0.4195848222
N   N6        1.0  0.53620  0.76320  0.32755  1.0000 -0.4195848222
N   N7        1.0  0.96380  0.26320  0.67245  1.0000 -0.4195848222
N   N8        1.0  0.03620  0.23680  0.17245  1.0000 -0.4195848222
N   N9        1.0  0.43010  0.78550  0.86895  1.0000 -0.4289787042
N   N10       1.0  0.56990  0.71450  0.36895  1.0000 -0.4289787042
N   N11       1.0  0.93010  0.21450  0.63105  1.0000 -0.4289787042
N   N12       1.0  0.06990  0.28550  0.13105  1.0000 -0.4289787042
N   N13       1.0  0.46650  0.82270  0.82311  1.0000 -0.4195848222
N   N14       1.0  0.53350  0.67730  0.32311  1.0000 -0.4195848222
N   N15       1.0  0.96650  0.17730  0.67689  1.0000 -0.4195848222
N   N16       1.0  0.03350  0.32270  0.17689  1.0000 -0.4195848222
N   N17       1.0  0.39500  0.61360  0.90470  1.0000 -0.1882752258
N   N18       1.0  0.60500  0.88640  0.40470  1.0000 -0.1882752258
N   N19       1.0  0.89500  0.38640  0.59530  1.0000 -0.1882752258
N   N20       1.0  0.10500  0.11360  0.09530  1.0000 -0.1882752258
N   N21       1.0  0.40030  0.96410  0.88944  1.0000 -0.1808341732
N   N22       1.0  0.59970  0.53590  0.38944  1.0000 -0.1808341732
N   N23       1.0  0.90030  0.03590  0.61056  1.0000 -0.1808341732
N   N24       1.0  0.09970  0.46410  0.11056  1.0000 -0.1808341732
N   N25       1.0  0.57940  0.78760  0.65570  1.0000 -0.1738544687
N   N26       1.0  0.42060  0.71240  0.15570  1.0000 -0.1738544687
N   N27       1.0  0.07940  0.21240  0.84430  1.0000 -0.1738544687
N   N28       1.0  0.92060  0.28760  0.34430  1.0000 -0.1738544687
N   N29       1.0  0.47300  0.86590  0.56219  1.0000 -0.3881345245
N   N30       1.0  0.52700  0.63410  0.06219  1.0000 -0.3881345245
N   N31       1.0  0.97300  0.13410  0.93781  1.0000 -0.3881345245
N   N32       1.0  0.02700  0.36590  0.43781  1.0000 -0.3881345245
N   N33       1.0  0.32800  0.90170  0.54434  1.0000 -0.3881345245
N   N34       1.0  0.67200  0.59830  0.04434  1.0000 -0.3881345245
N   N35       1.0  0.82800  0.09830  0.95566  1.0000 -0.3881345245
N   N36       1.0  0.17200  0.40170  0.45566  1.0000 -0.3881345245
N   N37       1.0  0.32930  0.86490  0.59119  1.0000 -0.3779932338
N   N38       1.0  0.67070  0.63510  0.09119  1.0000 -0.3779932338
N   N39       1.0  0.82930  0.13510  0.90881  1.0000 -0.3779932338
N   N40       1.0  0.17070  0.36490  0.40881  1.0000 -0.3779932338
N   N41       1.0  0.57430  0.93730  0.46624  1.0000 -0.1808341732
N   N42       1.0  0.42570  0.56270  0.96624  1.0000 -0.1808341732
N   N43       1.0  0.07430  0.06270  0.03376  1.0000 -0.1808341732
N   N44       1.0  0.92570  0.43730  0.53376  1.0000 -0.1808341732
N   N45       1.0  0.99640  0.94010  0.58380  1.0000 -0.1808341732
N   N46       1.0  0.00360  0.55990  0.08380  1.0000 -0.1808341732
N   N47       1.0  0.49640  0.05990  0.91620  1.0000 -0.1808341732
N   N48       1.0  0.50360  0.44010  0.41620  1.0000 -0.1808341732
N   N49       1.0  0.42560  0.23900  0.27529  1.0000 -0.1882752258
N   N50       1.0  0.57440  0.26100  0.77529  1.0000 -0.1882752258
N   N51       1.0  0.92560  0.76100  0.22471  1.0000 -0.1882752258
N   N52       1.0  0.07440  0.73900  0.72471  1.0000 -0.1882752258
N   N53       1.0  0.53620  0.26320  0.17245  1.0000 -0.4195848222
N   N54       1.0  0.46380  0.23680  0.67245  1.0000 -0.4195848222
N   N55       1.0  0.03620  0.73680  0.32755  1.0000 -0.4195848222
N   N56       1.0  0.96380  0.76320  0.82755  1.0000 -0.4195848222
N   N57       1.0  0.56990  0.21450  0.13105  1.0000 -0.4289787042
N   N58       1.0  0.43010  0.28550  0.63105  1.0000 -0.4289787042
N   N59       1.0  0.06990  0.78550  0.36895  1.0000 -0.4289787042
N   N60       1.0  0.93010  0.71450  0.86895  1.0000 -0.4289787042
N   N61       1.0  0.53350  0.17730  0.17689  1.0000 -0.4195848222
N   N62       1.0  0.46650  0.32270  0.67689  1.0000 -0.4195848222
N   N63       1.0  0.03350  0.82270  0.32311  1.0000 -0.4195848222
N   N64       1.0  0.96650  0.67730  0.82311  1.0000 -0.4195848222
N   N65       1.0  0.60500  0.38640  0.09530  1.0000 -0.1882752258
N   N66       1.0  0.39500  0.11360  0.59530  1.0000 -0.1882752258
N   N67       1.0  0.10500  0.61360  0.40470  1.0000 -0.1882752258
N   N68       1.0  0.89500  0.88640  0.90470  1.0000 -0.1882752258
N   N69       1.0  0.59970  0.03590  0.11056  1.0000 -0.1808341732
N   N70       1.0  0.40030  0.46410  0.61056  1.0000 -0.1808341732
N   N71       1.0  0.09970  0.96410  0.38944  1.0000 -0.1808341732
N   N72       1.0  0.90030  0.53590  0.88944  1.0000 -0.1808341732
N   N73       1.0  0.42060  0.21240  0.34430  1.0000 -0.1738544687
N   N74       1.0  0.57940  0.28760  0.84430  1.0000 -0.1738544687
N   N75       1.0  0.92060  0.78760  0.15570  1.0000 -0.1738544687
N   N76       1.0  0.07940  0.71240  0.65570  1.0000 -0.1738544687
N   N77       1.0  0.52700  0.13410  0.43781  1.0000 -0.3881345245
N   N78       1.0  0.47300  0.36590  0.93781  1.0000 -0.3881345245
N   N79       1.0  0.02700  0.86590  0.06219  1.0000 -0.3881345245
N   N80       1.0  0.97300  0.63410  0.56219  1.0000 -0.3881345245
N   N81       1.0  0.67200  0.09830  0.45566  1.0000 -0.3881345245
N   N82       1.0  0.32800  0.40170  0.95566  1.0000 -0.3881345245
N   N83       1.0  0.17200  0.90170  0.04434  1.0000 -0.3881345245
N   N84       1.0  0.82800  0.59830  0.54434  1.0000 -0.3881345245
N   N85       1.0  0.67070  0.13510  0.40881  1.0000 -0.3779932338
N   N86       1.0  0.32930  0.36490  0.90881  1.0000 -0.3779932338
N   N87       1.0  0.17070  0.86490  0.09119  1.0000 -0.3779932338
N   N88       1.0  0.82930  0.63510  0.59119  1.0000 -0.3779932338
N   N89       1.0  0.42570  0.06270  0.53376  1.0000 -0.1808341732
N   N90       1.0  0.57430  0.43730  0.03376  1.0000 -0.1808341732
N   N91       1.0  0.92570  0.93730  0.96624  1.0000 -0.1808341732
N   N92       1.0  0.07430  0.56270  0.46624  1.0000 -0.1808341732
N   N93       1.0  0.00360  0.05990  0.41620  1.0000 -0.1808341732
N   N94       1.0  0.99640  0.44010  0.91620  1.0000 -0.1808341732
N   N95       1.0  0.50360  0.94010  0.08380  1.0000 -0.1808341732
N   N96       1.0  0.49640  0.55990  0.58380  1.0000 -0.1808341732
