# DDEC6 charges by PACMAN v1.1 (https://github.com/mtap-research/PACMAN-charge/)
data_2006[Ni][mot]3[FSR]2
_chemical_formula_sum              "Ni2 H26 C36 N4 O11"
_cell_length_a       12.8981
_cell_length_b       12.8981
_cell_length_c       11.259
_cell_angle_alpha    75.7607
_cell_angle_beta     104.239
_cell_angle_gamma    142.734

_symmetry_space_group_name_H-M    "P 1"
_symmetry_Int_Tables_number       1

loop_
  _symmetry_equiv_pos_as_xyz
  'x, y, z'

loop_
  _atom_site_type_symbol
  _atom_site_label
  _atom_site_symmetry_multiplicity
  _atom_site_fract_x
  _atom_site_fract_y
  _atom_site_fract_z
  _atom_site_occupancy
  _atom_site_charge
Ni  Ni1       1.0  0.87986  0.50856  0.43674  1.0000 0.7752893868
Ni  Ni2       1.0  0.50856  0.87986  0.56326  1.0000 0.7744471732
H   H1        1.0  0.35830  0.00150  0.70070  1.0000 0.1100569643
H   H2        1.0  0.00150  0.35830  0.29930  1.0000 0.1100569643
H   H3        1.0  0.27880  0.07360  0.78790  1.0000 0.1100569643
H   H4        1.0  0.07360  0.27880  0.21210  1.0000 0.1100569643
H   H5        1.0  0.33230  0.29250  0.69330  1.0000 0.1473572257
H   H6        1.0  0.29250  0.33230  0.30670  1.0000 0.1473572257
H   H7        1.0  0.90310  0.67970  0.59800  1.0000 0.1187255776
H   H8        1.0  0.67970  0.90310  0.40200  1.0000 0.1187255776
H   H9        1.0  0.90260  0.68580  0.79560  1.0000 0.1409130099
H   H10       1.0  0.68580  0.90260  0.20440  1.0000 0.1409130099
H   H11       1.0  0.86680  0.33820  0.88950  1.0000 0.1318152947
H   H12       1.0  0.33820  0.86680  0.11050  1.0000 0.1318152947
H   H13       1.0  0.88050  0.35150  0.68940  1.0000 0.1187255776
H   H14       1.0  0.35150  0.88050  0.31060  1.0000 0.1187255776
H   H15       1.0  0.72780  0.26380  0.25530  1.0000 0.1100569643
H   H16       1.0  0.26380  0.72780  0.74470  1.0000 0.1100569643
H   H17       1.0  0.73060  0.26100  0.05420  1.0000 0.1318152947
H   H18       1.0  0.26100  0.73060  0.94580  1.0000 0.1318152947
H   H19       1.0  0.00870  0.74690  0.99300  1.0000 0.1318152947
H   H20       1.0  0.74690  0.00870  0.00700  1.0000 0.1318152947
H   H21       1.0  0.99360  0.73540  0.19700  1.0000 0.1100569643
H   H22       1.0  0.73540  0.99360  0.80300  1.0000 0.1100569643
H   H23       1.0  0.14880  0.80080  0.49830  1.0000 0.3421324792
H   H24       1.0  0.80080  0.14880  0.50170  1.0000 0.3421324792
H   H25       1.0  0.09330  0.81570  0.38330  1.0000 0.328476161
H   H26       1.0  0.81570  0.09330  0.61670  1.0000 0.328476161
C   C1        1.0  0.45340  0.35680  0.55530  1.0000 0.2337284985
C   C2        1.0  0.35680  0.45340  0.44470  1.0000 0.2337284985
C   C3        1.0  0.50470  0.31610  0.50030  1.0000 -0.1337945086
C   C4        1.0  0.31610  0.50470  0.49970  1.0000 -0.1337945086
C   C5        1.0  0.47070  0.18370  0.55880  1.0000 -0.0502376852
C   C6        1.0  0.18370  0.47070  0.44120  1.0000 -0.0502376852
C   C7        1.0  0.38380  0.09240  0.66410  1.0000 -0.1516575364
C   C8        1.0  0.09240  0.38380  0.33590  1.0000 -0.1516575364
C   C9        1.0  0.33430  0.13410  0.71580  1.0000 -0.0951115188
C   C10       1.0  0.13410  0.33430  0.28420  1.0000 -0.0951115188
C   C11       1.0  0.36750  0.26570  0.66020  1.0000 -0.1815433835
C   C12       1.0  0.26570  0.36750  0.33980  1.0000 -0.1815433835
C   C13       1.0  0.59220  0.41460  0.38270  1.0000 0.5921957198
C   C14       1.0  0.41460  0.59220  0.61730  1.0000 0.5921957198
C   C15       1.0  0.53080  0.13960  0.50960  1.0000 0.5736546221
C   C16       1.0  0.13960  0.53080  0.49040  1.0000 0.5736546221
C   C17       1.0  0.89600  0.61020  0.65750  1.0000 0.0695948008
C   C18       1.0  0.61020  0.89600  0.34250  1.0000 0.0695948008
C   C19       1.0  0.89230  0.61210  0.77560  1.0000 -0.1815433835
C   C20       1.0  0.61210  0.89230  0.22440  1.0000 -0.1815433835
C   C21       1.0  0.87320  0.50360  0.86880  1.0000 0.1100569643
C   C22       1.0  0.50360  0.87320  0.13120  1.0000 0.1100569643
C   C23       1.0  0.87280  0.40800  0.83190  1.0000 -0.1996628341
C   C24       1.0  0.40800  0.87280  0.16810  1.0000 -0.1996628341
C   C25       1.0  0.88120  0.41700  0.71120  1.0000 0.0826348628
C   C26       1.0  0.41700  0.88120  0.28880  1.0000 0.0826348628
C   C27       1.0  0.78600  0.36300  0.20300  1.0000 0.1100569643
C   C28       1.0  0.36300  0.78600  0.79700  1.0000 0.1100569643
C   C29       1.0  0.78710  0.36070  0.08070  1.0000 -0.1996628341
C   C30       1.0  0.36070  0.78710  0.91930  1.0000 -0.1996628341
C   C31       1.0  0.86780  0.49940  0.99900  1.0000 0.0978592563
C   C32       1.0  0.49940  0.86780  0.00100  1.0000 0.0978592563
C   C33       1.0  0.95050  0.64710  0.04440  1.0000 -0.2082568206
C   C34       1.0  0.64710  0.95050  0.95560  1.0000 -0.2082568206
C   C35       1.0  0.94230  0.63930  0.16830  1.0000 0.0826348628
C   C36       1.0  0.63930  0.94230  0.83170  1.0000 0.0826348628
N   N1        1.0  0.89022  0.51398  0.62070  1.0000 -0.255282521
N   N2        1.0  0.51398  0.89022  0.37930  1.0000 -0.2545063195
N   N3        1.0  0.86471  0.50069  0.24890  1.0000 -0.1996628341
N   N4        1.0  0.50069  0.86471  0.75110  1.0000 -0.1996628341
O   O1        1.0  0.75251  0.55529  0.38610  1.0000 -0.5778602657
O   O2        1.0  0.55529  0.75251  0.61390  1.0000 -0.5778602657
O   O3        1.0  0.49485  0.35595  0.28440  1.0000 -0.5415083763
O   O4        1.0  0.35595  0.49485  0.71560  1.0000 -0.5415083763
O   O5        1.0  0.65472  0.24648  0.44800  1.0000 -0.5098474321
O   O6        1.0  0.24648  0.65472  0.55200  1.0000 -0.5098474321
O   O7        1.0  0.44357  0.98663  0.53760  1.0000 -0.5415083763
O   O8        1.0  0.98663  0.44357  0.46240  1.0000 -0.5415083763
O   O9        1.0  0.49640  0.49640  0.50000  1.0000 -0.2082568206
O   O10       1.0  0.10811  0.76649  0.42650  1.0000 -0.6284079847
O   O11       1.0  0.76649  0.10811  0.57350  1.0000 -0.6284079847
