# DDEC6 charges by PACMAN v1.1 (https://github.com/mtap-research/PACMAN-charge/)
data_2006[Ni][nan]3[FSR]5
_chemical_formula_sum              "Ni4 H64 C96 N8 O20"
_cell_length_a       11.269
_cell_length_b       11.27
_cell_length_c       20.711
_cell_angle_alpha    77.608
_cell_angle_beta     77.603
_cell_angle_gamma    64.727

_symmetry_space_group_name_H-M    "P 1"
_symmetry_Int_Tables_number       1

loop_
  _symmetry_equiv_pos_as_xyz
  'x, y, z'

loop_
  _atom_site_type_symbol
  _atom_site_label
  _atom_site_symmetry_multiplicity
  _atom_site_fract_x
  _atom_site_fract_y
  _atom_site_fract_z
  _atom_site_occupancy
  _atom_site_charge
Ni  Ni1       1.0  0.36462  0.53469  0.93074  1.0000 0.7581609135
Ni  Ni2       1.0  0.63538  0.46531  0.06926  1.0000 0.7581609135
Ni  Ni3       1.0  0.46530  0.63547  0.56919  1.0000 0.7581609135
Ni  Ni4       1.0  0.53470  0.36453  0.43081  1.0000 0.7581609135
H   H1        1.0  0.30270  0.31490  0.02290  1.0000 0.1091475391
H   H2        1.0  0.69730  0.68510  0.97710  1.0000 0.1091475391
H   H3        1.0  0.30130  0.11350  0.02360  1.0000 0.1295728716
H   H4        1.0  0.69870  0.88650  0.97640  1.0000 0.1295728716
H   H5        1.0  0.43130  0.13990  0.82970  1.0000 0.1368496675
H   H6        1.0  0.56870  0.86010  0.17030  1.0000 0.1368496675
H   H7        1.0  0.43030  0.34120  0.83460  1.0000 0.1194629611
H   H8        1.0  0.56970  0.65880  0.16540  1.0000 0.1194629611
H   H9        1.0  0.21960  0.97700  0.00520  1.0000 0.1368496675
H   H10       1.0  0.78040  0.02300  0.99480  1.0000 0.1368496675
H   H11       1.0  0.22250  0.77420  0.00330  1.0000 0.1091475391
H   H12       1.0  0.77750  0.22580  0.99670  1.0000 0.1091475391
H   H13       1.0  0.49520  0.71510  0.84940  1.0000 0.1091475391
H   H14       1.0  0.50480  0.28490  0.15060  1.0000 0.1091475391
H   H15       1.0  0.49890  0.91770  0.84550  1.0000 0.1295728716
H   H16       1.0  0.50110  0.08230  0.15450  1.0000 0.1295728716
H   H17       1.0  0.66060  0.56890  0.66580  1.0000 0.1194629611
H   H18       1.0  0.33940  0.43110  0.33420  1.0000 0.1194629611
H   H19       1.0  0.85810  0.57110  0.67060  1.0000 0.1368496675
H   H20       1.0  0.14190  0.42890  0.32940  1.0000 0.1368496675
H   H21       1.0  0.88550  0.69880  0.47620  1.0000 0.1295728716
H   H22       1.0  0.11450  0.30120  0.52380  1.0000 0.1295728716
H   H23       1.0  0.68500  0.69610  0.47720  1.0000 0.1091475391
H   H24       1.0  0.31500  0.30390  0.52280  1.0000 0.1091475391
H   H25       1.0  0.28540  0.50560  0.65040  1.0000 0.1091475391
H   H26       1.0  0.71460  0.49440  0.34960  1.0000 0.1091475391
H   H27       1.0  0.08330  0.50120  0.65460  1.0000 0.1295728716
H   H28       1.0  0.91670  0.49880  0.34540  1.0000 0.1295728716
H   H29       1.0  0.22520  0.77740  0.49610  1.0000 0.1091475391
H   H30       1.0  0.77480  0.22260  0.50390  1.0000 0.1091475391
H   H31       1.0  0.02280  0.77980  0.49480  1.0000 0.1368496675
H   H32       1.0  0.97720  0.22020  0.50520  1.0000 0.1368496675
H   H33       1.0  0.14970  0.72360  0.74170  1.0000 0.1295728716
H   H34       1.0  0.85030  0.27640  0.25830  1.0000 0.1295728716
H   H35       1.0  0.96360  0.81500  0.68790  1.0000 0.1295728716
H   H36       1.0  0.03640  0.18500  0.31210  1.0000 0.1295728716
H   H37       1.0  0.74110  0.76310  0.86000  1.0000 0.1194629611
H   H38       1.0  0.25890  0.23690  0.14000  1.0000 0.1194629611
H   H39       1.0  0.92410  0.68160  0.91490  1.0000 0.1194629611
H   H40       1.0  0.07590  0.31840  0.08510  1.0000 0.1194629611
H   H41       1.0  0.72530  0.06030  0.75840  1.0000 0.1295728716
H   H42       1.0  0.27470  0.93970  0.24160  1.0000 0.1295728716
H   H43       1.0  0.64530  0.26760  0.69590  1.0000 0.1194629611
H   H44       1.0  0.35470  0.73240  0.30410  1.0000 0.1194629611
H   H45       1.0  0.56280  0.11240  0.56380  1.0000 0.1295728716
H   H46       1.0  0.43720  0.88760  0.43620  1.0000 0.1295728716
H   H47       1.0  0.63740  0.90710  0.62790  1.0000 0.1368496675
H   H48       1.0  0.36260  0.09290  0.37210  1.0000 0.1368496675
H   H49       1.0  0.88690  0.43760  0.93650  1.0000 0.1295728716
H   H50       1.0  0.11310  0.56240  0.06350  1.0000 0.1295728716
H   H51       1.0  0.09350  0.36330  0.87170  1.0000 0.1368496675
H   H52       1.0  0.90650  0.63670  0.12830  1.0000 0.1368496675
H   H53       1.0  0.93980  0.27430  0.74230  1.0000 0.1295728716
H   H54       1.0  0.06020  0.72570  0.25770  1.0000 0.1295728716
H   H55       1.0  0.73270  0.35710  0.80340  1.0000 0.1194629611
H   H56       1.0  0.26730  0.64290  0.19660  1.0000 0.1194629611
H   H57       1.0  0.18450  0.03550  0.81220  1.0000 0.1295728716
H   H58       1.0  0.81550  0.96450  0.18780  1.0000 0.1295728716
H   H59       1.0  0.27590  0.85060  0.75830  1.0000 0.1295728716
H   H60       1.0  0.72410  0.14940  0.24170  1.0000 0.1295728716
H   H61       1.0  0.31830  0.07590  0.58510  1.0000 0.1194629611
H   H62       1.0  0.68170  0.92410  0.41490  1.0000 0.1194629611
H   H63       1.0  0.23680  0.25930  0.64000  1.0000 0.1194629611
H   H64       1.0  0.76320  0.74070  0.36000  1.0000 0.1194629611
C   C1        1.0  0.33010  0.27900  0.98310  1.0000 0.0810800948
C   C2        1.0  0.66990  0.72100  0.01690  1.0000 0.0810800948
C   C3        1.0  0.32840  0.15770  0.98380  1.0000 -0.1979999372
C   C4        1.0  0.67160  0.84230  0.01620  1.0000 -0.1979999372
C   C5        1.0  0.36620  0.10130  0.92670  1.0000 0.1003515555
C   C6        1.0  0.63380  0.89870  0.07330  1.0000 0.1003515555
C   C7        1.0  0.40480  0.17300  0.87020  1.0000 -0.1979999372
C   C8        1.0  0.59520  0.82700  0.12980  1.0000 -0.1979999372
C   C9        1.0  0.40410  0.29450  0.87370  1.0000 0.0912562391
C   C10       1.0  0.59590  0.70550  0.12630  1.0000 0.0912562391
C   C11       1.0  0.36310  0.97070  0.92620  1.0000 0.1091475391
C   C12       1.0  0.63690  0.02930  0.07380  1.0000 0.1091475391
C   C13       1.0  0.27780  0.92510  0.97320  1.0000 -0.1979999372
C   C14       1.0  0.72220  0.07490  0.02680  1.0000 -0.1979999372
C   C15       1.0  0.28050  0.80260  0.97170  1.0000 0.0912562391
C   C16       1.0  0.71950  0.19740  0.02830  1.0000 0.0912562391
C   C17       1.0  0.43970  0.76820  0.88150  1.0000 0.0912562391
C   C18       1.0  0.56030  0.23180  0.11850  1.0000 0.0912562391
C   C19       1.0  0.44290  0.89000  0.87900  1.0000 -0.1979999372
C   C20       1.0  0.55710  0.11000  0.12100  1.0000 -0.1979999372
C   C21       1.0  0.70660  0.59590  0.62670  1.0000 0.0810800948
C   C22       1.0  0.29340  0.40410  0.37330  1.0000 0.0810800948
C   C23       1.0  0.82560  0.59640  0.62990  1.0000 -0.1927745247
C   C24       1.0  0.17440  0.40360  0.37010  1.0000 -0.1927745247
C   C25       1.0  0.89850  0.63420  0.57330  1.0000 0.1003515555
C   C26       1.0  0.10150  0.36580  0.42670  1.0000 0.1003515555
C   C27       1.0  0.84160  0.67170  0.51610  1.0000 -0.2099542195
C   C28       1.0  0.15840  0.32830  0.48390  1.0000 -0.2099542195
C   C29       1.0  0.72080  0.66950  0.51690  1.0000 0.0810800948
C   C30       1.0  0.27920  0.33050  0.48310  1.0000 0.0810800948
C   C31       1.0  0.23210  0.56090  0.61830  1.0000 0.0912562391
C   C32       1.0  0.76790  0.43910  0.38170  1.0000 0.0912562391
C   C33       1.0  0.11050  0.55740  0.62100  1.0000 -0.1979999372
C   C34       1.0  0.88950  0.44260  0.37900  1.0000 -0.1979999372
C   C35       1.0  0.02820  0.63750  0.57380  1.0000 0.1091475391
C   C36       1.0  0.97180  0.36250  0.42620  1.0000 0.1091475391
C   C37       1.0  0.19700  0.71950  0.52800  1.0000 0.0912562391
C   C38       1.0  0.80300  0.28050  0.47200  1.0000 0.0912562391
C   C39       1.0  0.07460  0.72180  0.52690  1.0000 -0.1979999372
C   C40       1.0  0.92540  0.27820  0.47310  1.0000 -0.1979999372
C   C41       1.0  0.17340  0.63690  0.87010  1.0000 0.5204472339
C   C42       1.0  0.82660  0.36310  0.12990  1.0000 0.5204472339
C   C43       1.0  0.05610  0.69490  0.83380  1.0000 -0.027119194
C   C44       1.0  0.94390  0.30510  0.16620  1.0000 -0.027119194
C   C45       1.0  0.06730  0.73340  0.76600  1.0000 -0.0818875598
C   C46       1.0  0.93270  0.26660  0.23400  1.0000 -0.0818875598
C   C47       1.0  0.95610  0.78680  0.73370  1.0000 -0.2099542195
C   C48       1.0  0.04390  0.21320  0.26630  1.0000 -0.2099542195
C   C49       1.0  0.83510  0.79810  0.76940  1.0000 0.2365947387
C   C50       1.0  0.16490  0.20190  0.23060  1.0000 0.2365947387
C   C51       1.0  0.82300  0.75730  0.83630  1.0000 -0.2161425465
C   C52       1.0  0.17700  0.24270  0.16370  1.0000 -0.2161425465
C   C53       1.0  0.93290  0.70720  0.86900  1.0000 -0.0905350861
C   C54       1.0  0.06710  0.29280  0.13100  1.0000 -0.0905350861
C   C55       1.0  0.68790  0.96570  0.69900  1.0000 0.2324156782
C   C56       1.0  0.31210  0.03430  0.30100  1.0000 0.2324156782
C   C57       1.0  0.69110  0.07150  0.71940  1.0000 -0.2161425465
C   C58       1.0  0.30890  0.92850  0.28060  1.0000 -0.2161425465
C   C59       1.0  0.64330  0.19540  0.68200  1.0000 -0.0905350861
C   C60       1.0  0.35670  0.80460  0.31800  1.0000 -0.0905350861
C   C61       1.0  0.59270  0.21240  0.62380  1.0000 -0.0444883162
C   C62       1.0  0.40730  0.78760  0.37620  1.0000 -0.0444883162
C   C63       1.0  0.59370  0.10290  0.60360  1.0000 -0.0905350861
C   C64       1.0  0.40630  0.89710  0.39640  1.0000 -0.0905350861
C   C65       1.0  0.63940  0.97970  0.64140  1.0000 -0.1979999372
C   C66       1.0  0.36060  0.02030  0.35860  1.0000 -0.1979999372
C   C67       1.0  0.53830  0.34740  0.58310  1.0000 0.5548469818
C   C68       1.0  0.46170  0.65260  0.41690  1.0000 0.5548469818
C   C69       1.0  0.65270  0.46110  0.91650  1.0000 0.5566296375
C   C70       1.0  0.34730  0.53890  0.08350  1.0000 0.5566296375
C   C71       1.0  0.78840  0.40680  0.87660  1.0000 -0.0468773784
C   C72       1.0  0.21160  0.59320  0.12340  1.0000 -0.0468773784
C   C73       1.0  0.89660  0.40680  0.89670  1.0000 -0.0905350861
C   C74       1.0  0.10340  0.59320  0.10330  1.0000 -0.0905350861
C   C75       1.0  0.02090  0.36110  0.85830  1.0000 -0.2099542195
C   C76       1.0  0.97910  0.63890  0.14170  1.0000 -0.2099542195
C   C77       1.0  0.03420  0.31330  0.80080  1.0000 0.2324156782
C   C78       1.0  0.96580  0.68670  0.19920  1.0000 0.2324156782
C   C79       1.0  0.92860  0.30950  0.78100  1.0000 -0.2099542195
C   C80       1.0  0.07140  0.69050  0.21900  1.0000 -0.2099542195
C   C81       1.0  0.80520  0.35760  0.81790  1.0000 -0.0905350861
C   C82       1.0  0.19480  0.64240  0.18210  1.0000 -0.0905350861
C   C83       1.0  0.20230  0.16500  0.73040  1.0000 0.2365947387
C   C84       1.0  0.79770  0.83500  0.26960  1.0000 0.2365947387
C   C85       1.0  0.21300  0.04310  0.76650  1.0000 -0.2099542195
C   C86       1.0  0.78700  0.95690  0.23350  1.0000 -0.2099542195
C   C87       1.0  0.26610  0.93320  0.73410  1.0000 -0.0818875598
C   C88       1.0  0.73390  0.06680  0.26590  1.0000 -0.0818875598
C   C89       1.0  0.30510  0.94470  0.66600  1.0000 -0.027119194
C   C90       1.0  0.69490  0.05530  0.33400  1.0000 -0.027119194
C   C91       1.0  0.29280  0.06720  0.63100  1.0000 -0.0905350861
C   C92       1.0  0.70720  0.93280  0.36900  1.0000 -0.0905350861
C   C93       1.0  0.24270  0.17740  0.66370  1.0000 -0.2161425465
C   C94       1.0  0.75730  0.82260  0.33630  1.0000 -0.2161425465
C   C95       1.0  0.36260  0.82720  0.62950  1.0000 0.5204472339
C   C96       1.0  0.63740  0.17280  0.37050  1.0000 0.5204472339
N   N1        1.0  0.36870  0.34760  0.92883  1.0000 -0.1927745247
N   N2        1.0  0.63130  0.65240  0.07117  1.0000 -0.1927745247
N   N3        1.0  0.36070  0.72260  0.92794  1.0000 -0.2161425465
N   N4        1.0  0.63930  0.27740  0.07206  1.0000 -0.2161425465
N   N5        1.0  0.65240  0.63170  0.57110  1.0000 -0.1927745247
N   N6        1.0  0.34760  0.36830  0.42890  1.0000 -0.1927745247
N   N7        1.0  0.27730  0.63960  0.57191  1.0000 -0.2161425465
N   N8        1.0  0.72270  0.36040  0.42809  1.0000 -0.2161425465
O   O1        1.0  0.15670  0.61740  0.93278  1.0000 -0.5365912521
O   O2        1.0  0.84330  0.38260  0.06722  1.0000 -0.5365912521
O   O3        1.0  0.28840  0.60700  0.83808  1.0000 -0.5209912414
O   O4        1.0  0.71160  0.39300  0.16192  1.0000 -0.5209912414
O   O5        1.0  0.55840  0.45990  0.89484  1.0000 -0.5365912521
O   O6        1.0  0.44160  0.54010  0.10516  1.0000 -0.5365912521
O   O7        1.0  0.64300  0.50870  0.96820  1.0000 -0.5649247372
O   O8        1.0  0.35700  0.49130  0.03180  1.0000 -0.5649247372
O   O9        1.0  0.54010  0.44170  0.60529  1.0000 -0.5365912521
O   O10       1.0  0.45990  0.55830  0.39471  1.0000 -0.5365912521
O   O11       1.0  0.49190  0.35700  0.53184  1.0000 -0.5539946759
O   O12       1.0  0.50810  0.64300  0.46816  1.0000 -0.5539946759
O   O13       1.0  0.39290  0.71210  0.66187  1.0000 -0.5209912414
O   O14       1.0  0.60710  0.28790  0.33813  1.0000 -0.5209912414
O   O15       1.0  0.38270  0.84350  0.56702  1.0000 -0.5329235995
O   O16       1.0  0.61730  0.15650  0.43298  1.0000 -0.5329235995
O   O17       1.0  0.72450  0.84160  0.73760  1.0000 -0.2303994352
O   O18       1.0  0.27550  0.15840  0.26240  1.0000 -0.2303994352
O   O19       1.0  0.15880  0.27580  0.76210  1.0000 -0.2303994352
O   O20       1.0  0.84120  0.72420  0.23790  1.0000 -0.2303994352
