# DDEC6 charges by PACMAN v1.1 (https://github.com/mtap-research/PACMAN-charge/)
data_2006[CoAg][utp]3[FSR]1
_chemical_formula_sum              "Co8 Ag8 H240 C336 N72"
_cell_length_a       12.327
_cell_length_b       26.914
_cell_length_c       33.375
_cell_angle_alpha    90
_cell_angle_beta     90
_cell_angle_gamma    90

_symmetry_space_group_name_H-M    "P 1"
_symmetry_Int_Tables_number       1

loop_
  _symmetry_equiv_pos_as_xyz
  'x, y, z'

loop_
  _atom_site_type_symbol
  _atom_site_label
  _atom_site_symmetry_multiplicity
  _atom_site_fract_x
  _atom_site_fract_y
  _atom_site_fract_z
  _atom_site_occupancy
  _atom_site_charge
Co  Co1       1.0  0.02336  0.06858  0.88633  1.0000 0.5091951852
Co  Co2       1.0  0.47664  0.56858  0.11367  1.0000 0.5091951852
Co  Co3       1.0  0.52336  0.56858  0.61367  1.0000 0.5091951852
Co  Co4       1.0  0.97664  0.06858  0.38633  1.0000 0.5091951852
Co  Co5       1.0  0.47664  0.43142  0.38633  1.0000 0.5091951852
Co  Co6       1.0  0.02336  0.93142  0.61367  1.0000 0.5091951852
Co  Co7       1.0  0.97664  0.93142  0.11367  1.0000 0.5091951852
Co  Co8       1.0  0.52336  0.43142  0.88633  1.0000 0.5091951852
Ag  Ag1       1.0  0.23920  0.72119  0.85999  1.0000 0.2087392425
Ag  Ag2       1.0  0.26080  0.22119  0.14001  1.0000 0.2087392425
Ag  Ag3       1.0  0.73920  0.22119  0.64001  1.0000 0.2087392425
Ag  Ag4       1.0  0.76080  0.72119  0.35999  1.0000 0.2087392425
Ag  Ag5       1.0  0.26080  0.77881  0.35999  1.0000 0.2087392425
Ag  Ag6       1.0  0.23920  0.27881  0.64001  1.0000 0.2087392425
Ag  Ag7       1.0  0.76080  0.27881  0.14001  1.0000 0.2087392425
Ag  Ag8       1.0  0.73920  0.77881  0.85999  1.0000 0.2087392425
H   H1        1.0  0.78760  0.03910  0.85690  1.0000 0.1084243542
H   H2        1.0  0.71240  0.53910  0.14310  1.0000 0.1084243542
H   H3        1.0  0.28760  0.53910  0.64310  1.0000 0.1084243542
H   H4        1.0  0.21240  0.03910  0.35690  1.0000 0.1084243542
H   H5        1.0  0.73610  0.95590  0.83050  1.0000 0.1084243542
H   H6        1.0  0.76390  0.45590  0.16950  1.0000 0.1084243542
H   H7        1.0  0.23610  0.45590  0.66950  1.0000 0.1084243542
H   H8        1.0  0.26390  0.95590  0.33050  1.0000 0.1084243542
H   H9        1.0  0.89720  0.90190  0.83940  1.0000 0.1084243542
H   H10       1.0  0.60280  0.40190  0.16060  1.0000 0.1084243542
H   H11       1.0  0.39720  0.40190  0.66060  1.0000 0.1084243542
H   H12       1.0  0.10280  0.90190  0.33940  1.0000 0.1084243542
H   H13       1.0  0.29290  0.92860  0.90240  1.0000 0.1193384458
H   H14       1.0  0.20710  0.42860  0.09760  1.0000 0.1193384458
H   H15       1.0  0.79290  0.42860  0.59760  1.0000 0.1193384458
H   H16       1.0  0.70710  0.92860  0.40240  1.0000 0.1193384458
H   H17       1.0  0.38410  0.00420  0.92950  1.0000 0.1193384458
H   H18       1.0  0.11590  0.50420  0.07050  1.0000 0.1193384458
H   H19       1.0  0.88410  0.50420  0.57050  1.0000 0.1193384458
H   H20       1.0  0.61590  0.00420  0.42950  1.0000 0.1193384458
H   H21       1.0  0.25450  0.07360  0.92530  1.0000 0.1084243542
H   H22       1.0  0.24550  0.57360  0.07470  1.0000 0.1084243542
H   H23       1.0  0.75450  0.57360  0.57470  1.0000 0.1084243542
H   H24       1.0  0.74550  0.07360  0.42530  1.0000 0.1084243542
H   H25       1.0  0.22240  0.90440  0.82380  1.0000 0.1385814719
H   H26       1.0  0.27760  0.40440  0.17620  1.0000 0.1305356689
H   H27       1.0  0.72240  0.40440  0.67620  1.0000 0.1305356689
H   H28       1.0  0.77760  0.90440  0.32380  1.0000 0.1305356689
H   H29       1.0  0.25920  0.82500  0.81490  1.0000 0.098166163
H   H30       1.0  0.24080  0.32500  0.18510  1.0000 0.098166163
H   H31       1.0  0.75920  0.32500  0.68510  1.0000 0.098166163
H   H32       1.0  0.74080  0.82500  0.31490  1.0000 0.098166163
H   H33       1.0  0.04240  0.78170  0.89320  1.0000 0.0915742851
H   H34       1.0  0.45760  0.28170  0.10680  1.0000 0.0915742851
H   H35       1.0  0.54240  0.28170  0.60680  1.0000 0.0915742851
H   H36       1.0  0.95760  0.78170  0.39320  1.0000 0.0915742851
H   H37       1.0  0.99860  0.86350  0.90770  1.0000 0.1193384458
H   H38       1.0  0.50140  0.36350  0.09230  1.0000 0.1193384458
H   H39       1.0  0.49860  0.36350  0.59230  1.0000 0.1193384458
H   H40       1.0  0.00140  0.86350  0.40770  1.0000 0.1193384458
H   H41       1.0  0.72180  0.53590  0.66680  1.0000 0.1084243542
H   H42       1.0  0.77820  0.03590  0.33320  1.0000 0.1084243542
H   H43       1.0  0.22180  0.03590  0.83320  1.0000 0.1084243542
H   H44       1.0  0.27820  0.53590  0.16680  1.0000 0.1084243542
H   H45       1.0  0.72860  0.54280  0.74030  1.0000 0.1193384458
H   H46       1.0  0.77140  0.04280  0.25970  1.0000 0.1193384458
H   H47       1.0  0.22860  0.04280  0.75970  1.0000 0.1193384458
H   H48       1.0  0.27140  0.54280  0.24030  1.0000 0.1193384458
H   H49       1.0  0.56840  0.59080  0.76360  1.0000 0.1193384458
H   H50       1.0  0.93160  0.09080  0.23640  1.0000 0.1193384458
H   H51       1.0  0.06840  0.09080  0.73640  1.0000 0.1193384458
H   H52       1.0  0.43160  0.59080  0.26360  1.0000 0.1193384458
H   H53       1.0  0.25060  0.68060  0.67790  1.0000 0.1193384458
H   H54       1.0  0.24940  0.18060  0.32210  1.0000 0.1193384458
H   H55       1.0  0.75060  0.18060  0.82210  1.0000 0.1193384458
H   H56       1.0  0.74940  0.68060  0.17790  1.0000 0.1193384458
H   H57       1.0  0.20580  0.68180  0.60500  1.0000 0.1193384458
H   H58       1.0  0.29420  0.18180  0.39500  1.0000 0.1193384458
H   H59       1.0  0.70580  0.18180  0.89500  1.0000 0.1193384458
H   H60       1.0  0.79420  0.68180  0.10500  1.0000 0.1193384458
H   H61       1.0  0.33670  0.62420  0.57110  1.0000 0.1084243542
H   H62       1.0  0.16330  0.12420  0.42890  1.0000 0.1084243542
H   H63       1.0  0.83670  0.12420  0.92890  1.0000 0.1084243542
H   H64       1.0  0.66330  0.62420  0.07110  1.0000 0.1084243542
H   H65       1.0  0.50840  0.68640  0.74690  1.0000 0.1305356689
H   H66       1.0  0.99160  0.18640  0.25310  1.0000 0.1305356689
H   H67       1.0  0.00840  0.18640  0.75310  1.0000 0.1305356689
H   H68       1.0  0.49160  0.68640  0.24690  1.0000 0.1305356689
H   H69       1.0  0.42990  0.72150  0.80490  1.0000 0.0915742851
H   H70       1.0  0.07010  0.22150  0.19510  1.0000 0.0915742851
H   H71       1.0  0.92990  0.22150  0.69510  1.0000 0.0915742851
H   H72       1.0  0.57010  0.72150  0.30490  1.0000 0.0915742851
H   H73       1.0  0.16930  0.64110  0.79320  1.0000 0.098166163
H   H74       1.0  0.33070  0.14110  0.20680  1.0000 0.098166163
H   H75       1.0  0.66930  0.14110  0.70680  1.0000 0.098166163
H   H76       1.0  0.83070  0.64110  0.29320  1.0000 0.098166163
H   H77       1.0  0.23850  0.59810  0.73700  1.0000 0.1385814719
H   H78       1.0  0.26150  0.09810  0.26300  1.0000 0.1385814719
H   H79       1.0  0.73850  0.09810  0.76300  1.0000 0.1385814719
H   H80       1.0  0.76150  0.59810  0.23700  1.0000 0.1385814719
H   H81       1.0  0.34770  0.65230  0.15420  1.0000 0.1084243542
H   H82       1.0  0.15230  0.15230  0.84580  1.0000 0.1084243542
H   H83       1.0  0.84770  0.15230  0.34580  1.0000 0.1084243542
H   H84       1.0  0.65230  0.65230  0.65420  1.0000 0.1084243542
H   H85       1.0  0.25020  0.72230  0.11900  1.0000 0.1193384458
H   H86       1.0  0.24980  0.22230  0.88100  1.0000 0.1193384458
H   H87       1.0  0.75020  0.22230  0.38100  1.0000 0.1193384458
H   H88       1.0  0.74980  0.72230  0.61900  1.0000 0.1193384458
H   H89       1.0  0.27500  0.70720  0.04550  1.0000 0.1193384458
H   H90       1.0  0.22500  0.20720  0.95450  1.0000 0.1193384458
H   H91       1.0  0.77500  0.20720  0.45450  1.0000 0.1193384458
H   H92       1.0  0.72500  0.70720  0.54550  1.0000 0.1193384458
H   H93       1.0  0.53150  0.57850  0.96530  1.0000 0.1084243542
H   H94       1.0  0.96850  0.07850  0.03470  1.0000 0.1084243542
H   H95       1.0  0.03150  0.07850  0.53470  1.0000 0.1084243542
H   H96       1.0  0.46850  0.57850  0.46530  1.0000 0.1084243542
H   H97       1.0  0.66750  0.51410  0.98900  1.0000 0.1193384458
H   H98       1.0  0.83250  0.01410  0.01100  1.0000 0.1193384458
H   H99       1.0  0.16750  0.01410  0.51100  1.0000 0.1193384458
H   H100      1.0  0.33250  0.51410  0.48900  1.0000 0.1193384458
H   H101      1.0  0.63930  0.50660  0.06270  1.0000 0.1084243542
H   H102      1.0  0.86070  0.00660  0.93730  1.0000 0.1084243542
H   H103      1.0  0.13930  0.00660  0.43730  1.0000 0.1084243542
H   H104      1.0  0.36070  0.50660  0.56270  1.0000 0.1084243542
H   H105      1.0  0.29820  0.58560  0.96800  1.0000 0.1385814719
H   H106      1.0  0.20180  0.08560  0.03200  1.0000 0.1385814719
H   H107      1.0  0.79820  0.08560  0.53200  1.0000 0.1385814719
H   H108      1.0  0.70180  0.58560  0.46800  1.0000 0.1385814719
H   H109      1.0  0.22800  0.62330  0.91070  1.0000 0.098166163
H   H110      1.0  0.27200  0.12330  0.08930  1.0000 0.098166163
H   H111      1.0  0.72800  0.12330  0.58930  1.0000 0.098166163
H   H112      1.0  0.77200  0.62330  0.41070  1.0000 0.098166163
H   H113      1.0  0.38460  0.74670  0.93520  1.0000 0.098166163
H   H114      1.0  0.11540  0.24670  0.06480  1.0000 0.098166163
H   H115      1.0  0.88460  0.24670  0.56480  1.0000 0.098166163
H   H116      1.0  0.61540  0.74670  0.43520  1.0000 0.098166163
H   H117      1.0  0.44540  0.71790  0.99520  1.0000 0.1305356689
H   H118      1.0  0.05460  0.21790  0.00480  1.0000 0.1305356689
H   H119      1.0  0.94540  0.21790  0.50480  1.0000 0.1305356689
H   H120      1.0  0.55460  0.71790  0.49520  1.0000 0.1305356689
H   H121      1.0  0.71240  0.46090  0.35690  1.0000 0.1084243542
H   H122      1.0  0.78760  0.96090  0.64310  1.0000 0.1084243542
H   H123      1.0  0.21240  0.96090  0.14310  1.0000 0.1084243542
H   H124      1.0  0.28760  0.46090  0.85690  1.0000 0.1084243542
H   H125      1.0  0.76390  0.54410  0.33050  1.0000 0.1084243542
H   H126      1.0  0.73610  0.04410  0.66950  1.0000 0.1084243542
H   H127      1.0  0.26390  0.04410  0.16950  1.0000 0.1084243542
H   H128      1.0  0.23610  0.54410  0.83050  1.0000 0.1084243542
H   H129      1.0  0.60280  0.59810  0.33940  1.0000 0.1084243542
H   H130      1.0  0.89720  0.09810  0.66060  1.0000 0.1084243542
H   H131      1.0  0.10280  0.09810  0.16060  1.0000 0.1084243542
H   H132      1.0  0.39720  0.59810  0.83940  1.0000 0.1084243542
H   H133      1.0  0.20710  0.57140  0.40240  1.0000 0.1193384458
H   H134      1.0  0.29290  0.07140  0.59760  1.0000 0.1193384458
H   H135      1.0  0.70710  0.07140  0.09760  1.0000 0.1193384458
H   H136      1.0  0.79290  0.57140  0.90240  1.0000 0.1193384458
H   H137      1.0  0.11590  0.49580  0.42950  1.0000 0.1193384458
H   H138      1.0  0.38410  0.99580  0.57050  1.0000 0.1193384458
H   H139      1.0  0.61590  0.99580  0.07050  1.0000 0.1193384458
H   H140      1.0  0.88410  0.49580  0.92950  1.0000 0.1193384458
H   H141      1.0  0.24550  0.42640  0.42530  1.0000 0.1084243542
H   H142      1.0  0.25450  0.92640  0.57470  1.0000 0.1084243542
H   H143      1.0  0.74550  0.92640  0.07470  1.0000 0.1084243542
H   H144      1.0  0.75450  0.42640  0.92530  1.0000 0.1084243542
H   H145      1.0  0.27760  0.59560  0.32380  1.0000 0.1305356689
H   H146      1.0  0.22240  0.09560  0.67620  1.0000 0.1385814719
H   H147      1.0  0.77760  0.09560  0.17620  1.0000 0.1305356689
H   H148      1.0  0.72240  0.59560  0.82380  1.0000 0.1305356689
H   H149      1.0  0.24080  0.67500  0.31490  1.0000 0.098166163
H   H150      1.0  0.25920  0.17500  0.68510  1.0000 0.098166163
H   H151      1.0  0.74080  0.17500  0.18510  1.0000 0.098166163
H   H152      1.0  0.75920  0.67500  0.81490  1.0000 0.098166163
H   H153      1.0  0.45760  0.71830  0.39320  1.0000 0.0915742851
H   H154      1.0  0.04240  0.21830  0.60680  1.0000 0.0915742851
H   H155      1.0  0.95760  0.21830  0.10680  1.0000 0.0915742851
H   H156      1.0  0.54240  0.71830  0.89320  1.0000 0.0915742851
H   H157      1.0  0.50140  0.63650  0.40770  1.0000 0.1193384458
H   H158      1.0  0.99860  0.13650  0.59230  1.0000 0.1193384458
H   H159      1.0  0.00140  0.13650  0.09230  1.0000 0.1193384458
H   H160      1.0  0.49860  0.63650  0.90770  1.0000 0.1193384458
H   H161      1.0  0.77820  0.96410  0.16680  1.0000 0.1084243542
H   H162      1.0  0.72180  0.46410  0.83320  1.0000 0.1084243542
H   H163      1.0  0.27820  0.46410  0.33320  1.0000 0.1084243542
H   H164      1.0  0.22180  0.96410  0.66680  1.0000 0.1084243542
H   H165      1.0  0.77140  0.95720  0.24030  1.0000 0.1193384458
H   H166      1.0  0.72860  0.45720  0.75970  1.0000 0.1193384458
H   H167      1.0  0.27140  0.45720  0.25970  1.0000 0.1193384458
H   H168      1.0  0.22860  0.95720  0.74030  1.0000 0.1193384458
H   H169      1.0  0.93160  0.90920  0.26360  1.0000 0.1193384458
H   H170      1.0  0.56840  0.40920  0.73640  1.0000 0.1193384458
H   H171      1.0  0.43160  0.40920  0.23640  1.0000 0.1193384458
H   H172      1.0  0.06840  0.90920  0.76360  1.0000 0.1193384458
H   H173      1.0  0.24940  0.81940  0.17790  1.0000 0.1193384458
H   H174      1.0  0.25060  0.31940  0.82210  1.0000 0.1193384458
H   H175      1.0  0.74940  0.31940  0.32210  1.0000 0.1193384458
H   H176      1.0  0.75060  0.81940  0.67790  1.0000 0.1193384458
H   H177      1.0  0.29420  0.81820  0.10500  1.0000 0.1193384458
H   H178      1.0  0.20580  0.31820  0.89500  1.0000 0.1193384458
H   H179      1.0  0.79420  0.31820  0.39500  1.0000 0.1193384458
H   H180      1.0  0.70580  0.81820  0.60500  1.0000 0.1193384458
H   H181      1.0  0.16330  0.87580  0.07110  1.0000 0.1084243542
H   H182      1.0  0.33670  0.37580  0.92890  1.0000 0.1084243542
H   H183      1.0  0.66330  0.37580  0.42890  1.0000 0.1084243542
H   H184      1.0  0.83670  0.87580  0.57110  1.0000 0.1084243542
H   H185      1.0  0.99160  0.81360  0.24690  1.0000 0.1305356689
H   H186      1.0  0.50840  0.31360  0.75310  1.0000 0.1305356689
H   H187      1.0  0.49160  0.31360  0.25310  1.0000 0.1305356689
H   H188      1.0  0.00840  0.81360  0.74690  1.0000 0.1305356689
H   H189      1.0  0.07010  0.77850  0.30490  1.0000 0.0915742851
H   H190      1.0  0.42990  0.27850  0.69510  1.0000 0.0915742851
H   H191      1.0  0.57010  0.27850  0.19510  1.0000 0.0915742851
H   H192      1.0  0.92990  0.77850  0.80490  1.0000 0.0915742851
H   H193      1.0  0.33070  0.85890  0.29320  1.0000 0.098166163
H   H194      1.0  0.16930  0.35890  0.70680  1.0000 0.098166163
H   H195      1.0  0.83070  0.35890  0.20680  1.0000 0.098166163
H   H196      1.0  0.66930  0.85890  0.79320  1.0000 0.098166163
H   H197      1.0  0.26150  0.90190  0.23700  1.0000 0.1385814719
H   H198      1.0  0.23850  0.40190  0.76300  1.0000 0.1385814719
H   H199      1.0  0.76150  0.40190  0.26300  1.0000 0.1385814719
H   H200      1.0  0.73850  0.90190  0.73700  1.0000 0.1385814719
H   H201      1.0  0.15230  0.84770  0.65420  1.0000 0.1084243542
H   H202      1.0  0.34770  0.34770  0.34580  1.0000 0.1084243542
H   H203      1.0  0.65230  0.34770  0.84580  1.0000 0.1084243542
H   H204      1.0  0.84770  0.84770  0.15420  1.0000 0.1084243542
H   H205      1.0  0.24980  0.77770  0.61900  1.0000 0.1193384458
H   H206      1.0  0.25020  0.27770  0.38100  1.0000 0.1193384458
H   H207      1.0  0.74980  0.27770  0.88100  1.0000 0.1193384458
H   H208      1.0  0.75020  0.77770  0.11900  1.0000 0.1193384458
H   H209      1.0  0.22500  0.79280  0.54550  1.0000 0.1193384458
H   H210      1.0  0.27500  0.29280  0.45450  1.0000 0.1193384458
H   H211      1.0  0.72500  0.29280  0.95450  1.0000 0.1193384458
H   H212      1.0  0.77500  0.79280  0.04550  1.0000 0.1193384458
H   H213      1.0  0.96850  0.92150  0.46530  1.0000 0.1084243542
H   H214      1.0  0.53150  0.42150  0.53470  1.0000 0.1084243542
H   H215      1.0  0.46850  0.42150  0.03470  1.0000 0.1084243542
H   H216      1.0  0.03150  0.92150  0.96530  1.0000 0.1084243542
H   H217      1.0  0.83250  0.98590  0.48900  1.0000 0.1193384458
H   H218      1.0  0.66750  0.48590  0.51100  1.0000 0.1193384458
H   H219      1.0  0.33250  0.48590  0.01100  1.0000 0.1193384458
H   H220      1.0  0.16750  0.98590  0.98900  1.0000 0.1193384458
H   H221      1.0  0.86070  0.99340  0.56270  1.0000 0.1084243542
H   H222      1.0  0.63930  0.49340  0.43730  1.0000 0.1084243542
H   H223      1.0  0.36070  0.49340  0.93730  1.0000 0.1084243542
H   H224      1.0  0.13930  0.99340  0.06270  1.0000 0.1084243542
H   H225      1.0  0.20180  0.91440  0.46800  1.0000 0.1385814719
H   H226      1.0  0.29820  0.41440  0.53200  1.0000 0.1385814719
H   H227      1.0  0.70180  0.41440  0.03200  1.0000 0.1385814719
H   H228      1.0  0.79820  0.91440  0.96800  1.0000 0.1385814719
H   H229      1.0  0.27200  0.87670  0.41070  1.0000 0.098166163
H   H230      1.0  0.22800  0.37670  0.58930  1.0000 0.098166163
H   H231      1.0  0.77200  0.37670  0.08930  1.0000 0.098166163
H   H232      1.0  0.72800  0.87670  0.91070  1.0000 0.098166163
H   H233      1.0  0.11540  0.75330  0.43520  1.0000 0.098166163
H   H234      1.0  0.38460  0.25330  0.56480  1.0000 0.098166163
H   H235      1.0  0.61540  0.25330  0.06480  1.0000 0.098166163
H   H236      1.0  0.88460  0.75330  0.93520  1.0000 0.098166163
H   H237      1.0  0.05460  0.78210  0.49520  1.0000 0.1305356689
H   H238      1.0  0.44540  0.28210  0.50480  1.0000 0.1305356689
H   H239      1.0  0.55460  0.28210  0.00480  1.0000 0.1305356689
H   H240      1.0  0.94540  0.78210  0.99520  1.0000 0.1305356689
C   C1        1.0  0.83430  0.01100  0.85620  1.0000 0.0179095275
C   C2        1.0  0.66570  0.51100  0.14380  1.0000 0.0179095275
C   C3        1.0  0.33430  0.51100  0.64380  1.0000 0.0179095275
C   C4        1.0  0.16570  0.01100  0.35620  1.0000 0.0179095275
C   C5        1.0  0.80420  0.96510  0.84160  1.0000 -0.1714193905
C   C6        1.0  0.69580  0.46510  0.15840  1.0000 -0.1714193905
C   C7        1.0  0.30420  0.46510  0.65840  1.0000 -0.1714193905
C   C8        1.0  0.19580  0.96510  0.34160  1.0000 -0.1714193905
C   C9        1.0  0.89250  0.93610  0.84640  1.0000 -0.2285493287
C   C10       1.0  0.60750  0.43610  0.15360  1.0000 -0.2285493287
C   C11       1.0  0.39250  0.43610  0.65360  1.0000 -0.2285493287
C   C12       1.0  0.10750  0.93610  0.34640  1.0000 -0.2285493287
C   C13       1.0  0.97260  0.96320  0.86270  1.0000 0.1305356689
C   C14       1.0  0.52740  0.46320  0.13730  1.0000 0.1305356689
C   C15       1.0  0.47260  0.46320  0.63730  1.0000 0.1305356689
C   C16       1.0  0.02740  0.96320  0.36270  1.0000 0.1305356689
C   C17       1.0  0.07810  0.94810  0.87420  1.0000 -0.0871717027
C   C18       1.0  0.42190  0.44810  0.12580  1.0000 -0.0871717027
C   C19       1.0  0.57810  0.44810  0.62580  1.0000 -0.0871717027
C   C20       1.0  0.92190  0.94810  0.37420  1.0000 -0.0871717027
C   C21       1.0  0.15590  0.97610  0.89170  1.0000 0.1305356689
C   C22       1.0  0.34410  0.47610  0.10830  1.0000 0.1305356689
C   C23       1.0  0.65590  0.47610  0.60830  1.0000 0.1305356689
C   C24       1.0  0.84410  0.97610  0.39170  1.0000 0.1305356689
C   C25       1.0  0.26280  0.96100  0.90420  1.0000 -0.2094755099
C   C26       1.0  0.23720  0.46100  0.09580  1.0000 -0.2094755099
C   C27       1.0  0.76280  0.46100  0.59580  1.0000 -0.2094755099
C   C28       1.0  0.73720  0.96100  0.40420  1.0000 -0.2094755099
C   C29       1.0  0.31240  0.00230  0.91920  1.0000 -0.1623949723
C   C30       1.0  0.18760  0.50230  0.08080  1.0000 -0.1623949723
C   C31       1.0  0.81240  0.50230  0.58080  1.0000 -0.1623949723
C   C32       1.0  0.68760  0.00230  0.41920  1.0000 -0.1623949723
C   C33       1.0  0.23950  0.04080  0.91640  1.0000 -0.019727645
C   C34       1.0  0.26050  0.54080  0.08360  1.0000 -0.019727645
C   C35       1.0  0.73950  0.54080  0.58360  1.0000 -0.019727645
C   C36       1.0  0.76050  0.04080  0.41640  1.0000 -0.019727645
C   C37       1.0  0.10710  0.89440  0.86670  1.0000 0.1305356689
C   C38       1.0  0.39290  0.39440  0.13330  1.0000 0.1305356689
C   C39       1.0  0.60710  0.39440  0.63330  1.0000 0.1305356689
C   C40       1.0  0.89290  0.89440  0.36670  1.0000 0.1305356689
C   C41       1.0  0.18540  0.88020  0.83940  1.0000 -0.1906157872
C   C42       1.0  0.31460  0.38020  0.16060  1.0000 -0.1906157872
C   C43       1.0  0.68540  0.38020  0.66060  1.0000 -0.1906157872
C   C44       1.0  0.81460  0.88020  0.33940  1.0000 -0.1906157872
C   C45       1.0  0.20780  0.83310  0.83510  1.0000 0.0304793476
C   C46       1.0  0.29220  0.33310  0.16490  1.0000 0.0304793476
C   C47       1.0  0.70780  0.33310  0.66490  1.0000 0.0304793476
C   C48       1.0  0.79220  0.83310  0.33510  1.0000 0.0304793476
C   C49       1.0  0.08210  0.80770  0.88080  1.0000 0.0034564626
C   C50       1.0  0.41790  0.30770  0.11920  1.0000 0.0034564626
C   C51       1.0  0.58210  0.30770  0.61920  1.0000 0.0034564626
C   C52       1.0  0.91790  0.80770  0.38080  1.0000 0.0034564626
C   C53       1.0  0.05300  0.85590  0.88850  1.0000 -0.1906157872
C   C54       1.0  0.44700  0.35590  0.11150  1.0000 -0.1906157872
C   C55       1.0  0.55300  0.35590  0.61150  1.0000 -0.1906157872
C   C56       1.0  0.94700  0.85590  0.38850  1.0000 -0.1906157872
C   C57       1.0  0.66750  0.55170  0.68250  1.0000 0.0811550663
C   C58       1.0  0.83250  0.05170  0.31750  1.0000 0.0811550663
C   C59       1.0  0.16750  0.05170  0.81750  1.0000 0.0811550663
C   C60       1.0  0.33250  0.55170  0.18250  1.0000 0.0811550663
C   C61       1.0  0.67250  0.55580  0.72380  1.0000 -0.1799582914
C   C62       1.0  0.82750  0.05580  0.27620  1.0000 -0.1799582914
C   C63       1.0  0.17250  0.05580  0.77620  1.0000 -0.1799582914
C   C64       1.0  0.32750  0.55580  0.22380  1.0000 -0.1799582914
C   C65       1.0  0.58440  0.58120  0.73690  1.0000 -0.1799582914
C   C66       1.0  0.91560  0.08120  0.26310  1.0000 -0.1799582914
C   C67       1.0  0.08440  0.08120  0.76310  1.0000 -0.1799582914
C   C68       1.0  0.41560  0.58120  0.23690  1.0000 -0.1799582914
C   C69       1.0  0.51920  0.59080  0.70110  1.0000 0.1305356689
C   C70       1.0  0.98080  0.09080  0.29890  1.0000 0.1305356689
C   C71       1.0  0.01920  0.09080  0.79890  1.0000 0.1305356689
C   C72       1.0  0.48080  0.59080  0.20110  1.0000 0.1305356689
C   C73       1.0  0.42650  0.61700  0.69820  1.0000 -0.0698078722
C   C74       1.0  0.07350  0.11700  0.30180  1.0000 -0.0698078722
C   C75       1.0  0.92650  0.11700  0.80180  1.0000 -0.0698078722
C   C76       1.0  0.57350  0.61700  0.19820  1.0000 -0.0698078722
C   C77       1.0  0.37460  0.62830  0.66240  1.0000 0.1385814719
C   C78       1.0  0.12540  0.12830  0.33760  1.0000 0.1385814719
C   C79       1.0  0.87460  0.12830  0.83760  1.0000 0.1385814719
C   C80       1.0  0.62540  0.62830  0.16240  1.0000 0.1385814719
C   C81       1.0  0.28580  0.66220  0.65730  1.0000 -0.2189408675
C   C82       1.0  0.21420  0.16220  0.34270  1.0000 -0.2189408675
C   C83       1.0  0.78580  0.16220  0.84270  1.0000 -0.2189408675
C   C84       1.0  0.71420  0.66220  0.15730  1.0000 -0.2189408675
C   C85       1.0  0.26160  0.66320  0.61760  1.0000 -0.1623949723
C   C86       1.0  0.23840  0.16320  0.38240  1.0000 -0.1623949723
C   C87       1.0  0.76160  0.16320  0.88240  1.0000 -0.1623949723
C   C88       1.0  0.73840  0.66320  0.11760  1.0000 -0.1623949723
C   C89       1.0  0.33550  0.63120  0.59900  1.0000 0.04097387
C   C90       1.0  0.16450  0.13120  0.40100  1.0000 0.04097387
C   C91       1.0  0.83550  0.13120  0.90100  1.0000 0.04097387
C   C92       1.0  0.66450  0.63120  0.09900  1.0000 0.04097387
C   C93       1.0  0.37810  0.64020  0.73540  1.0000 0.1305356689
C   C94       1.0  0.12190  0.14020  0.26460  1.0000 0.1305356689
C   C95       1.0  0.87810  0.14020  0.76460  1.0000 0.1305356689
C   C96       1.0  0.62190  0.64020  0.23540  1.0000 0.1305356689
C   C97       1.0  0.43880  0.67610  0.75600  1.0000 -0.2189408675
C   C98       1.0  0.06120  0.17610  0.24400  1.0000 -0.2189408675
C   C99       1.0  0.93880  0.17610  0.74400  1.0000 -0.2189408675
C   C100      1.0  0.56120  0.67610  0.25600  1.0000 -0.2189408675
C   C101      1.0  0.39090  0.69630  0.79100  1.0000 0.0725087281
C   C102      1.0  0.10910  0.19630  0.20900  1.0000 0.0725087281
C   C103      1.0  0.89090  0.19630  0.70900  1.0000 0.0725087281
C   C104      1.0  0.60910  0.69630  0.29100  1.0000 0.0725087281
C   C105      1.0  0.24040  0.64880  0.78410  1.0000 0.0304793476
C   C106      1.0  0.25960  0.14880  0.21590  1.0000 0.0304793476
C   C107      1.0  0.74040  0.14880  0.71590  1.0000 0.0304793476
C   C108      1.0  0.75960  0.64880  0.28410  1.0000 0.0304793476
C   C109      1.0  0.27830  0.62400  0.74960  1.0000 -0.1906157872
C   C110      1.0  0.22170  0.12400  0.25040  1.0000 -0.1906157872
C   C111      1.0  0.77830  0.12400  0.75040  1.0000 -0.1906157872
C   C112      1.0  0.72170  0.62400  0.24960  1.0000 -0.1906157872
C   C113      1.0  0.34620  0.65720  0.12610  1.0000 0.0304793476
C   C114      1.0  0.15380  0.15720  0.87390  1.0000 0.0304793476
C   C115      1.0  0.84620  0.15720  0.37390  1.0000 0.0304793476
C   C116      1.0  0.65380  0.65720  0.62610  1.0000 0.0304793476
C   C117      1.0  0.28990  0.69610  0.10680  1.0000 -0.1623949723
C   C118      1.0  0.21010  0.19610  0.89320  1.0000 -0.1623949723
C   C119      1.0  0.78990  0.19610  0.39320  1.0000 -0.1623949723
C   C120      1.0  0.71010  0.69610  0.60680  1.0000 -0.1623949723
C   C121      1.0  0.30490  0.68810  0.06670  1.0000 -0.2094755099
C   C122      1.0  0.19510  0.18810  0.93330  1.0000 -0.2094755099
C   C123      1.0  0.80490  0.18810  0.43330  1.0000 -0.2094755099
C   C124      1.0  0.69510  0.68810  0.56670  1.0000 -0.2094755099
C   C125      1.0  0.37300  0.64620  0.06260  1.0000 0.1385814719
C   C126      1.0  0.12700  0.14620  0.93740  1.0000 0.1385814719
C   C127      1.0  0.87300  0.14620  0.43740  1.0000 0.1385814719
C   C128      1.0  0.62700  0.64620  0.56260  1.0000 0.1385814719
C   C129      1.0  0.41310  0.62690  0.02810  1.0000 -0.0606867848
C   C130      1.0  0.08690  0.12690  0.97190  1.0000 -0.0606867848
C   C131      1.0  0.91310  0.12690  0.47190  1.0000 -0.0606867848
C   C132      1.0  0.58690  0.62690  0.52810  1.0000 -0.0606867848
C   C133      1.0  0.49360  0.58580  0.02560  1.0000 0.1385814719
C   C134      1.0  0.00640  0.08580  0.97440  1.0000 0.1385814719
C   C135      1.0  0.99360  0.08580  0.47440  1.0000 0.1385814719
C   C136      1.0  0.50640  0.58580  0.52560  1.0000 0.1385814719
C   C137      1.0  0.54400  0.56820  0.99220  1.0000 -0.2285493287
C   C138      1.0  0.95600  0.06820  0.00780  1.0000 -0.2285493287
C   C139      1.0  0.04400  0.06820  0.50780  1.0000 -0.2285493287
C   C140      1.0  0.45600  0.56820  0.49220  1.0000 -0.2285493287
C   C141      1.0  0.61730  0.53230  0.00490  1.0000 -0.1296502734
C   C142      1.0  0.88270  0.03230  0.99510  1.0000 -0.1296502734
C   C143      1.0  0.11730  0.03230  0.49510  1.0000 -0.1296502734
C   C144      1.0  0.38270  0.53230  0.50490  1.0000 -0.1296502734
C   C145      1.0  0.60090  0.52890  0.04570  1.0000 0.0034564626
C   C146      1.0  0.89910  0.02890  0.95430  1.0000 0.0053381491
C   C147      1.0  0.10090  0.02890  0.45430  1.0000 0.0034564626
C   C148      1.0  0.39910  0.52890  0.54570  1.0000 0.0034564626
C   C149      1.0  0.38140  0.64700  0.98920  1.0000 0.1193384458
C   C150      1.0  0.11860  0.14700  0.01080  1.0000 0.1193384458
C   C151      1.0  0.88140  0.14700  0.51080  1.0000 0.1193384458
C   C152      1.0  0.61860  0.64700  0.48920  1.0000 0.1193384458
C   C153      1.0  0.31470  0.61940  0.96250  1.0000 -0.2094755099
C   C154      1.0  0.18530  0.11940  0.03750  1.0000 -0.2094755099
C   C155      1.0  0.81470  0.11940  0.53750  1.0000 -0.2094755099
C   C156      1.0  0.68530  0.61940  0.46250  1.0000 -0.2094755099
C   C157      1.0  0.27330  0.64220  0.92790  1.0000 0.0725087281
C   C158      1.0  0.22670  0.14220  0.07210  1.0000 0.0725087281
C   C159      1.0  0.77330  0.14220  0.57210  1.0000 0.0725087281
C   C160      1.0  0.72670  0.64220  0.42790  1.0000 0.0725087281
C   C161      1.0  0.36340  0.71420  0.94320  1.0000 0.0034564626
C   C162      1.0  0.13660  0.21420  0.05680  1.0000 0.0034564626
C   C163      1.0  0.86340  0.21420  0.55680  1.0000 0.0034564626
C   C164      1.0  0.63660  0.71420  0.44320  1.0000 0.0034564626
C   C165      1.0  0.40350  0.69700  0.97830  1.0000 -0.1997235427
C   C166      1.0  0.09650  0.19700  0.02170  1.0000 -0.1997235427
C   C167      1.0  0.90350  0.19700  0.52170  1.0000 -0.1997235427
C   C168      1.0  0.59650  0.69700  0.47830  1.0000 -0.1997235427
C   C169      1.0  0.66570  0.48900  0.35620  1.0000 0.0179095275
C   C170      1.0  0.83430  0.98900  0.64380  1.0000 0.0179095275
C   C171      1.0  0.16570  0.98900  0.14380  1.0000 0.0179095275
C   C172      1.0  0.33430  0.48900  0.85620  1.0000 0.0179095275
C   C173      1.0  0.69580  0.53490  0.34160  1.0000 -0.1714193905
C   C174      1.0  0.80420  0.03490  0.65840  1.0000 -0.1714193905
C   C175      1.0  0.19580  0.03490  0.15840  1.0000 -0.1714193905
C   C176      1.0  0.30420  0.53490  0.84160  1.0000 -0.1714193905
C   C177      1.0  0.60750  0.56390  0.34640  1.0000 -0.2285493287
C   C178      1.0  0.89250  0.06390  0.65360  1.0000 -0.2285493287
C   C179      1.0  0.10750  0.06390  0.15360  1.0000 -0.2285493287
C   C180      1.0  0.39250  0.56390  0.84640  1.0000 -0.2285493287
C   C181      1.0  0.52740  0.53680  0.36270  1.0000 0.1305356689
C   C182      1.0  0.97260  0.03680  0.63730  1.0000 0.1305356689
C   C183      1.0  0.02740  0.03680  0.13730  1.0000 0.1305356689
C   C184      1.0  0.47260  0.53680  0.86270  1.0000 0.1305356689
C   C185      1.0  0.42190  0.55190  0.37420  1.0000 -0.0871717027
C   C186      1.0  0.07810  0.05190  0.62580  1.0000 -0.0871717027
C   C187      1.0  0.92190  0.05190  0.12580  1.0000 -0.0871717027
C   C188      1.0  0.57810  0.55190  0.87420  1.0000 -0.0871717027
C   C189      1.0  0.34410  0.52390  0.39170  1.0000 0.1305356689
C   C190      1.0  0.15590  0.02390  0.60830  1.0000 0.1305356689
C   C191      1.0  0.84410  0.02390  0.10830  1.0000 0.1305356689
C   C192      1.0  0.65590  0.52390  0.89170  1.0000 0.1305356689
C   C193      1.0  0.23720  0.53900  0.40420  1.0000 -0.2094755099
C   C194      1.0  0.26280  0.03900  0.59580  1.0000 -0.2094755099
C   C195      1.0  0.73720  0.03900  0.09580  1.0000 -0.2094755099
C   C196      1.0  0.76280  0.53900  0.90420  1.0000 -0.2094755099
C   C197      1.0  0.18760  0.49770  0.41920  1.0000 -0.1623949723
C   C198      1.0  0.31240  0.99770  0.58080  1.0000 -0.1623949723
C   C199      1.0  0.68760  0.99770  0.08080  1.0000 -0.1623949723
C   C200      1.0  0.81240  0.49770  0.91920  1.0000 -0.1623949723
C   C201      1.0  0.26050  0.45920  0.41640  1.0000 -0.019727645
C   C202      1.0  0.23950  0.95920  0.58360  1.0000 -0.019727645
C   C203      1.0  0.76050  0.95920  0.08360  1.0000 -0.019727645
C   C204      1.0  0.73950  0.45920  0.91640  1.0000 -0.019727645
C   C205      1.0  0.39290  0.60560  0.36670  1.0000 0.1305356689
C   C206      1.0  0.10710  0.10560  0.63330  1.0000 0.1305356689
C   C207      1.0  0.89290  0.10560  0.13330  1.0000 0.1305356689
C   C208      1.0  0.60710  0.60560  0.86670  1.0000 0.1305356689
C   C209      1.0  0.31460  0.61980  0.33940  1.0000 -0.1906157872
C   C210      1.0  0.18540  0.11980  0.66060  1.0000 -0.1906157872
C   C211      1.0  0.81460  0.11980  0.16060  1.0000 -0.1906157872
C   C212      1.0  0.68540  0.61980  0.83940  1.0000 -0.1906157872
C   C213      1.0  0.29220  0.66690  0.33510  1.0000 0.0304793476
C   C214      1.0  0.20780  0.16690  0.66490  1.0000 0.0304793476
C   C215      1.0  0.79220  0.16690  0.16490  1.0000 0.0304793476
C   C216      1.0  0.70780  0.66690  0.83510  1.0000 0.0304793476
C   C217      1.0  0.41790  0.69230  0.38080  1.0000 0.0034564626
C   C218      1.0  0.08210  0.19230  0.61920  1.0000 0.0034564626
C   C219      1.0  0.91790  0.19230  0.11920  1.0000 0.0034564626
C   C220      1.0  0.58210  0.69230  0.88080  1.0000 0.0034564626
C   C221      1.0  0.44700  0.64410  0.38850  1.0000 -0.1906157872
C   C222      1.0  0.05300  0.14410  0.61150  1.0000 -0.1906157872
C   C223      1.0  0.94700  0.14410  0.11150  1.0000 -0.1906157872
C   C224      1.0  0.55300  0.64410  0.88850  1.0000 -0.1906157872
C   C225      1.0  0.83250  0.94830  0.18250  1.0000 0.0811550663
C   C226      1.0  0.66750  0.44830  0.81750  1.0000 0.0811550663
C   C227      1.0  0.33250  0.44830  0.31750  1.0000 0.0811550663
C   C228      1.0  0.16750  0.94830  0.68250  1.0000 0.0811550663
C   C229      1.0  0.82750  0.94420  0.22380  1.0000 -0.1799582914
C   C230      1.0  0.67250  0.44420  0.77620  1.0000 -0.1799582914
C   C231      1.0  0.32750  0.44420  0.27620  1.0000 -0.1799582914
C   C232      1.0  0.17250  0.94420  0.72380  1.0000 -0.1799582914
C   C233      1.0  0.91560  0.91880  0.23690  1.0000 -0.1799582914
C   C234      1.0  0.58440  0.41880  0.76310  1.0000 -0.1799582914
C   C235      1.0  0.41560  0.41880  0.26310  1.0000 -0.1799582914
C   C236      1.0  0.08440  0.91880  0.73690  1.0000 -0.1799582914
C   C237      1.0  0.98080  0.90920  0.20110  1.0000 0.1305356689
C   C238      1.0  0.51920  0.40920  0.79890  1.0000 0.1305356689
C   C239      1.0  0.48080  0.40920  0.29890  1.0000 0.1305356689
C   C240      1.0  0.01920  0.90920  0.70110  1.0000 0.1305356689
C   C241      1.0  0.07350  0.88300  0.19820  1.0000 -0.0698078722
C   C242      1.0  0.42650  0.38300  0.80180  1.0000 -0.0698078722
C   C243      1.0  0.57350  0.38300  0.30180  1.0000 -0.0698078722
C   C244      1.0  0.92650  0.88300  0.69820  1.0000 -0.0698078722
C   C245      1.0  0.12540  0.87170  0.16240  1.0000 0.1385814719
C   C246      1.0  0.37460  0.37170  0.83760  1.0000 0.1385814719
C   C247      1.0  0.62540  0.37170  0.33760  1.0000 0.1385814719
C   C248      1.0  0.87460  0.87170  0.66240  1.0000 0.1385814719
C   C249      1.0  0.21420  0.83780  0.15730  1.0000 -0.2189408675
C   C250      1.0  0.28580  0.33780  0.84270  1.0000 -0.2189408675
C   C251      1.0  0.71420  0.33780  0.34270  1.0000 -0.2189408675
C   C252      1.0  0.78580  0.83780  0.65730  1.0000 -0.2189408675
C   C253      1.0  0.23840  0.83680  0.11760  1.0000 -0.1623949723
C   C254      1.0  0.26160  0.33680  0.88240  1.0000 -0.1623949723
C   C255      1.0  0.73840  0.33680  0.38240  1.0000 -0.1623949723
C   C256      1.0  0.76160  0.83680  0.61760  1.0000 -0.1623949723
C   C257      1.0  0.16450  0.86880  0.09900  1.0000 0.04097387
C   C258      1.0  0.33550  0.36880  0.90100  1.0000 0.04097387
C   C259      1.0  0.66450  0.36880  0.40100  1.0000 0.04097387
C   C260      1.0  0.83550  0.86880  0.59900  1.0000 0.04097387
C   C261      1.0  0.12190  0.85980  0.23540  1.0000 0.1305356689
C   C262      1.0  0.37810  0.35980  0.76460  1.0000 0.1305356689
C   C263      1.0  0.62190  0.35980  0.26460  1.0000 0.1305356689
C   C264      1.0  0.87810  0.85980  0.73540  1.0000 0.1305356689
C   C265      1.0  0.06120  0.82390  0.25600  1.0000 -0.2189408675
C   C266      1.0  0.43880  0.32390  0.74400  1.0000 -0.2189408675
C   C267      1.0  0.56120  0.32390  0.24400  1.0000 -0.2189408675
C   C268      1.0  0.93880  0.82390  0.75600  1.0000 -0.2189408675
C   C269      1.0  0.10910  0.80370  0.29100  1.0000 0.0725087281
C   C270      1.0  0.39090  0.30370  0.70900  1.0000 0.0725087281
C   C271      1.0  0.60910  0.30370  0.20900  1.0000 0.0725087281
C   C272      1.0  0.89090  0.80370  0.79100  1.0000 0.0725087281
C   C273      1.0  0.25960  0.85120  0.28410  1.0000 0.0304793476
C   C274      1.0  0.24040  0.35120  0.71590  1.0000 0.0304793476
C   C275      1.0  0.75960  0.35120  0.21590  1.0000 0.0304793476
C   C276      1.0  0.74040  0.85120  0.78410  1.0000 0.0304793476
C   C277      1.0  0.22170  0.87600  0.24960  1.0000 -0.1906157872
C   C278      1.0  0.27830  0.37600  0.75040  1.0000 -0.1906157872
C   C279      1.0  0.72170  0.37600  0.25040  1.0000 -0.1906157872
C   C280      1.0  0.77830  0.87600  0.74960  1.0000 -0.1906157872
C   C281      1.0  0.15380  0.84280  0.62610  1.0000 0.0304793476
C   C282      1.0  0.34620  0.34280  0.37390  1.0000 0.0304793476
C   C283      1.0  0.65380  0.34280  0.87390  1.0000 0.0304793476
C   C284      1.0  0.84620  0.84280  0.12610  1.0000 0.0304793476
C   C285      1.0  0.21010  0.80390  0.60680  1.0000 -0.1623949723
C   C286      1.0  0.28990  0.30390  0.39320  1.0000 -0.1623949723
C   C287      1.0  0.71010  0.30390  0.89320  1.0000 -0.1623949723
C   C288      1.0  0.78990  0.80390  0.10680  1.0000 -0.1623949723
C   C289      1.0  0.19510  0.81190  0.56670  1.0000 -0.2094755099
C   C290      1.0  0.30490  0.31190  0.43330  1.0000 -0.2094755099
C   C291      1.0  0.69510  0.31190  0.93330  1.0000 -0.2094755099
C   C292      1.0  0.80490  0.81190  0.06670  1.0000 -0.2094755099
C   C293      1.0  0.12700  0.85380  0.56260  1.0000 0.1385814719
C   C294      1.0  0.37300  0.35380  0.43740  1.0000 0.1385814719
C   C295      1.0  0.62700  0.35380  0.93740  1.0000 0.1385814719
C   C296      1.0  0.87300  0.85380  0.06260  1.0000 0.1385814719
C   C297      1.0  0.08690  0.87310  0.52810  1.0000 -0.0606867848
C   C298      1.0  0.41310  0.37310  0.47190  1.0000 -0.0606867848
C   C299      1.0  0.58690  0.37310  0.97190  1.0000 -0.0606867848
C   C300      1.0  0.91310  0.87310  0.02810  1.0000 -0.0606867848
C   C301      1.0  0.00640  0.91420  0.52560  1.0000 0.1385814719
C   C302      1.0  0.49360  0.41420  0.47440  1.0000 0.1385814719
C   C303      1.0  0.50640  0.41420  0.97440  1.0000 0.1385814719
C   C304      1.0  0.99360  0.91420  0.02560  1.0000 0.1385814719
C   C305      1.0  0.95600  0.93180  0.49220  1.0000 -0.2285493287
C   C306      1.0  0.54400  0.43180  0.50780  1.0000 -0.2285493287
C   C307      1.0  0.45600  0.43180  0.00780  1.0000 -0.2285493287
C   C308      1.0  0.04400  0.93180  0.99220  1.0000 -0.2285493287
C   C309      1.0  0.88270  0.96770  0.50490  1.0000 -0.1296502734
C   C310      1.0  0.61730  0.46770  0.49510  1.0000 -0.1296502734
C   C311      1.0  0.38270  0.46770  0.99510  1.0000 -0.1296502734
C   C312      1.0  0.11730  0.96770  0.00490  1.0000 -0.1296502734
C   C313      1.0  0.89910  0.97110  0.54570  1.0000 0.0034564626
C   C314      1.0  0.60090  0.47110  0.45430  1.0000 0.0034564626
C   C315      1.0  0.39910  0.47110  0.95430  1.0000 0.0034564626
C   C316      1.0  0.10090  0.97110  0.04570  1.0000 0.0034564626
C   C317      1.0  0.11860  0.85300  0.48920  1.0000 0.1193384458
C   C318      1.0  0.38140  0.35300  0.51080  1.0000 0.1193384458
C   C319      1.0  0.61860  0.35300  0.01080  1.0000 0.1193384458
C   C320      1.0  0.88140  0.85300  0.98920  1.0000 0.1193384458
C   C321      1.0  0.18530  0.88060  0.46250  1.0000 -0.2094755099
C   C322      1.0  0.31470  0.38060  0.53750  1.0000 -0.2094755099
C   C323      1.0  0.68530  0.38060  0.03750  1.0000 -0.2094755099
C   C324      1.0  0.81470  0.88060  0.96250  1.0000 -0.2094755099
C   C325      1.0  0.22670  0.85780  0.42790  1.0000 0.0725087281
C   C326      1.0  0.27330  0.35780  0.57210  1.0000 0.0725087281
C   C327      1.0  0.72670  0.35780  0.07210  1.0000 0.0725087281
C   C328      1.0  0.77330  0.85780  0.92790  1.0000 0.0725087281
C   C329      1.0  0.13660  0.78580  0.44320  1.0000 0.0034564626
C   C330      1.0  0.36340  0.28580  0.55680  1.0000 0.0034564626
C   C331      1.0  0.63660  0.28580  0.05680  1.0000 0.0034564626
C   C332      1.0  0.86340  0.78580  0.94320  1.0000 0.0034564626
C   C333      1.0  0.09650  0.80300  0.47830  1.0000 -0.1997235427
C   C334      1.0  0.40350  0.30300  0.52170  1.0000 -0.1997235427
C   C335      1.0  0.59650  0.30300  0.02170  1.0000 -0.1997235427
C   C336      1.0  0.90350  0.80300  0.97830  1.0000 -0.1997235427
N   N1        1.0  0.93680  0.01150  0.86930  1.0000 -0.2530285186
N   N2        1.0  0.56320  0.51150  0.13070  1.0000 -0.2530285186
N   N3        1.0  0.43680  0.51150  0.63070  1.0000 -0.2530285186
N   N4        1.0  0.06320  0.01150  0.36930  1.0000 -0.2530285186
N   N5        1.0  0.14260  0.02680  0.89940  1.0000 -0.2370303134
N   N6        1.0  0.35740  0.52680  0.10060  1.0000 -0.2370303134
N   N7        1.0  0.64260  0.52680  0.60060  1.0000 -0.2370303134
N   N8        1.0  0.85740  0.02680  0.39940  1.0000 -0.2370303134
N   N9        1.0  0.16730  0.79560  0.85560  1.0000 -0.1997235427
N   N10       1.0  0.33270  0.29560  0.14440  1.0000 -0.1997235427
N   N11       1.0  0.66730  0.29560  0.64440  1.0000 -0.1997235427
N   N12       1.0  0.83270  0.79560  0.35560  1.0000 -0.1997235427
N   N13       1.0  0.58220  0.57130  0.66790  1.0000 -0.1997235427
N   N14       1.0  0.91780  0.07130  0.33210  1.0000 -0.1997235427
N   N15       1.0  0.08220  0.07130  0.83210  1.0000 -0.1997235427
N   N16       1.0  0.41780  0.57130  0.16790  1.0000 -0.1997235427
N   N17       1.0  0.40310  0.61210  0.62520  1.0000 -0.2285493287
N   N18       1.0  0.09690  0.11210  0.37480  1.0000 -0.2285493287
N   N19       1.0  0.90310  0.11210  0.87480  1.0000 -0.2285493287
N   N20       1.0  0.59690  0.61210  0.12520  1.0000 -0.2285493287
N   N21       1.0  0.29760  0.68300  0.80550  1.0000 -0.2094755099
N   N22       1.0  0.20240  0.18300  0.19450  1.0000 -0.2094755099
N   N23       1.0  0.79760  0.18300  0.69450  1.0000 -0.2094755099
N   N24       1.0  0.70240  0.68300  0.30550  1.0000 -0.2094755099
N   N25       1.0  0.39640  0.62840  0.09980  1.0000 -0.2285493287
N   N26       1.0  0.10360  0.12840  0.90020  1.0000 -0.2285493287
N   N27       1.0  0.89640  0.12840  0.40020  1.0000 -0.2285493287
N   N28       1.0  0.60360  0.62840  0.59980  1.0000 -0.2285493287
N   N29       1.0  0.52420  0.56090  0.05900  1.0000 -0.2530285186
N   N30       1.0  0.97580  0.06090  0.94100  1.0000 -0.2530285186
N   N31       1.0  0.02420  0.06090  0.44100  1.0000 -0.2530285186
N   N32       1.0  0.47580  0.56090  0.55900  1.0000 -0.2530285186
N   N33       1.0  0.29420  0.68860  0.91820  1.0000 -0.2189408675
N   N34       1.0  0.20580  0.18860  0.08180  1.0000 -0.2189408675
N   N35       1.0  0.79420  0.18860  0.58180  1.0000 -0.2189408675
N   N36       1.0  0.70580  0.68860  0.41820  1.0000 -0.2189408675
N   N37       1.0  0.56320  0.48850  0.36930  1.0000 -0.2530285186
N   N38       1.0  0.93680  0.98850  0.63070  1.0000 -0.2530285186
N   N39       1.0  0.06320  0.98850  0.13070  1.0000 -0.2530285186
N   N40       1.0  0.43680  0.48850  0.86930  1.0000 -0.2530285186
N   N41       1.0  0.35740  0.47320  0.39940  1.0000 -0.2370303134
N   N42       1.0  0.14260  0.97320  0.60060  1.0000 -0.2370303134
N   N43       1.0  0.85740  0.97320  0.10060  1.0000 -0.2370303134
N   N44       1.0  0.64260  0.47320  0.89940  1.0000 -0.2370303134
N   N45       1.0  0.33270  0.70440  0.35560  1.0000 -0.1997235427
N   N46       1.0  0.16730  0.20440  0.64440  1.0000 -0.1997235427
N   N47       1.0  0.83270  0.20440  0.14440  1.0000 -0.1997235427
N   N48       1.0  0.66730  0.70440  0.85560  1.0000 -0.1997235427
N   N49       1.0  0.91780  0.92870  0.16790  1.0000 -0.1997235427
N   N50       1.0  0.58220  0.42870  0.83210  1.0000 -0.1997235427
N   N51       1.0  0.41780  0.42870  0.33210  1.0000 -0.1997235427
N   N52       1.0  0.08220  0.92870  0.66790  1.0000 -0.1997235427
N   N53       1.0  0.09690  0.88790  0.12520  1.0000 -0.2285493287
N   N54       1.0  0.40310  0.38790  0.87480  1.0000 -0.2285493287
N   N55       1.0  0.59690  0.38790  0.37480  1.0000 -0.2285493287
N   N56       1.0  0.90310  0.88790  0.62520  1.0000 -0.2285493287
N   N57       1.0  0.20240  0.81700  0.30550  1.0000 -0.2094755099
N   N58       1.0  0.29760  0.31700  0.69450  1.0000 -0.2094755099
N   N59       1.0  0.70240  0.31700  0.19450  1.0000 -0.2094755099
N   N60       1.0  0.79760  0.81700  0.80550  1.0000 -0.2094755099
N   N61       1.0  0.10360  0.87160  0.59980  1.0000 -0.2285493287
N   N62       1.0  0.39640  0.37160  0.40020  1.0000 -0.2285493287
N   N63       1.0  0.60360  0.37160  0.90020  1.0000 -0.2285493287
N   N64       1.0  0.89640  0.87160  0.09980  1.0000 -0.2285493287
N   N65       1.0  0.97580  0.93910  0.55900  1.0000 -0.2530285186
N   N66       1.0  0.52420  0.43910  0.44100  1.0000 -0.2530285186
N   N67       1.0  0.47580  0.43910  0.94100  1.0000 -0.2530285186
N   N68       1.0  0.02420  0.93910  0.05900  1.0000 -0.2530285186
N   N69       1.0  0.20580  0.81140  0.41820  1.0000 -0.2189408675
N   N70       1.0  0.29420  0.31140  0.58180  1.0000 -0.2189408675
N   N71       1.0  0.70580  0.31140  0.08180  1.0000 -0.2189408675
N   N72       1.0  0.79420  0.81140  0.91820  1.0000 -0.2189408675
