# DDEC6 charges by PACMAN v1.1 (https://github.com/mtap-research/PACMAN-charge/)
data_2006[Zn][pcu]3[FSR]1
_chemical_formula_sum              "Zn8 H24 C48 O26"
_cell_length_a       18.3014
_cell_length_b       18.3014
_cell_length_c       18.3014
_cell_angle_alpha    60
_cell_angle_beta     60
_cell_angle_gamma    60

_symmetry_space_group_name_H-M    "P 1"
_symmetry_Int_Tables_number       1

loop_
  _symmetry_equiv_pos_as_xyz
  'x, y, z'

loop_
  _atom_site_type_symbol
  _atom_site_label
  _atom_site_symmetry_multiplicity
  _atom_site_fract_x
  _atom_site_fract_y
  _atom_site_fract_z
  _atom_site_occupancy
  _atom_site_charge
Zn  Zn1       1.0  0.20660  0.20660  0.38020  1.0000 0.9617992473
Zn  Zn2       1.0  0.38020  0.20660  0.20660  1.0000 0.9617992473
Zn  Zn3       1.0  0.20660  0.38020  0.20660  1.0000 0.9617992473
Zn  Zn4       1.0  0.79340  0.79340  0.79340  1.0000 0.9652197592
Zn  Zn5       1.0  0.61980  0.79340  0.79340  1.0000 0.9652197592
Zn  Zn6       1.0  0.79340  0.61980  0.79340  1.0000 0.9617992473
Zn  Zn7       1.0  0.79340  0.79340  0.61980  1.0000 0.9617992473
Zn  Zn8       1.0  0.20660  0.20660  0.20660  1.0000 0.9617992473
H   H1        1.0  0.33680  0.04780  0.56760  1.0000 0.1230416966
H   H2        1.0  0.56760  0.33680  0.04780  1.0000 0.1230416966
H   H3        1.0  0.04780  0.56760  0.33680  1.0000 0.1230416966
H   H4        1.0  0.66320  0.95220  0.95220  1.0000 0.1230416966
H   H5        1.0  0.43240  0.95220  0.95220  1.0000 0.1230416966
H   H6        1.0  0.95220  0.43240  0.66320  1.0000 0.1230416966
H   H7        1.0  0.43240  0.66320  0.95220  1.0000 0.1230416966
H   H8        1.0  0.95220  0.95220  0.43240  1.0000 0.1230416966
H   H9        1.0  0.95220  0.95220  0.66320  1.0000 0.1230416966
H   H10       1.0  0.95220  0.43240  0.95220  1.0000 0.1230416966
H   H11       1.0  0.66320  0.95220  0.43240  1.0000 0.1230416966
H   H12       1.0  0.95220  0.66320  0.95220  1.0000 0.1230416966
H   H13       1.0  0.04780  0.33680  0.04780  1.0000 0.1230416966
H   H14       1.0  0.56760  0.04780  0.33680  1.0000 0.1230416966
H   H15       1.0  0.04780  0.56760  0.04780  1.0000 0.1230416966
H   H16       1.0  0.04780  0.04780  0.33680  1.0000 0.1230416966
H   H17       1.0  0.33680  0.56760  0.04780  1.0000 0.1230416966
H   H18       1.0  0.04780  0.04780  0.56760  1.0000 0.1230416966
H   H19       1.0  0.33680  0.04780  0.04780  1.0000 0.1230416966
H   H20       1.0  0.04780  0.33680  0.56760  1.0000 0.1230416966
H   H21       1.0  0.56760  0.04780  0.04780  1.0000 0.1230416966
H   H22       1.0  0.95220  0.66320  0.43240  1.0000 0.1230416966
H   H23       1.0  0.66320  0.43240  0.95220  1.0000 0.1230416966
H   H24       1.0  0.43240  0.95220  0.66320  1.0000 0.1230416966
C   C1        1.0  0.38950  0.11050  0.38950  1.0000 0.5913370482
C   C2        1.0  0.38950  0.38950  0.11050  1.0000 0.5913370482
C   C3        1.0  0.11050  0.38950  0.38950  1.0000 0.5913370482
C   C4        1.0  0.61050  0.88950  0.88950  1.0000 0.5913370482
C   C5        1.0  0.88950  0.61050  0.61050  1.0000 0.5913370482
C   C6        1.0  0.61050  0.61050  0.88950  1.0000 0.5913370482
C   C7        1.0  0.88950  0.88950  0.61050  1.0000 0.5913370482
C   C8        1.0  0.88950  0.61050  0.88950  1.0000 0.5913370482
C   C9        1.0  0.61050  0.88950  0.61050  1.0000 0.5913370482
C   C10       1.0  0.11050  0.38950  0.11050  1.0000 0.5913370482
C   C11       1.0  0.11050  0.11050  0.38950  1.0000 0.5913370482
C   C12       1.0  0.38950  0.11050  0.11050  1.0000 0.5913370482
C   C13       1.0  0.44520  0.05480  0.44520  1.0000 -0.0704318526
C   C14       1.0  0.44520  0.44520  0.05480  1.0000 -0.0704318526
C   C15       1.0  0.05480  0.44520  0.44520  1.0000 -0.0704318526
C   C16       1.0  0.55480  0.94520  0.94520  1.0000 -0.0704318526
C   C17       1.0  0.94520  0.55480  0.55480  1.0000 -0.0704318526
C   C18       1.0  0.55480  0.55480  0.94520  1.0000 -0.0704318526
C   C19       1.0  0.94520  0.94520  0.55480  1.0000 -0.0704318526
C   C20       1.0  0.94520  0.55480  0.94520  1.0000 -0.0704318526
C   C21       1.0  0.55480  0.94520  0.55480  1.0000 -0.0704318526
C   C22       1.0  0.05480  0.44520  0.05480  1.0000 -0.0704318526
C   C23       1.0  0.05480  0.05480  0.44520  1.0000 -0.0704318526
C   C24       1.0  0.44520  0.05480  0.05480  1.0000 -0.0704318526
C   C25       1.0  0.40740  0.02640  0.53980  1.0000 -0.0838916993
C   C26       1.0  0.53980  0.40740  0.02640  1.0000 -0.0838916993
C   C27       1.0  0.02640  0.53980  0.40740  1.0000 -0.0838916993
C   C28       1.0  0.59260  0.97360  0.97360  1.0000 -0.0838916993
C   C29       1.0  0.46020  0.97360  0.97360  1.0000 -0.0838916993
C   C30       1.0  0.97360  0.46020  0.59260  1.0000 -0.0838916993
C   C31       1.0  0.46020  0.59260  0.97360  1.0000 -0.0838916993
C   C32       1.0  0.97360  0.97360  0.46020  1.0000 -0.0838916993
C   C33       1.0  0.97360  0.97360  0.59260  1.0000 -0.0838916993
C   C34       1.0  0.97360  0.46020  0.97360  1.0000 -0.0838916993
C   C35       1.0  0.59260  0.97360  0.46020  1.0000 -0.0838916993
C   C36       1.0  0.97360  0.59260  0.97360  1.0000 -0.0838916993
C   C37       1.0  0.02640  0.40740  0.02640  1.0000 -0.0838916993
C   C38       1.0  0.53980  0.02640  0.40740  1.0000 -0.0838916993
C   C39       1.0  0.02640  0.53980  0.02640  1.0000 -0.0838916993
C   C40       1.0  0.02640  0.02640  0.40740  1.0000 -0.0838916993
C   C41       1.0  0.40740  0.53980  0.02640  1.0000 -0.0838916993
C   C42       1.0  0.02640  0.02640  0.53980  1.0000 -0.0838916993
C   C43       1.0  0.40740  0.02640  0.02640  1.0000 -0.0838916993
C   C44       1.0  0.02640  0.40740  0.53980  1.0000 -0.0838916993
C   C45       1.0  0.53980  0.02640  0.02640  1.0000 -0.0838916993
C   C46       1.0  0.97360  0.59260  0.46020  1.0000 -0.0838916993
C   C47       1.0  0.59260  0.46020  0.97360  1.0000 -0.0838916993
C   C48       1.0  0.46020  0.97360  0.59260  1.0000 -0.0838916993
O   O1        1.0  0.25000  0.25000  0.25000  1.0000 -1.0294897922
O   O2        1.0  0.75000  0.75000  0.75000  1.0000 -1.0294897922
O   O3        1.0  0.30470  0.13390  0.42750  1.0000 -0.534620793
O   O4        1.0  0.42750  0.30470  0.13390  1.0000 -0.534620793
O   O5        1.0  0.13390  0.42750  0.30470  1.0000 -0.534620793
O   O6        1.0  0.69530  0.86610  0.86610  1.0000 -0.534620793
O   O7        1.0  0.57250  0.86610  0.86610  1.0000 -0.534620793
O   O8        1.0  0.86610  0.57250  0.69530  1.0000 -0.534620793
O   O9        1.0  0.57250  0.69530  0.86610  1.0000 -0.5355301269
O   O10       1.0  0.86610  0.86610  0.57250  1.0000 -0.534620793
O   O11       1.0  0.86610  0.86610  0.69530  1.0000 -0.534620793
O   O12       1.0  0.86610  0.57250  0.86610  1.0000 -0.534620793
O   O13       1.0  0.69530  0.86610  0.57250  1.0000 -0.534620793
O   O14       1.0  0.86610  0.69530  0.86610  1.0000 -0.5355301269
O   O15       1.0  0.13390  0.30470  0.13390  1.0000 -0.534620793
O   O16       1.0  0.42750  0.13390  0.30470  1.0000 -0.534620793
O   O17       1.0  0.13390  0.42750  0.13390  1.0000 -0.534620793
O   O18       1.0  0.13390  0.13390  0.30470  1.0000 -0.534620793
O   O19       1.0  0.30470  0.42750  0.13390  1.0000 -0.534620793
O   O20       1.0  0.13390  0.13390  0.42750  1.0000 -0.534620793
O   O21       1.0  0.30470  0.13390  0.13390  1.0000 -0.534620793
O   O22       1.0  0.13390  0.30470  0.42750  1.0000 -0.534620793
O   O23       1.0  0.42750  0.13390  0.13390  1.0000 -0.534620793
O   O24       1.0  0.86610  0.69530  0.57250  1.0000 -0.534620793
O   O25       1.0  0.69530  0.57250  0.86610  1.0000 -0.534620793
O   O26       1.0  0.57250  0.86610  0.69530  1.0000 -0.534620793
