# DDEC6 charges by PACMAN v1.1 (https://github.com/mtap-research/PACMAN-charge/)
data_2006[Cu][nan]3[FSR]1
_chemical_formula_sum              "Cu4 H16 C32 N12 O16"
_cell_length_a       4.7094
_cell_length_b       20.2467
_cell_length_c       11.2824
_cell_angle_alpha    90
_cell_angle_beta     98.827
_cell_angle_gamma    90

_symmetry_space_group_name_H-M    "P 1"
_symmetry_Int_Tables_number       1

loop_
  _symmetry_equiv_pos_as_xyz
  'x, y, z'

loop_
  _atom_site_type_symbol
  _atom_site_label
  _atom_site_symmetry_multiplicity
  _atom_site_fract_x
  _atom_site_fract_y
  _atom_site_fract_z
  _atom_site_occupancy
  _atom_site_charge
Cu  Cu1       1.0  0.32420  0.66250  0.44490  1.0000 0.7305520902
Cu  Cu2       1.0  0.67580  0.16250  0.05510  1.0000 0.7305520902
Cu  Cu3       1.0  0.67580  0.33750  0.55510  1.0000 0.7305520902
Cu  Cu4       1.0  0.32420  0.83750  0.94490  1.0000 0.7305520902
H   H1        1.0  0.28000  0.90950  0.41700  1.0000 0.1146293486
H   H2        1.0  0.72000  0.40950  0.08300  1.0000 0.1146293486
H   H3        1.0  0.72000  0.09050  0.58300  1.0000 0.1146293486
H   H4        1.0  0.28000  0.59050  0.91700  1.0000 0.1146293486
H   H5        1.0  0.47600  0.81130  0.50500  1.0000 0.1361053716
H   H6        1.0  0.52400  0.31130  0.99500  1.0000 0.1361053716
H   H7        1.0  0.52400  0.18870  0.49500  1.0000 0.1361053716
H   H8        1.0  0.47600  0.68870  0.00500  1.0000 0.1361053716
H   H9        1.0  0.53900  0.55080  0.32000  1.0000 0.1361053716
H   H10       1.0  0.46100  0.05080  0.18000  1.0000 0.1361053716
H   H11       1.0  0.46100  0.44920  0.68000  1.0000 0.1361053716
H   H12       1.0  0.53900  0.94920  0.82000  1.0000 0.1361053716
H   H13       1.0  0.32300  0.55990  0.64500  1.0000 0.1152744274
H   H14       1.0  0.67700  0.05990  0.85500  1.0000 0.1152744274
H   H15       1.0  0.67700  0.44010  0.35500  1.0000 0.1152744274
H   H16       1.0  0.32300  0.94010  0.14500  1.0000 0.1152744274
C   C1        1.0  0.08800  0.75300  0.27370  1.0000 0.0602664003
C   C2        1.0  0.91200  0.25300  0.22630  1.0000 0.0602664003
C   C3        1.0  0.91200  0.24700  0.72630  1.0000 0.0602664003
C   C4        1.0  0.08800  0.74700  0.77370  1.0000 0.0602664003
C   C5        1.0  0.98300  0.81090  0.22050  1.0000 0.0754867549
C   C6        1.0  0.01700  0.31090  0.27950  1.0000 0.0754867549
C   C7        1.0  0.01700  0.18910  0.77950  1.0000 0.0754867549
C   C8        1.0  0.98300  0.68910  0.72050  1.0000 0.0754867549
C   C9        1.0  0.24300  0.86790  0.37300  1.0000 0.0502718928
C   C10       1.0  0.75700  0.36790  0.12700  1.0000 0.0502718928
C   C11       1.0  0.75700  0.13210  0.62700  1.0000 0.0502718928
C   C12       1.0  0.24300  0.63210  0.87300  1.0000 0.0502718928
C   C13       1.0  0.35400  0.81110  0.42900  1.0000 0.0602664003
C   C14       1.0  0.64600  0.31110  0.07100  1.0000 0.0602664003
C   C15       1.0  0.64600  0.18890  0.57100  1.0000 0.0602664003
C   C16       1.0  0.35400  0.68890  0.92900  1.0000 0.0602664003
C   C17       1.0  0.02000  0.68410  0.22170  1.0000 0.5311596672
C   C18       1.0  0.98000  0.18410  0.27830  1.0000 0.5311596672
C   C19       1.0  0.98000  0.31590  0.77830  1.0000 0.5311596672
C   C20       1.0  0.02000  0.81590  0.72170  1.0000 0.5311596672
C   C21       1.0  0.78400  0.81850  0.10520  1.0000 0.5311596672
C   C22       1.0  0.21600  0.31850  0.39480  1.0000 0.5311596672
C   C23       1.0  0.21600  0.18150  0.89480  1.0000 0.5311596672
C   C24       1.0  0.78400  0.68150  0.60520  1.0000 0.5311596672
C   C25       1.0  0.51600  0.53100  0.39640  1.0000 0.0602664003
C   C26       1.0  0.48400  0.03100  0.10360  1.0000 0.0602664003
C   C27       1.0  0.48400  0.46900  0.60360  1.0000 0.0602664003
C   C28       1.0  0.51600  0.96900  0.89640  1.0000 0.0602664003
C   C29       1.0  0.39200  0.53560  0.58200  1.0000 0.0333574581
C   C30       1.0  0.60800  0.03560  0.91800  1.0000 0.0333574581
C   C31       1.0  0.60800  0.46440  0.41800  1.0000 0.0333574581
C   C32       1.0  0.39200  0.96440  0.08200  1.0000 0.0333574581
N   N1        1.0  0.26800  0.75310  0.37740  1.0000 -0.2065603417
N   N2        1.0  0.73200  0.25310  0.12260  1.0000 -0.2065603417
N   N3        1.0  0.73200  0.24690  0.62260  1.0000 -0.2065603417
N   N4        1.0  0.26800  0.74690  0.87740  1.0000 -0.2065603417
N   N5        1.0  0.08000  0.86800  0.26800  1.0000 -0.2398460229
N   N6        1.0  0.92000  0.36800  0.23200  1.0000 -0.2398460229
N   N7        1.0  0.92000  0.13200  0.73200  1.0000 -0.2398460229
N   N8        1.0  0.08000  0.63200  0.76800  1.0000 -0.2398460229
N   N9        1.0  0.42600  0.56590  0.48070  1.0000 -0.1624783446
N   N10       1.0  0.57400  0.06590  0.01930  1.0000 -0.1624783446
N   N11       1.0  0.57400  0.43410  0.51930  1.0000 -0.1624783446
N   N12       1.0  0.42600  0.93410  0.98070  1.0000 -0.1624783446
O   O1        1.0  0.14900  0.63920  0.28160  1.0000 -0.5039673914
O   O2        1.0  0.85100  0.13920  0.21840  1.0000 -0.5039673914
O   O3        1.0  0.85100  0.36080  0.71840  1.0000 -0.5039673914
O   O4        1.0  0.14900  0.86080  0.78160  1.0000 -0.5039673914
O   O5        1.0  0.87300  0.67860  0.12360  1.0000 -0.4845657219
O   O6        1.0  0.12700  0.17860  0.37640  1.0000 -0.4845657219
O   O7        1.0  0.12700  0.32140  0.87640  1.0000 -0.4845657219
O   O8        1.0  0.87300  0.82140  0.62360  1.0000 -0.4845657219
O   O9        1.0  0.52500  0.80750  0.10800  1.0000 -0.4894232024
O   O10       1.0  0.47500  0.30750  0.39200  1.0000 -0.4894232024
O   O11       1.0  0.47500  0.19250  0.89200  1.0000 -0.4894232024
O   O12       1.0  0.52500  0.69250  0.60800  1.0000 -0.4894232024
O   O13       1.0  0.88400  0.83140  0.01360  1.0000 -0.5480602254
O   O14       1.0  0.11600  0.33140  0.48640  1.0000 -0.5480602254
O   O15       1.0  0.11600  0.16860  0.98640  1.0000 -0.5480602254
O   O16       1.0  0.88400  0.66860  0.51360  1.0000 -0.5480602254
