# DDEC6 charges by PACMAN v1.1 (https://github.com/mtap-research/PACMAN-charge/)
data_2006[Cd][nan]3[FSR]3
_chemical_formula_sum              "Cd32 H288 C336 N16 O192"
_cell_length_a       29.5615
_cell_length_b       29.5615
_cell_length_c       29.5615
_cell_angle_alpha    92.9989
_cell_angle_beta     92.9989
_cell_angle_gamma    153.556

_symmetry_space_group_name_H-M    "P 1"
_symmetry_Int_Tables_number       1

loop_
  _symmetry_equiv_pos_as_xyz
  'x, y, z'

loop_
  _atom_site_type_symbol
  _atom_site_label
  _atom_site_symmetry_multiplicity
  _atom_site_fract_x
  _atom_site_fract_y
  _atom_site_fract_z
  _atom_site_occupancy
  _atom_site_charge
Cd  Cd1       1.0  0.64153  0.00720  0.30045  1.0000 0.9104933546
Cd  Cd2       1.0  0.59108  0.39153  0.13433  1.0000 0.9104933546
Cd  Cd3       1.0  0.25720  0.45675  0.86567  1.0000 0.9104933546
Cd  Cd4       1.0  0.70675  0.34108  0.69955  1.0000 0.9104933546
Cd  Cd5       1.0  0.60847  0.74280  0.19955  1.0000 0.9104933546
Cd  Cd6       1.0  0.65892  0.35847  0.36567  1.0000 0.9104933546
Cd  Cd7       1.0  0.99280  0.29325  0.63433  1.0000 0.9104933546
Cd  Cd8       1.0  0.54325  0.40892  0.80045  1.0000 0.9104933546
Cd  Cd9       1.0  0.36662  0.86549  0.23959  1.0000 1.0445473398
Cd  Cd10      1.0  0.37703  0.11662  0.00113  1.0000 1.0445473398
Cd  Cd11      1.0  0.11549  0.37590  0.99887  1.0000 1.0445473398
Cd  Cd12      1.0  0.62590  0.12703  0.76041  1.0000 1.0445473398
Cd  Cd13      1.0  0.88338  0.88451  0.26041  1.0000 1.0451801823
Cd  Cd14      1.0  0.87297  0.63338  0.49887  1.0000 1.0451801823
Cd  Cd15      1.0  0.13451  0.37410  0.50113  1.0000 1.0445473398
Cd  Cd16      1.0  0.62410  0.62297  0.73959  1.0000 1.0445473398
Cd  Cd17      1.0  0.39701  0.07879  0.21630  1.0000 0.966461222
Cd  Cd18      1.0  0.43071  0.14701  0.81822  1.0000 0.966461222
Cd  Cd19      1.0  0.32879  0.61249  0.18178  1.0000 0.966461222
Cd  Cd20      1.0  0.86249  0.18071  0.78370  1.0000 0.966461222
Cd  Cd21      1.0  0.85299  0.67121  0.28370  1.0000 0.966461222
Cd  Cd22      1.0  0.81929  0.60299  0.68178  1.0000 0.966461222
Cd  Cd23      1.0  0.92121  0.13751  0.31822  1.0000 0.966461222
Cd  Cd24      1.0  0.38751  0.56929  0.71630  1.0000 0.966461222
Cd  Cd25      1.0  0.15042  0.78941  0.30831  1.0000 0.9335179285
Cd  Cd26      1.0  0.09211  0.90042  0.86101  1.0000 0.9335179285
Cd  Cd27      1.0  0.03941  0.23110  0.13899  1.0000 0.9335179285
Cd  Cd28      1.0  0.48110  0.84211  0.69169  1.0000 0.9335179285
Cd  Cd29      1.0  0.09958  0.96059  0.19169  1.0000 0.9335179285
Cd  Cd30      1.0  0.15789  0.84958  0.63899  1.0000 0.9335179285
Cd  Cd31      1.0  0.21059  0.51890  0.36101  1.0000 0.9335179285
Cd  Cd32      1.0  0.76890  0.90789  0.80831  1.0000 0.9335179285
H   H1        1.0  0.18780  0.64470  0.39170  1.0000 0.1199254263
H   H2        1.0  0.04610  0.93780  0.04310  1.0000 0.1199254263
H   H3        1.0  0.89470  0.00300  0.95690  1.0000 0.1199254263
H   H4        1.0  0.25300  0.79610  0.60830  1.0000 0.1199254263
H   H5        1.0  0.06220  0.10530  0.10830  1.0000 0.1199254263
H   H6        1.0  0.20390  0.81220  0.45690  1.0000 0.1199254263
H   H7        1.0  0.35530  0.74700  0.54310  1.0000 0.1199254263
H   H8        1.0  0.99700  0.95390  0.89170  1.0000 0.1199254263
H   H9        1.0  0.22230  0.74340  0.43030  1.0000 0.1121419248
H   H10       1.0  0.04200  0.97230  0.97890  1.0000 0.1121419248
H   H11       1.0  0.99340  0.06310  0.02110  1.0000 0.1121419248
H   H12       1.0  0.31310  0.79200  0.56970  1.0000 0.1121419248
H   H13       1.0  0.02770  0.00660  0.06970  1.0000 0.1121419248
H   H14       1.0  0.20800  0.77770  0.52110  1.0000 0.1121419248
H   H15       1.0  0.25660  0.68690  0.47890  1.0000 0.1121419248
H   H16       1.0  0.93690  0.95800  0.93030  1.0000 0.1121419248
H   H17       1.0  0.36070  0.91040  0.41810  1.0000 0.1199254263
H   H18       1.0  0.19260  0.11070  0.95030  1.0000 0.1199254263
H   H19       1.0  0.16040  0.24230  0.04970  1.0000 0.1199254263
H   H20       1.0  0.49230  0.94260  0.58190  1.0000 0.1199254263
H   H21       1.0  0.88930  0.83960  0.08190  1.0000 0.1199254263
H   H22       1.0  0.05740  0.63930  0.54970  1.0000 0.1199254263
H   H23       1.0  0.08960  0.50770  0.45030  1.0000 0.1199254263
H   H24       1.0  0.75770  0.80740  0.91810  1.0000 0.1199254263
H   H25       1.0  0.69920  0.28330  0.36030  1.0000 0.1121419248
H   H26       1.0  0.58890  0.44920  0.91590  1.0000 0.1121419248
H   H27       1.0  0.53330  0.67300  0.08410  1.0000 0.1121419248
H   H28       1.0  0.92300  0.33890  0.63970  1.0000 0.1121419248
H   H29       1.0  0.55080  0.46670  0.13970  1.0000 0.1121419248
H   H30       1.0  0.66110  0.30080  0.58410  1.0000 0.1121419248
H   H31       1.0  0.71670  0.07700  0.41590  1.0000 0.1121419248
H   H32       1.0  0.32700  0.41110  0.86030  1.0000 0.1121419248
H   H33       1.0  0.74590  0.26660  0.41070  1.0000 0.1121419248
H   H34       1.0  0.58520  0.49590  0.97930  1.0000 0.1121419248
H   H35       1.0  0.51660  0.60590  0.02070  1.0000 0.1121419248
H   H36       1.0  0.85590  0.33520  0.58930  1.0000 0.1121419248
H   H37       1.0  0.50410  0.48340  0.08930  1.0000 0.1121419248
H   H38       1.0  0.66480  0.25410  0.52070  1.0000 0.1121419248
H   H39       1.0  0.73340  0.14410  0.47930  1.0000 0.1121419248
H   H40       1.0  0.39410  0.41480  0.91070  1.0000 0.1121419248
H   H41       1.0  0.62310  0.10080  0.41390  1.0000 0.1199254263
H   H42       1.0  0.45920  0.37310  0.02230  1.0000 0.1199254263
H   H43       1.0  0.35080  0.43690  0.97770  1.0000 0.1199254263
H   H44       1.0  0.68690  0.20920  0.58610  1.0000 0.1199254263
H   H45       1.0  0.62690  0.64920  0.08610  1.0000 0.1199254263
H   H46       1.0  0.79080  0.37690  0.47770  1.0000 0.1199254263
H   H47       1.0  0.89920  0.31310  0.52230  1.0000 0.1199254263
H   H48       1.0  0.56310  0.54080  0.91390  1.0000 0.1199254263
H   H49       1.0  0.05010  0.46850  0.20240  1.0000 0.1199254263
H   H50       1.0  0.09770  0.80010  0.08160  1.0000 0.1199254263
H   H51       1.0  0.71850  0.01610  0.91840  1.0000 0.1199254263
H   H52       1.0  0.26610  0.84770  0.79760  1.0000 0.1199254263
H   H53       1.0  0.19990  0.28150  0.29760  1.0000 0.1199254263
H   H54       1.0  0.15230  0.94990  0.41840  1.0000 0.1199254263
H   H55       1.0  0.53150  0.73390  0.58160  1.0000 0.1199254263
H   H56       1.0  0.98390  0.90230  0.70240  1.0000 0.1199254263
H   H57       1.0  0.74320  0.16160  0.18140  1.0000 0.1121419248
H   H58       1.0  0.81180  0.49320  0.08160  1.0000 0.1121419248
H   H59       1.0  0.41160  0.73020  0.91840  1.0000 0.1121419248
H   H60       1.0  0.98020  0.56180  0.81860  1.0000 0.1121419248
H   H61       1.0  0.50680  0.58840  0.31860  1.0000 0.1121419248
H   H62       1.0  0.43820  0.25680  0.41840  1.0000 0.1121419248
H   H63       1.0  0.83840  0.01980  0.58160  1.0000 0.1121419248
H   H64       1.0  0.26980  0.18820  0.68140  1.0000 0.1121419248
H   H65       1.0  0.88480  0.34070  0.21190  1.0000 0.100689408
H   H66       1.0  0.92290  0.63480  0.04410  1.0000 0.100689408
H   H67       1.0  0.59070  0.87880  0.95590  1.0000 0.100689408
H   H68       1.0  0.12880  0.67290  0.78810  1.0000 0.100689408
H   H69       1.0  0.36520  0.40930  0.28810  1.0000 0.100689408
H   H70       1.0  0.32710  0.11520  0.45590  1.0000 0.100689408
H   H71       1.0  0.65930  0.87120  0.54410  1.0000 0.100689408
H   H72       1.0  0.12120  0.07710  0.71190  1.0000 0.100689408
H   H73       1.0  0.79960  0.12580  0.08500  1.0000 0.1121419248
H   H74       1.0  0.96460  0.54960  0.17380  1.0000 0.1121419248
H   H75       1.0  0.37580  0.79080  0.82620  1.0000 0.1121419248
H   H76       1.0  0.04080  0.71460  0.91500  1.0000 0.1121419248
H   H77       1.0  0.45040  0.62420  0.41500  1.0000 0.1121419248
H   H78       1.0  0.28540  0.20040  0.32620  1.0000 0.1121419248
H   H79       1.0  0.87420  0.95920  0.67380  1.0000 0.1121419248
H   H80       1.0  0.20920  0.03540  0.58500  1.0000 0.1121419248
H   H81       1.0  0.65893  0.96123  0.03690  1.0000 0.100689408
H   H82       1.0  0.87203  0.40893  0.19770  1.0000 0.100689408
H   H83       1.0  0.21123  0.67433  0.80230  1.0000 0.100689408
H   H84       1.0  0.92433  0.62203  0.96310  1.0000 0.100689408
H   H85       1.0  0.59107  0.78877  0.46310  1.0000 0.100689408
H   H86       1.0  0.37797  0.34107  0.30230  1.0000 0.100689408
H   H87       1.0  0.03877  0.07567  0.69770  1.0000 0.100689408
H   H88       1.0  0.32567  0.12797  0.53690  1.0000 0.100689408
H   H89       1.0  0.51430  0.81150  0.06660  1.0000 0.1121419248
H   H90       1.0  0.69770  0.26430  0.20280  1.0000 0.1121419248
H   H91       1.0  0.06150  0.49490  0.79720  1.0000 0.1121419248
H   H92       1.0  0.74490  0.44770  0.93340  1.0000 0.1121419248
H   H93       1.0  0.73570  0.93850  0.43340  1.0000 0.1121419248
H   H94       1.0  0.55230  0.48570  0.29720  1.0000 0.1121419248
H   H95       1.0  0.18850  0.25510  0.70280  1.0000 0.1121419248
H   H96       1.0  0.50510  0.30230  0.56660  1.0000 0.1121419248
H   H97       1.0  0.63350  0.10150  0.27820  1.0000 0.100689408
H   H98       1.0  0.60530  0.38350  0.03200  1.0000 0.100689408
H   H99       1.0  0.35150  0.57330  0.96800  1.0000 0.100689408
H   H100      1.0  0.82330  0.35530  0.72180  1.0000 0.100689408
H   H101      1.0  0.61650  0.64850  0.22180  1.0000 0.100689408
H   H102      1.0  0.64470  0.36650  0.46800  1.0000 0.100689408
H   H103      1.0  0.89850  0.17670  0.53200  1.0000 0.100689408
H   H104      1.0  0.42670  0.39470  0.77820  1.0000 0.100689408
H   H105      1.0  0.72910  0.25380  0.28050  1.0000 0.1286814616
H   H106      1.0  0.69860  0.47910  0.97530  1.0000 0.1286814616
H   H107      1.0  0.50380  0.72330  0.02470  1.0000 0.1286814616
H   H108      1.0  0.97330  0.44860  0.71950  1.0000 0.1286814616
H   H109      1.0  0.52090  0.49620  0.21950  1.0000 0.1286814616
H   H110      1.0  0.55140  0.27090  0.52470  1.0000 0.1286814616
H   H111      1.0  0.74620  0.02670  0.47530  1.0000 0.1286814616
H   H112      1.0  0.27670  0.30140  0.78050  1.0000 0.1286814616
H   H113      1.0  0.98920  0.41370  0.33250  1.0000 0.1503596131
H   H114      1.0  0.90670  0.73920  0.07550  1.0000 0.1503596131
H   H115      1.0  0.66370  0.83120  0.92450  1.0000 0.1503596131
H   H116      1.0  0.08120  0.65670  0.66750  1.0000 0.1503596131
H   H117      1.0  0.26080  0.33630  0.16750  1.0000 0.1503596131
H   H118      1.0  0.34330  0.01080  0.42450  1.0000 0.1503596131
H   H119      1.0  0.58630  0.91880  0.57550  1.0000 0.1503596131
H   H120      1.0  0.16880  0.09330  0.83250  1.0000 0.1503596131
H   H121      1.0  0.88070  0.25590  0.32820  1.0000 0.1199254263
H   H122      1.0  0.80250  0.63070  0.12480  1.0000 0.1199254263
H   H123      1.0  0.50590  0.67770  0.87520  1.0000 0.1199254263
H   H124      1.0  0.92770  0.55250  0.67180  1.0000 0.1199254263
H   H125      1.0  0.36930  0.49410  0.17180  1.0000 0.1199254263
H   H126      1.0  0.44750  0.11930  0.37520  1.0000 0.1199254263
H   H127      1.0  0.74410  0.07230  0.62480  1.0000 0.1199254263
H   H128      1.0  0.32230  0.19750  0.82820  1.0000 0.1199254263
H   H129      1.0  0.82730  0.40270  0.31840  1.0000 0.1286814616
H   H130      1.0  0.75890  0.57730  0.92460  1.0000 0.1286814616
H   H131      1.0  0.65270  0.83430  0.07540  1.0000 0.1286814616
H   H132      1.0  0.08430  0.50890  0.68160  1.0000 0.1286814616
H   H133      1.0  0.42270  0.34730  0.18160  1.0000 0.1286814616
H   H134      1.0  0.49110  0.17270  0.57540  1.0000 0.1286814616
H   H135      1.0  0.59730  0.91570  0.42460  1.0000 0.1286814616
H   H136      1.0  0.16570  0.24110  0.81840  1.0000 0.1286814616
H   H137      1.0  0.93280  0.55970  0.31950  1.0000 0.1121419248
H   H138      1.0  0.86330  0.68280  0.87310  1.0000 0.1121419248
H   H139      1.0  0.80970  0.99020  0.12690  1.0000 0.1121419248
H   H140      1.0  0.24020  0.61330  0.68050  1.0000 0.1121419248
H   H141      1.0  0.31720  0.19030  0.18050  1.0000 0.1121419248
H   H142      1.0  0.38670  0.06720  0.62690  1.0000 0.1121419248
H   H143      1.0  0.44030  0.75980  0.37310  1.0000 0.1121419248
H   H144      1.0  0.00980  0.13670  0.81950  1.0000 0.1121419248
H   H145      1.0  0.15530  0.68450  0.28960  1.0000 0.100689408
H   H146      1.0  0.11570  0.90530  0.97080  1.0000 0.100689408
H   H147      1.0  0.93450  0.14490  0.02920  1.0000 0.100689408
H   H148      1.0  0.39490  0.86570  0.71040  1.0000 0.100689408
H   H149      1.0  0.09470  0.06550  0.21040  1.0000 0.100689408
H   H150      1.0  0.13430  0.84470  0.52920  1.0000 0.100689408
H   H151      1.0  0.31550  0.60510  0.47080  1.0000 0.100689408
H   H152      1.0  0.85510  0.88430  0.78960  1.0000 0.100689408
H   H153      1.0  0.06000  0.53320  0.29060  1.0000 0.1286814616
H   H154      1.0  0.01940  0.81000  0.02680  1.0000 0.1286814616
H   H155      1.0  0.78320  0.99260  0.97320  1.0000 0.1286814616
H   H156      1.0  0.24260  0.76940  0.70940  1.0000 0.1286814616
H   H157      1.0  0.19000  0.21680  0.20940  1.0000 0.1286814616
H   H158      1.0  0.23060  0.94000  0.47320  1.0000 0.1286814616
H   H159      1.0  0.46680  0.75740  0.52680  1.0000 0.1286814616
H   H160      1.0  0.00740  0.98060  0.79060  1.0000 0.1286814616
H   H161      1.0  0.60960  0.89820  0.32720  1.0000 0.3263020174
H   H162      1.0  0.53240  0.35960  0.21140  1.0000 0.3263020174
H   H163      1.0  0.14820  0.32100  0.78860  1.0000 0.3263020174
H   H164      1.0  0.57100  0.28240  0.67280  1.0000 0.3263020174
H   H165      1.0  0.64040  0.85180  0.17280  1.0000 0.3263020174
H   H166      1.0  0.71760  0.39040  0.28860  1.0000 0.3263020174
H   H167      1.0  0.10180  0.42900  0.71140  1.0000 0.3263020174
H   H168      1.0  0.67900  0.46760  0.82720  1.0000 0.3263020174
H   H169      1.0  0.62300  0.89900  0.28420  1.0000 0.3443678797
H   H170      1.0  0.58880  0.37300  0.22400  1.0000 0.3443678797
H   H171      1.0  0.14900  0.36480  0.77600  1.0000 0.3443678797
H   H172      1.0  0.61480  0.33880  0.71580  1.0000 0.3443678797
H   H173      1.0  0.62700  0.85100  0.21580  1.0000 0.3443678797
H   H174      1.0  0.66120  0.37700  0.27600  1.0000 0.3443678797
H   H175      1.0  0.10100  0.38520  0.72400  1.0000 0.3443678797
H   H176      1.0  0.63520  0.41120  0.78420  1.0000 0.3443678797
H   H177      1.0  0.25930  0.68760  0.23330  1.0000 0.3471723826
H   H178      1.0  0.27600  0.00930  0.07170  1.0000 0.3471723826
H   H179      1.0  0.93760  0.20430  0.92830  1.0000 0.3471723826
H   H180      1.0  0.45430  0.02600  0.76670  1.0000 0.3471723826
H   H181      1.0  0.99070  0.06240  0.26670  1.0000 0.3471723826
H   H182      1.0  0.97400  0.74070  0.42830  1.0000 0.3471723826
H   H183      1.0  0.31240  0.54570  0.57170  1.0000 0.3471723826
H   H184      1.0  0.79570  0.72400  0.73330  1.0000 0.3471723826
H   H185      1.0  0.21490  0.67300  0.26270  1.0000 0.303713511
H   H186      1.0  0.20220  0.96490  0.04190  1.0000 0.303713511
H   H187      1.0  0.92300  0.16030  0.95810  1.0000 0.303713511
H   H188      1.0  0.41030  0.95220  0.73730  1.0000 0.303713511
H   H189      1.0  0.03510  0.07700  0.23730  1.0000 0.303713511
H   H190      1.0  0.04780  0.78510  0.45810  1.0000 0.303713511
H   H191      1.0  0.32700  0.58970  0.54190  1.0000 0.303713511
H   H192      1.0  0.83970  0.79780  0.76270  1.0000 0.303713511
H   H193      1.0  0.49350  0.93980  0.18990  1.0000 0.3606796631
H   H194      1.0  0.55360  0.24350  0.05370  1.0000 0.3606796631
H   H195      1.0  0.18980  0.49990  0.94630  1.0000 0.3606796631
H   H196      1.0  0.74990  0.30360  0.81010  1.0000 0.3606796631
H   H197      1.0  0.75650  0.81020  0.31010  1.0000 0.3606796631
H   H198      1.0  0.69640  0.50650  0.44630  1.0000 0.3606796631
H   H199      1.0  0.06020  0.25010  0.55370  1.0000 0.3606796631
H   H200      1.0  0.50010  0.44640  0.68990  1.0000 0.3606796631
H   H201      1.0  0.41440  0.83890  0.19450  1.0000 0.3795735942
H   H202      1.0  0.46990  0.16440  0.07550  1.0000 0.3795735942
H   H203      1.0  0.08890  0.39440  0.92450  1.0000 0.3795735942
H   H204      1.0  0.64440  0.21990  0.80550  1.0000 0.3795735942
H   H205      1.0  0.83560  0.91110  0.30550  1.0000 0.3795735942
H   H206      1.0  0.78010  0.58560  0.42450  1.0000 0.3795735942
H   H207      1.0  0.16110  0.35560  0.57550  1.0000 0.3795735942
H   H208      1.0  0.60560  0.53010  0.69450  1.0000 0.3795735942
H   H209      1.0  0.46920  0.03470  0.23610  1.0000 0.386751102
H   H210      1.0  0.48310  0.21920  0.93450  1.0000 0.386751102
H   H211      1.0  0.28470  0.54860  0.06550  1.0000 0.386751102
H   H212      1.0  0.79860  0.23310  0.76390  1.0000 0.386751102
H   H213      1.0  0.78080  0.71530  0.26390  1.0000 0.386751102
H   H214      1.0  0.76690  0.53080  0.56550  1.0000 0.386751102
H   H215      1.0  0.96530  0.20140  0.43450  1.0000 0.386751102
H   H216      1.0  0.45140  0.51690  0.73610  1.0000 0.386751102
H   H217      1.0  0.50730  0.04170  0.20080  1.0000 0.386751102
H   H218      1.0  0.55650  0.25730  0.96560  1.0000 0.386751102
H   H219      1.0  0.29170  0.59090  0.03440  1.0000 0.386751102
H   H220      1.0  0.84090  0.30650  0.79920  1.0000 0.386751102
H   H221      1.0  0.74270  0.70830  0.29920  1.0000 0.386751102
H   H222      1.0  0.69350  0.49270  0.53440  1.0000 0.386751102
H   H223      1.0  0.95830  0.15910  0.46560  1.0000 0.386751102
H   H224      1.0  0.40910  0.44350  0.70080  1.0000 0.386751102
H   H225      1.0  0.17730  0.72620  0.19070  1.0000 0.3996898165
H   H226      1.0  0.23660  0.92730  0.95110  1.0000 0.3996898165
H   H227      1.0  0.97620  0.28550  0.04890  1.0000 0.3996898165
H   H228      1.0  0.53550  0.98660  0.80930  1.0000 0.3996898165
H   H229      1.0  0.07270  0.02380  0.30930  1.0000 0.3996898165
H   H230      1.0  0.01340  0.82270  0.54890  1.0000 0.3996898165
H   H231      1.0  0.27380  0.46450  0.45110  1.0000 0.3996898165
H   H232      1.0  0.71450  0.76340  0.69070  1.0000 0.3996898165
H   H233      1.0  0.24870  0.82750  0.19340  1.0000 0.4081161426
H   H234      1.0  0.30530  0.99870  0.92120  1.0000 0.4081161426
H   H235      1.0  0.07750  0.38410  0.07880  1.0000 0.4081161426
H   H236      1.0  0.63410  0.05530  0.80660  1.0000 0.4081161426
H   H237      1.0  0.00130  0.92250  0.30660  1.0000 0.4081161426
H   H238      1.0  0.94470  0.75130  0.57880  1.0000 0.4081161426
H   H239      1.0  0.17250  0.36590  0.42120  1.0000 0.4081161426
H   H240      1.0  0.61590  0.69470  0.69340  1.0000 0.4081161426
H   H241      1.0  0.42170  0.15700  0.29270  1.0000 0.3996898165
H   H242      1.0  0.37900  0.17170  0.76470  1.0000 0.3996898165
H   H243      1.0  0.40700  0.61430  0.23530  1.0000 0.3996898165
H   H244      1.0  0.86430  0.12900  0.70730  1.0000 0.3996898165
H   H245      1.0  0.82830  0.59300  0.20730  1.0000 0.3996898165
H   H246      1.0  0.87100  0.57830  0.73530  1.0000 0.3996898165
H   H247      1.0  0.84300  0.13570  0.26470  1.0000 0.3996898165
H   H248      1.0  0.38570  0.62100  0.79270  1.0000 0.3996898165
H   H249      1.0  0.32460  0.08390  0.25870  1.0000 0.386751102
H   H250      1.0  0.31590  0.07460  0.74070  1.0000 0.386751102
H   H251      1.0  0.33390  0.57520  0.25930  1.0000 0.386751102
H   H252      1.0  0.82520  0.06590  0.74130  1.0000 0.386751102
H   H253      1.0  0.92540  0.66610  0.24130  1.0000 0.386751102
H   H254      1.0  0.93410  0.67540  0.75930  1.0000 0.386751102
H   H255      1.0  0.91610  0.17480  0.24070  1.0000 0.386751102
H   H256      1.0  0.42480  0.68410  0.75870  1.0000 0.386751102
H   H257      1.0  0.46130  0.19110  0.15820  1.0000 0.3795735942
H   H258      1.0  0.55310  0.21130  0.77020  1.0000 0.3795735942
H   H259      1.0  0.44110  0.78290  0.22980  1.0000 0.3795735942
H   H260      1.0  0.03290  0.30310  0.84180  1.0000 0.3795735942
H   H261      1.0  0.78870  0.55890  0.34180  1.0000 0.3795735942
H   H262      1.0  0.69690  0.53870  0.72980  1.0000 0.3795735942
H   H263      1.0  0.80890  0.96710  0.27020  1.0000 0.3795735942
H   H264      1.0  0.21710  0.44690  0.65820  1.0000 0.3795735942
H   H265      1.0  0.36400  0.12530  0.16470  1.0000 0.3996898165
H   H266      1.0  0.44930  0.11400  0.73870  1.0000 0.3996898165
H   H267      1.0  0.37530  0.71060  0.26130  1.0000 0.3996898165
H   H268      1.0  0.96060  0.19930  0.83530  1.0000 0.3996898165
H   H269      1.0  0.88600  0.62470  0.33530  1.0000 0.3996898165
H   H270      1.0  0.80070  0.63600  0.76130  1.0000 0.3996898165
H   H271      1.0  0.87470  0.03940  0.23870  1.0000 0.3996898165
H   H272      1.0  0.28940  0.55070  0.66470  1.0000 0.3996898165
H   H273      1.0  0.13720  0.86690  0.30870  1.0000 0.386751102
H   H274      1.0  0.07850  0.88720  0.77030  1.0000 0.386751102
H   H275      1.0  0.11690  0.30820  0.22970  1.0000 0.386751102
H   H276      1.0  0.55820  0.82850  0.69130  1.0000 0.386751102
H   H277      1.0  0.11280  0.88310  0.19130  1.0000 0.386751102
H   H278      1.0  0.17150  0.86280  0.72970  1.0000 0.386751102
H   H279      1.0  0.13310  0.44180  0.27030  1.0000 0.386751102
H   H280      1.0  0.69180  0.92150  0.80870  1.0000 0.386751102
H   H281      1.0  0.21280  0.92050  0.28150  1.0000 0.386751102
H   H282      1.0  0.18130  0.96280  0.79230  1.0000 0.386751102
H   H283      1.0  0.17050  0.38900  0.20770  1.0000 0.386751102
H   H284      1.0  0.63900  0.93130  0.71850  1.0000 0.386751102
H   H285      1.0  0.03720  0.82950  0.21850  1.0000 0.386751102
H   H286      1.0  0.06870  0.78720  0.70770  1.0000 0.386751102
H   H287      1.0  0.07950  0.36100  0.29230  1.0000 0.386751102
H   H288      1.0  0.61100  0.81870  0.78150  1.0000 0.386751102
C   C1        1.0  0.41482  0.91347  0.37809  1.0000 0.0396024716
C   C2        1.0  0.28673  0.16482  0.00135  1.0000 0.0396024716
C   C3        1.0  0.16347  0.28538  0.99865  1.0000 0.0396024716
C   C4        1.0  0.53538  0.03673  0.62191  1.0000 0.0396024716
C   C5        1.0  0.83518  0.83653  0.12191  1.0000 0.0396024716
C   C6        1.0  0.96327  0.58518  0.49865  1.0000 0.0396024716
C   C7        1.0  0.08653  0.46462  0.50135  1.0000 0.0396024716
C   C8        1.0  0.71462  0.71327  0.87809  1.0000 0.0396024716
C   C9        1.0  0.39825  0.85484  0.35689  1.0000 -0.0803766251
C   C10       1.0  0.29136  0.14825  0.04341  1.0000 -0.0803766251
C   C11       1.0  0.10484  0.24795  0.95659  1.0000 -0.0803766251
C   C12       1.0  0.49795  0.04136  0.64311  1.0000 -0.0803766251
C   C13       1.0  0.85175  0.89516  0.14311  1.0000 -0.0803766251
C   C14       1.0  0.95864  0.60175  0.45659  1.0000 -0.0803766251
C   C15       1.0  0.14516  0.50205  0.54341  1.0000 -0.0803766251
C   C16       1.0  0.75205  0.70864  0.85689  1.0000 -0.0803766251
C   C17       1.0  0.30990  0.75159  0.36129  1.0000 -0.0736485317
C   C18       1.0  0.19861  0.05990  0.05831  1.0000 -0.0736485317
C   C19       1.0  0.00159  0.14030  0.94169  1.0000 -0.0736485317
C   C20       1.0  0.39030  0.94861  0.63871  1.0000 -0.0736485317
C   C21       1.0  0.94010  0.99841  0.13871  1.0000 -0.0736485317
C   C22       1.0  0.05139  0.69010  0.44169  1.0000 -0.0736485317
C   C23       1.0  0.24841  0.60970  0.55831  1.0000 -0.0736485317
C   C24       1.0  0.85970  0.80139  0.86129  1.0000 -0.0736485317
C   C25       1.0  0.24608  0.71327  0.38875  1.0000 -0.1183345808
C   C26       1.0  0.10733  0.99608  0.03281  1.0000 -0.1183345808
C   C27       1.0  0.96327  0.07452  0.96719  1.0000 -0.1183345808
C   C28       1.0  0.32452  0.85733  0.61125  1.0000 -0.1183345808
C   C29       1.0  0.00392  0.03673  0.11125  1.0000 -0.1183345808
C   C30       1.0  0.14267  0.75392  0.46719  1.0000 -0.1183345808
C   C31       1.0  0.28673  0.67548  0.53281  1.0000 -0.1183345808
C   C32       1.0  0.92548  0.89267  0.88875  1.0000 -0.1183345808
C   C33       1.0  0.26437  0.76993  0.41090  1.0000 -0.0888055708
C   C34       1.0  0.10347  0.01437  0.99444  1.0000 -0.0888055708
C   C35       1.0  0.01993  0.10903  0.00556  1.0000 -0.0888055708
C   C36       1.0  0.35903  0.85347  0.58910  1.0000 -0.0888055708
C   C37       1.0  0.98563  0.98007  0.08910  1.0000 -0.0888055708
C   C38       1.0  0.14653  0.73563  0.50556  1.0000 -0.0888055708
C   C39       1.0  0.23007  0.64097  0.49444  1.0000 -0.0888055708
C   C40       1.0  0.89097  0.89653  0.91090  1.0000 -0.0888055708
C   C41       1.0  0.34904  0.87096  0.40420  1.0000 -0.1183345808
C   C42       1.0  0.19484  0.09904  0.97808  1.0000 -0.1183345808
C   C43       1.0  0.12096  0.21676  0.02192  1.0000 -0.1183345808
C   C44       1.0  0.46676  0.94484  0.59580  1.0000 -0.1183345808
C   C45       1.0  0.90096  0.87904  0.09580  1.0000 -0.1183345808
C   C46       1.0  0.05516  0.65096  0.52192  1.0000 -0.1183345808
C   C47       1.0  0.12904  0.53324  0.47808  1.0000 -0.1183345808
C   C48       1.0  0.78324  0.80516  0.90420  1.0000 -0.1183345808
C   C49       1.0  0.50124  0.02044  0.37128  1.0000 0.0396024716
C   C50       1.0  0.37996  0.25124  0.98080  1.0000 0.0396024716
C   C51       1.0  0.27044  0.39916  0.01920  1.0000 0.0396024716
C   C52       1.0  0.64916  0.12996  0.62872  1.0000 0.0396024716
C   C53       1.0  0.74876  0.72956  0.12872  1.0000 0.0396024716
C   C54       1.0  0.87004  0.49876  0.51920  1.0000 0.0396024716
C   C55       1.0  0.97956  0.35084  0.48080  1.0000 0.0396024716
C   C56       1.0  0.60084  0.62004  0.87128  1.0000 0.0396024716
C   C57       1.0  0.47292  0.03138  0.34210  1.0000 -0.0803766251
C   C58       1.0  0.38082  0.22292  0.94154  1.0000 -0.0803766251
C   C59       1.0  0.28138  0.43928  0.05846  1.0000 -0.0803766251
C   C60       1.0  0.68928  0.13082  0.65790  1.0000 -0.0803766251
C   C61       1.0  0.77708  0.71862  0.15790  1.0000 -0.0888055708
C   C62       1.0  0.86918  0.52708  0.55846  1.0000 -0.0888055708
C   C63       1.0  0.96862  0.31072  0.44154  1.0000 -0.0888055708
C   C64       1.0  0.56072  0.61918  0.84210  1.0000 -0.0803766251
C   C65       1.0  0.55044  0.13392  0.33736  1.0000 -0.1107536729
C   C66       1.0  0.46308  0.30044  0.91652  1.0000 -0.1107536729
C   C67       1.0  0.38392  0.54656  0.08348  1.0000 -0.1107536729
C   C68       1.0  0.79656  0.21308  0.66264  1.0000 -0.1107536729
C   C69       1.0  0.69956  0.61608  0.16264  1.0000 -0.1107536729
C   C70       1.0  0.78692  0.44956  0.58348  1.0000 -0.1107536729
C   C71       1.0  0.86608  0.20344  0.41652  1.0000 -0.1107536729
C   C72       1.0  0.45344  0.53692  0.83736  1.0000 -0.1107536729
C   C73       1.0  0.64869  0.21693  0.36282  1.0000 -0.10064215
C   C74       1.0  0.53587  0.39869  0.93176  1.0000 -0.10064215
C   C75       1.0  0.46693  0.60411  0.06824  1.0000 -0.10064215
C   C76       1.0  0.85411  0.28587  0.63718  1.0000 -0.10064215
C   C77       1.0  0.60131  0.53307  0.13718  1.0000 -0.10064215
C   C78       1.0  0.71413  0.35131  0.56824  1.0000 -0.10064215
C   C79       1.0  0.78307  0.14589  0.43176  1.0000 -0.10064215
C   C80       1.0  0.39589  0.46413  0.86282  1.0000 -0.10064215
C   C81       1.0  0.67821  0.20762  0.39303  1.0000 -0.10064215
C   C82       1.0  0.53518  0.42821  0.97059  1.0000 -0.10064215
C   C83       1.0  0.45762  0.56459  0.02941  1.0000 -0.10064215
C   C84       1.0  0.81459  0.28518  0.60697  1.0000 -0.10064215
C   C85       1.0  0.57179  0.54238  0.10697  1.0000 -0.10064215
C   C86       1.0  0.71482  0.32179  0.52941  1.0000 -0.10064215
C   C87       1.0  0.79238  0.18541  0.47059  1.0000 -0.10064215
C   C88       1.0  0.43541  0.46482  0.89303  1.0000 -0.10064215
C   C89       1.0  0.60399  0.10837  0.39576  1.0000 -0.1285990008
C   C90       1.0  0.45823  0.35399  0.99562  1.0000 -0.1285990008
C   C91       1.0  0.35837  0.46261  0.00438  1.0000 -0.1285990008
C   C92       1.0  0.71261  0.20823  0.60424  1.0000 -0.1285990008
C   C93       1.0  0.64601  0.64163  0.10424  1.0000 -0.1285990008
C   C94       1.0  0.79177  0.39601  0.50438  1.0000 -0.1285990008
C   C95       1.0  0.89163  0.28739  0.49562  1.0000 -0.1285990008
C   C96       1.0  0.53739  0.54177  0.89576  1.0000 -0.1285990008
C   C97       1.0  0.28026  0.68057  0.33663  1.0000 0.5514099405
C   C98       1.0  0.19363  0.03026  0.09969  1.0000 0.5514099405
C   C99       1.0  0.93057  0.09394  0.90031  1.0000 0.5514099405
C   C100      1.0  0.34394  0.94363  0.66337  1.0000 0.5514099405
C   C101      1.0  0.96974  0.06943  0.16337  1.0000 0.5514099405
C   C102      1.0  0.05637  0.71974  0.40031  1.0000 0.5514099405
C   C103      1.0  0.31943  0.65606  0.59969  1.0000 0.5514099405
C   C104      1.0  0.90606  0.80637  0.83663  1.0000 0.5514099405
C   C105      1.0  0.47404  0.90419  0.32983  1.0000 0.5985256241
C   C106      1.0  0.39421  0.22404  0.06985  1.0000 0.5985256241
C   C107      1.0  0.15419  0.32436  0.93015  1.0000 0.5985256241
C   C108      1.0  0.57436  0.14421  0.67017  1.0000 0.5985256241
C   C109      1.0  0.77596  0.84581  0.17017  1.0000 0.5985256241
C   C110      1.0  0.85579  0.52596  0.43015  1.0000 0.5985256241
C   C111      1.0  0.09581  0.42564  0.56985  1.0000 0.5985256241
C   C112      1.0  0.67564  0.60579  0.82983  1.0000 0.5985256241
C   C113      1.0  0.36223  0.93838  0.31901  1.0000 0.5827694939
C   C114      1.0  0.29322  0.11223  0.92385  1.0000 0.5827694939
C   C115      1.0  0.18838  0.36937  0.07615  1.0000 0.5827694939
C   C116      1.0  0.61937  0.04322  0.68099  1.0000 0.5827694939
C   C117      1.0  0.88777  0.81162  0.18099  1.0000 0.5827694939
C   C118      1.0  0.95678  0.63777  0.57615  1.0000 0.5827694939
C   C119      1.0  0.06162  0.38063  0.42385  1.0000 0.5827694939
C   C120      1.0  0.63063  0.70678  0.81901  1.0000 0.5827694939
C   C121      1.0  0.52421  0.14578  0.30579  1.0000 0.5618118153
C   C122      1.0  0.46842  0.27421  0.87843  1.0000 0.5618118153
C   C123      1.0  0.39578  0.58999  0.12157  1.0000 0.5618118153
C   C124      1.0  0.83999  0.21842  0.69421  1.0000 0.5618118153
C   C125      1.0  0.72579  0.60422  0.19421  1.0000 0.5618118153
C   C126      1.0  0.78158  0.47579  0.62157  1.0000 0.5618118153
C   C127      1.0  0.85422  0.16001  0.37843  1.0000 0.5618118153
C   C128      1.0  0.41001  0.53158  0.80579  1.0000 0.5618118153
C   C129      1.0  0.99538  0.39851  0.19549  1.0000 -0.1285990008
C   C130      1.0  0.04989  0.74538  0.09687  1.0000 -0.1285990008
C   C131      1.0  0.64851  0.95302  0.90313  1.0000 -0.1285990008
C   C132      1.0  0.20302  0.79989  0.80451  1.0000 -0.1285990008
C   C133      1.0  0.25462  0.35149  0.30451  1.0000 -0.1285990008
C   C134      1.0  0.20011  0.00462  0.40313  1.0000 -0.1285990008
C   C135      1.0  0.60149  0.79698  0.59687  1.0000 -0.1285990008
C   C136      1.0  0.04698  0.95011  0.69549  1.0000 -0.1285990008
C   C137      1.0  0.01326  0.36896  0.18122  1.0000 -0.0162287955
C   C138      1.0  0.08204  0.76326  0.14430  1.0000 -0.0162287955
C   C139      1.0  0.61896  0.93774  0.85570  1.0000 -0.0162287955
C   C140      1.0  0.18774  0.83204  0.81878  1.0000 -0.0162287955
C   C141      1.0  0.23674  0.38104  0.31878  1.0000 -0.0162287955
C   C142      1.0  0.16796  0.98674  0.35570  1.0000 -0.0162287955
C   C143      1.0  0.63104  0.81226  0.64430  1.0000 -0.0162287955
C   C144      1.0  0.06226  0.91796  0.68122  1.0000 -0.0162287955
C   C145      1.0  0.93435  0.26857  0.16852  1.0000 -0.0736485317
C   C146      1.0  0.01583  0.68435  0.16578  1.0000 -0.0736485317
C   C147      1.0  0.51857  0.85005  0.83422  1.0000 -0.0736485317
C   C148      1.0  0.10005  0.76583  0.83148  1.0000 -0.0736485317
C   C149      1.0  0.31565  0.48143  0.33148  1.0000 -0.0736485317
C   C150      1.0  0.23417  0.06565  0.33422  1.0000 -0.0736485317
C   C151      1.0  0.73143  0.89995  0.66578  1.0000 -0.0736485317
C   C152      1.0  0.14995  0.98417  0.66852  1.0000 -0.0736485317
C   C153      1.0  0.82979  0.18801  0.16580  1.0000 0.0663444374
C   C154      1.0  0.91399  0.57979  0.14178  1.0000 0.0663444374
C   C155      1.0  0.43801  0.77221  0.85822  1.0000 0.0663444374
C   C156      1.0  0.02221  0.66399  0.83420  1.0000 0.0663444374
C   C157      1.0  0.42021  0.56199  0.33420  1.0000 0.0663444374
C   C158      1.0  0.33601  0.17021  0.35822  1.0000 0.0663444374
C   C159      1.0  0.81199  0.97779  0.64178  1.0000 0.0663444374
C   C160      1.0  0.22779  0.08601  0.66580  1.0000 0.0663444374
C   C161      1.0  0.81127  0.21397  0.18164  1.0000 -0.1384332224
C   C162      1.0  0.87963  0.56127  0.09730  1.0000 -0.1384332224
C   C163      1.0  0.46397  0.78233  0.90270  1.0000 -0.1384332224
C   C164      1.0  0.03233  0.62963  0.81836  1.0000 -0.1384332224
C   C165      1.0  0.43873  0.53603  0.31836  1.0000 -0.1384332224
C   C166      1.0  0.37037  0.18873  0.40270  1.0000 -0.1384332224
C   C167      1.0  0.78603  0.96767  0.59730  1.0000 -0.1384332224
C   C168      1.0  0.21767  0.12037  0.68164  1.0000 -0.1384332224
C   C169      1.0  0.89673  0.32306  0.19899  1.0000 -0.0888055708
C   C170      1.0  0.94774  0.64673  0.07367  1.0000 -0.0888055708
C   C171      1.0  0.57306  0.87407  0.92633  1.0000 -0.0888055708
C   C172      1.0  0.12407  0.69774  0.80101  1.0000 -0.0888055708
C   C173      1.0  0.35327  0.42694  0.30101  1.0000 -0.0888055708
C   C174      1.0  0.30226  0.10327  0.42633  1.0000 -0.0888055708
C   C175      1.0  0.67694  0.87593  0.57367  1.0000 -0.0888055708
C   C176      1.0  0.12593  0.05226  0.69899  1.0000 -0.0888055708
C   C177      1.0  0.57176  0.89037  0.13153  1.0000 -0.0026649067
C   C178      1.0  0.69023  0.32176  0.18139  1.0000 -0.0026649067
C   C179      1.0  0.14037  0.50884  0.81861  1.0000 -0.0026649067
C   C180      1.0  0.75884  0.44023  0.86847  1.0000 -0.0026649067
C   C181      1.0  0.67824  0.85963  0.36847  1.0000 -0.0026649067
C   C182      1.0  0.55977  0.42824  0.31861  1.0000 -0.0026649067
C   C183      1.0  0.10963  0.24116  0.68139  1.0000 -0.0026649067
C   C184      1.0  0.49116  0.30977  0.63153  1.0000 -0.0026649067
C   C185      1.0  0.65874  0.99414  0.16008  1.0000 -0.0803766251
C   C186      1.0  0.74866  0.40874  0.16460  1.0000 -0.0803766251
C   C187      1.0  0.24414  0.58406  0.83540  1.0000 -0.0803766251
C   C188      1.0  0.83406  0.49866  0.83992  1.0000 -0.0803766251
C   C189      1.0  0.59126  0.75586  0.33992  1.0000 -0.0803766251
C   C190      1.0  0.50134  0.34126  0.33540  1.0000 -0.0803766251
C   C191      1.0  0.00586  0.16594  0.66460  1.0000 -0.0803766251
C   C192      1.0  0.41594  0.25134  0.66008  1.0000 -0.0803766251
C   C193      1.0  0.73985  0.07725  0.14150  1.0000 0.0608873175
C   C194      1.0  0.84835  0.48985  0.16260  1.0000 0.0608873175
C   C195      1.0  0.32725  0.68575  0.83740  1.0000 0.0608873175
C   C196      1.0  0.93575  0.59835  0.85850  1.0000 0.0608873175
C   C197      1.0  0.51015  0.67275  0.35850  1.0000 0.0608873175
C   C198      1.0  0.40165  0.26015  0.33740  1.0000 0.0608873175
C   C199      1.0  0.92275  0.06425  0.66260  1.0000 0.0608873175
C   C200      1.0  0.31425  0.15165  0.64150  1.0000 0.0608873175
C   C201      1.0  0.74183  0.06670  0.09653  1.0000 -0.1384332224
C   C202      1.0  0.89530  0.49183  0.17513  1.0000 -0.1384332224
C   C203      1.0  0.31670  0.72017  0.82487  1.0000 -0.1384332224
C   C204      1.0  0.97017  0.64530  0.90347  1.0000 -0.1384332224
C   C205      1.0  0.50817  0.68330  0.40347  1.0000 -0.1384332224
C   C206      1.0  0.35470  0.25817  0.32487  1.0000 -0.1384332224
C   C207      1.0  0.93330  0.02983  0.67513  1.0000 -0.1384332224
C   C208      1.0  0.27983  0.10470  0.59653  1.0000 -0.1384332224
C   C209      1.0  0.65770  0.96775  0.06765  1.0000 -0.0803766251
C   C210      1.0  0.84005  0.40770  0.18995  1.0000 -0.0803766251
C   C211      1.0  0.21775  0.65010  0.81005  1.0000 -0.0803766251
C   C212      1.0  0.90010  0.59005  0.93235  1.0000 -0.0803766251
C   C213      1.0  0.59230  0.78225  0.43235  1.0000 -0.0803766251
C   C214      1.0  0.40995  0.34230  0.31005  1.0000 -0.0803766251
C   C215      1.0  0.03225  0.09990  0.68995  1.0000 -0.0803766251
C   C216      1.0  0.34990  0.15995  0.56765  1.0000 -0.0803766251
C   C217      1.0  0.57089  0.87780  0.08549  1.0000 -0.1384332224
C   C218      1.0  0.73540  0.32089  0.19309  1.0000 -0.1384332224
C   C219      1.0  0.12780  0.54231  0.80691  1.0000 -0.1384332224
C   C220      1.0  0.79231  0.48540  0.91451  1.0000 -0.1384332224
C   C221      1.0  0.67911  0.87220  0.41451  1.0000 -0.1384332224
C   C222      1.0  0.51460  0.42911  0.30691  1.0000 -0.1384332224
C   C223      1.0  0.12220  0.20769  0.69309  1.0000 -0.1384332224
C   C224      1.0  0.45769  0.26460  0.58549  1.0000 -0.1384332224
C   C225      1.0  0.12345  0.45440  0.18105  1.0000 0.5725377009
C   C226      1.0  0.19240  0.87345  0.16905  1.0000 0.5725377009
C   C227      1.0  0.70440  0.02335  0.83095  1.0000 0.5725377009
C   C228      1.0  0.27335  0.94240  0.81895  1.0000 0.5725377009
C   C229      1.0  0.12655  0.29560  0.31895  1.0000 0.5725377009
C   C230      1.0  0.05760  0.87655  0.33095  1.0000 0.5725377009
C   C231      1.0  0.54560  0.72665  0.66905  1.0000 0.5725377009
C   C232      1.0  0.97665  0.80760  0.68105  1.0000 0.5725377009
C   C233      1.0  0.95994  0.24335  0.15549  1.0000 0.5618118153
C   C234      1.0  0.05445  0.70994  0.21659  1.0000 0.5618118153
C   C235      1.0  0.49335  0.83786  0.78341  1.0000 0.5618118153
C   C236      1.0  0.08786  0.80445  0.84451  1.0000 0.5618118153
C   C237      1.0  0.29006  0.50665  0.34451  1.0000 0.5618118153
C   C238      1.0  0.19555  0.04006  0.28341  1.0000 0.5618118153
C   C239      1.0  0.75665  0.91214  0.71659  1.0000 0.5618118153
C   C240      1.0  0.16214  0.94555  0.65549  1.0000 0.5618118153
C   C241      1.0  0.65035  0.99900  0.20895  1.0000 0.5618118153
C   C242      1.0  0.69140  0.40035  0.15135  1.0000 0.5618118153
C   C243      1.0  0.24900  0.54005  0.84865  1.0000 0.5618118153
C   C244      1.0  0.79005  0.44140  0.79105  1.0000 0.5618118153
C   C245      1.0  0.59965  0.75100  0.29105  1.0000 0.5618118153
C   C246      1.0  0.55860  0.34965  0.34865  1.0000 0.5618118153
C   C247      1.0  0.00100  0.20995  0.65135  1.0000 0.5618118153
C   C248      1.0  0.45995  0.30860  0.70895  1.0000 0.5618118153
C   C249      1.0  0.48786  0.79616  0.15242  1.0000 0.5433609815
C   C250      1.0  0.58544  0.23786  0.19170  1.0000 0.5433609815
C   C251      1.0  0.04616  0.39374  0.80830  1.0000 0.5433609815
C   C252      1.0  0.64374  0.33544  0.84758  1.0000 0.5433609815
C   C253      1.0  0.76214  0.95384  0.34758  1.0000 0.5433609815
C   C254      1.0  0.66456  0.51214  0.30830  1.0000 0.5433609815
C   C255      1.0  0.20384  0.35626  0.69170  1.0000 0.5433609815
C   C256      1.0  0.60626  0.41456  0.65242  1.0000 0.5433609815
C   C257      1.0  0.70524  0.16540  0.28984  1.0000 0.1199254263
C   C258      1.0  0.66540  0.45524  0.03984  1.0000 0.1199254263
C   C259      1.0  0.41540  0.62556  0.96016  1.0000 0.1199254263
C   C260      1.0  0.87556  0.41540  0.71016  1.0000 0.1199254263
C   C261      1.0  0.54476  0.58460  0.21016  1.0000 0.1199254263
C   C262      1.0  0.58460  0.29476  0.46016  1.0000 0.1199254263
C   C263      1.0  0.83460  0.12444  0.53984  1.0000 0.1199254263
C   C264      1.0  0.37444  0.33460  0.78984  1.0000 0.1199254263
C   C265      1.0  0.76248  0.25682  0.28990  1.0000 -0.2124961137
C   C266      1.0  0.72258  0.51248  0.00566  1.0000 -0.2124961137
C   C267      1.0  0.50682  0.71692  0.99434  1.0000 -0.2124961137
C   C268      1.0  0.96692  0.47258  0.71010  1.0000 -0.2124961137
C   C269      1.0  0.48752  0.49318  0.21010  1.0000 -0.2124961137
C   C270      1.0  0.52742  0.23752  0.49434  1.0000 -0.2124961137
C   C271      1.0  0.74318  0.03308  0.50566  1.0000 -0.2124961137
C   C272      1.0  0.28308  0.27742  0.78990  1.0000 -0.2124961137
C   C273      1.0  0.87039  0.35186  0.30445  1.0000 0.1121419248
C   C274      1.0  0.81594  0.62039  0.01853  1.0000 0.1121419248
C   C275      1.0  0.60186  0.79741  0.98147  1.0000 0.1199254263
C   C276      1.0  0.04741  0.56594  0.69555  1.0000 0.1121419248
C   C277      1.0  0.37961  0.39814  0.19555  1.0000 0.1121419248
C   C278      1.0  0.43406  0.12961  0.48147  1.0000 0.1121419248
C   C279      1.0  0.64814  0.95259  0.51853  1.0000 0.1121419248
C   C280      1.0  0.20259  0.18406  0.80445  1.0000 0.1121419248
C   C281      1.0  0.91774  0.35219  0.32113  1.0000 -0.1782998188
C   C282      1.0  0.84661  0.66774  0.06555  1.0000 -0.1782998188
C   C283      1.0  0.60219  0.78106  0.93445  1.0000 -0.1782998188
C   C284      1.0  0.03106  0.59661  0.67887  1.0000 -0.1782998188
C   C285      1.0  0.33226  0.39781  0.17887  1.0000 -0.1782998188
C   C286      1.0  0.40339  0.08226  0.43445  1.0000 -0.1782998188
C   C287      1.0  0.64781  0.96894  0.56555  1.0000 -0.1782998188
C   C288      1.0  0.21894  0.15339  0.82113  1.0000 -0.1782998188
C   C289      1.0  0.85190  0.25787  0.31917  1.0000 0.0807234461
C   C290      1.0  0.78273  0.60190  0.09403  1.0000 0.0807234461
C   C291      1.0  0.50787  0.68870  0.90597  1.0000 0.0807234461
C   C292      1.0  0.93870  0.53273  0.68083  1.0000 0.0807234461
C   C293      1.0  0.39810  0.49213  0.18083  1.0000 0.0807234461
C   C294      1.0  0.46727  0.14810  0.40597  1.0000 0.0807234461
C   C295      1.0  0.74213  0.06130  0.59403  1.0000 0.0807234461
C   C296      1.0  0.31130  0.21727  0.81917  1.0000 0.0807234461
C   C297      1.0  0.93603  0.45312  0.30615  1.0000 0.100689408
C   C298      1.0  0.87988  0.68603  0.98291  1.0000 0.100689408
C   C299      1.0  0.70312  0.89697  0.01709  1.0000 0.100689408
C   C300      1.0  0.14697  0.62988  0.69385  1.0000 0.100689408
C   C301      1.0  0.31397  0.29688  0.19385  1.0000 0.100689408
C   C302      1.0  0.37012  0.06397  0.51709  1.0000 0.100689408
C   C303      1.0  0.54688  0.85303  0.48291  1.0000 0.100689408
C   C304      1.0  0.10303  0.12012  0.80615  1.0000 0.100689408
C   C305      1.0  0.89450  0.45957  0.31367  1.0000 -0.1927167202
C   C306      1.0  0.83083  0.64450  0.93493  1.0000 -0.1927167202
C   C307      1.0  0.70957  0.89590  0.06507  1.0000 -0.1927167202
C   C308      1.0  0.14590  0.58083  0.68633  1.0000 -0.1927167202
C   C309      1.0  0.35550  0.29043  0.18633  1.0000 -0.1927167202
C   C310      1.0  0.41917  0.10550  0.56507  1.0000 -0.1927167202
C   C311      1.0  0.54043  0.85410  0.43493  1.0000 -0.1927167202
C   C312      1.0  0.10410  0.16917  0.81367  1.0000 -0.1927167202
C   C313      1.0  0.95823  0.55392  0.31355  1.0000 0.100689408
C   C314      1.0  0.89468  0.70823  0.90431  1.0000 0.100689408
C   C315      1.0  0.80392  0.99037  0.09569  1.0000 0.100689408
C   C316      1.0  0.24037  0.64468  0.68645  1.0000 0.100689408
C   C317      1.0  0.29177  0.19608  0.18645  1.0000 0.100689408
C   C318      1.0  0.35532  0.04177  0.59569  1.0000 0.100689408
C   C319      1.0  0.44608  0.75963  0.40431  1.0000 0.100689408
C   C320      1.0  0.00963  0.10532  0.81355  1.0000 0.100689408
C   C321      1.0  0.08967  0.62789  0.29636  1.0000 0.0807234461
C   C322      1.0  0.04331  0.83967  0.96178  1.0000 0.0807234461
C   C323      1.0  0.87789  0.08153  0.03822  1.0000 0.0807234461
C   C324      1.0  0.33153  0.79331  0.70364  1.0000 0.0807234461
C   C325      1.0  0.16033  0.12211  0.20364  1.0000 0.0807234461
C   C326      1.0  0.20669  0.91033  0.53822  1.0000 0.0807234461
C   C327      1.0  0.37211  0.66847  0.46178  1.0000 0.0807234461
C   C328      1.0  0.91847  0.95669  0.79636  1.0000 0.0807234461
C   C329      1.0  0.03236  0.53656  0.29672  1.0000 -0.1984697177
C   C330      1.0  0.98564  0.78236  0.99580  1.0000 -0.1984697177
C   C331      1.0  0.78656  0.98984  0.00420  1.0000 -0.1984697177
C   C332      1.0  0.23984  0.73564  0.70328  1.0000 -0.1984697177
C   C333      1.0  0.21764  0.21344  0.20328  1.0000 -0.1984697177
C   C334      1.0  0.26436  0.96764  0.50420  1.0000 -0.1984697177
C   C335      1.0  0.46344  0.76016  0.49580  1.0000 -0.1984697177
C   C336      1.0  0.01016  0.01436  0.79672  1.0000 -0.1984697177
N   N1        1.0  0.74699  0.16581  0.30500  1.0000 -0.2538304149
N   N2        1.0  0.69199  0.49699  0.08118  1.0000 -0.2538304149
N   N3        1.0  0.41581  0.61081  0.91882  1.0000 -0.2538304149
N   N4        1.0  0.86081  0.44199  0.69500  1.0000 -0.2538304149
N   N5        1.0  0.50301  0.58419  0.19500  1.0000 -0.2538304149
N   N6        1.0  0.55801  0.25301  0.41882  1.0000 -0.2538304149
N   N7        1.0  0.83419  0.13919  0.58118  1.0000 -0.2538304149
N   N8        1.0  0.38919  0.30801  0.80500  1.0000 -0.2538304149
N   N9        1.0  0.05330  0.63648  0.30538  1.0000 -0.2444435104
N   N10       1.0  0.99792  0.80330  0.91682  1.0000 -0.2444435104
N   N11       1.0  0.88648  0.08110  0.08318  1.0000 -0.2444435104
N   N12       1.0  0.33110  0.74792  0.69462  1.0000 -0.2444435104
N   N13       1.0  0.19670  0.11352  0.19462  1.0000 -0.2444435104
N   N14       1.0  0.25208  0.94670  0.58318  1.0000 -0.2444435104
N   N15       1.0  0.36352  0.66890  0.41682  1.0000 -0.2444435104
N   N16       1.0  0.91890  0.00208  0.80538  1.0000 -0.2444435104
O   O1        1.0  0.47616  0.92143  0.29019  1.0000 -0.6259888007
O   O2        1.0  0.43597  0.22616  0.05473  1.0000 -0.6259888007
O   O3        1.0  0.17143  0.38124  0.94527  1.0000 -0.6259888007
O   O4        1.0  0.63124  0.18597  0.70981  1.0000 -0.6259888007
O   O5        1.0  0.77384  0.82857  0.20981  1.0000 -0.6259888007
O   O6        1.0  0.81403  0.52384  0.44527  1.0000 -0.6259888007
O   O7        1.0  0.07857  0.36876  0.55473  1.0000 -0.6259888007
O   O8        1.0  0.61876  0.56403  0.79019  1.0000 -0.6259888007
O   O9        1.0  0.53957  0.93582  0.34839  1.0000 -0.5163350468
O   O10       1.0  0.44118  0.28957  0.10375  1.0000 -0.5163350468
O   O11       1.0  0.18582  0.33743  0.89625  1.0000 -0.5163350468
O   O12       1.0  0.58743  0.19118  0.65161  1.0000 -0.5163350468
O   O13       1.0  0.71043  0.81418  0.15161  1.0000 -0.5163350468
O   O14       1.0  0.80882  0.46043  0.39625  1.0000 -0.5163350468
O   O15       1.0  0.06418  0.41257  0.60375  1.0000 -0.5163350468
O   O16       1.0  0.66257  0.55882  0.84839  1.0000 -0.5163350468
O   O17       1.0  0.31011  0.69754  0.29965  1.0000 -0.5393800794
O   O18       1.0  0.26046  0.06011  0.11257  1.0000 -0.5393800794
O   O19       1.0  0.94754  0.14789  0.88743  1.0000 -0.5393800794
O   O20       1.0  0.39789  0.01046  0.70035  1.0000 -0.5393800794
O   O21       1.0  0.93989  0.05246  0.20035  1.0000 -0.5393800794
O   O22       1.0  0.98954  0.68989  0.38743  1.0000 -0.5393800794
O   O23       1.0  0.30246  0.60211  0.61257  1.0000 -0.5393800794
O   O24       1.0  0.85211  0.73954  0.79965  1.0000 -0.5393800794
O   O25       1.0  0.22306  0.60357  0.35183  1.0000 -0.5393800794
O   O26       1.0  0.12123  0.97306  0.11949  1.0000 -0.5393800794
O   O27       1.0  0.85357  0.00174  0.88051  1.0000 -0.5393800794
O   O28       1.0  0.25174  0.87123  0.64817  1.0000 -0.5393800794
O   O29       1.0  0.02694  0.14643  0.14817  1.0000 -0.5393800794
O   O30       1.0  0.12877  0.77694  0.38051  1.0000 -0.5393800794
O   O31       1.0  0.39643  0.74826  0.61949  1.0000 -0.5393800794
O   O32       1.0  0.99826  0.87877  0.85183  1.0000 -0.5393800794
O   O33       1.0  0.31493  0.86867  0.28940  1.0000 -0.5731043487
O   O34       1.0  0.27553  0.06493  0.94626  1.0000 -0.5731043487
O   O35       1.0  0.11867  0.32927  0.05374  1.0000 -0.5731043487
O   O36       1.0  0.57927  0.02553  0.71060  1.0000 -0.5731043487
O   O37       1.0  0.93507  0.88133  0.21060  1.0000 -0.5731043487
O   O38       1.0  0.97447  0.68507  0.55374  1.0000 -0.5731043487
O   O39       1.0  0.13133  0.42073  0.44626  1.0000 -0.5731043487
O   O40       1.0  0.67073  0.72447  0.78940  1.0000 -0.5731043487
O   O41       1.0  0.31957  0.93277  0.33634  1.0000 -0.5089385464
O   O42       1.0  0.23323  0.06957  0.88680  1.0000 -0.5089385464
O   O43       1.0  0.18277  0.34643  0.11320  1.0000 -0.5089385464
O   O44       1.0  0.59643  0.98323  0.66366  1.0000 -0.5089385464
O   O45       1.0  0.93043  0.81723  0.16366  1.0000 -0.5089385464
O   O46       1.0  0.01677  0.68043  0.61320  1.0000 -0.5089385464
O   O47       1.0  0.06723  0.40357  0.38680  1.0000 -0.5089385464
O   O48       1.0  0.65357  0.76677  0.83634  1.0000 -0.5089385464
O   O49       1.0  0.45417  0.07587  0.26824  1.0000 -0.5514850809
O   O50       1.0  0.43593  0.20417  0.87830  1.0000 -0.5514850809
O   O51       1.0  0.32587  0.55763  0.12170  1.0000 -0.5514850809
O   O52       1.0  0.80763  0.18593  0.73176  1.0000 -0.5514850809
O   O53       1.0  0.79583  0.67413  0.23176  1.0000 -0.5514850809
O   O54       1.0  0.81407  0.54583  0.62170  1.0000 -0.5514850809
O   O55       1.0  0.92413  0.19237  0.37830  1.0000 -0.5514850809
O   O56       1.0  0.44237  0.56407  0.76824  1.0000 -0.5514850809
O   O57       1.0  0.56820  0.22254  0.31514  1.0000 -0.5514850809
O   O58       1.0  0.50306  0.31820  0.84566  1.0000 -0.5514850809
O   O59       1.0  0.47254  0.65740  0.15434  1.0000 -0.5514850809
O   O60       1.0  0.90740  0.25306  0.68486  1.0000 -0.5514850809
O   O61       1.0  0.68180  0.52746  0.18486  1.0000 -0.5514850809
O   O62       1.0  0.74694  0.43180  0.65434  1.0000 -0.5514850809
O   O63       1.0  0.77746  0.09260  0.34566  1.0000 -0.5514850809
O   O64       1.0  0.34260  0.49694  0.81514  1.0000 -0.5514850809
O   O65       1.0  0.93417  0.18865  0.17642  1.0000 -0.5341798744
O   O66       1.0  0.00775  0.68417  0.24552  1.0000 -0.5341798744
O   O67       1.0  0.43865  0.76223  0.75448  1.0000 -0.5341798744
O   O68       1.0  0.01223  0.75775  0.82358  1.0000 -0.5341798744
O   O69       1.0  0.31583  0.56135  0.32358  1.0000 -0.5341798744
O   O70       1.0  0.24225  0.06583  0.25448  1.0000 -0.5341798744
O   O71       1.0  0.81135  0.98777  0.74552  1.0000 -0.5341798744
O   O72       1.0  0.23777  0.99225  0.67642  1.0000 -0.5341798744
O   O73       1.0  0.01267  0.28487  0.12414  1.0000 -0.5883529379
O   O74       1.0  0.13853  0.76267  0.22780  1.0000 -0.5883529379
O   O75       1.0  0.53487  0.91073  0.77220  1.0000 -0.5883529379
O   O76       1.0  0.16073  0.88853  0.87586  1.0000 -0.5883529379
O   O77       1.0  0.23733  0.46513  0.37586  1.0000 -0.5883529379
O   O78       1.0  0.11147  0.98733  0.27220  1.0000 -0.5883529379
O   O79       1.0  0.71513  0.83927  0.72780  1.0000 -0.5883529379
O   O80       1.0  0.08927  0.86147  0.62414  1.0000 -0.5883529379
O   O81       1.0  0.16734  0.46536  0.20930  1.0000 -0.5731043487
O   O82       1.0  0.20804  0.91734  0.20198  1.0000 -0.5731043487
O   O83       1.0  0.71536  0.00606  0.79802  1.0000 -0.5731043487
O   O84       1.0  0.25606  0.95804  0.79070  1.0000 -0.5731043487
O   O85       1.0  0.08266  0.28464  0.29070  1.0000 -0.5731043487
O   O86       1.0  0.04196  0.83266  0.29802  1.0000 -0.5731043487
O   O87       1.0  0.53464  0.74394  0.70198  1.0000 -0.5731043487
O   O88       1.0  0.99394  0.79196  0.70930  1.0000 -0.5731043487
O   O89       1.0  0.17039  0.51263  0.15242  1.0000 -0.5341798744
O   O90       1.0  0.26797  0.92039  0.15776  1.0000 -0.5341798744
O   O91       1.0  0.76263  0.11021  0.84224  1.0000 -0.5341798744
O   O92       1.0  0.36021  0.01797  0.84758  1.0000 -0.5341798744
O   O93       1.0  0.07961  0.23737  0.34758  1.0000 -0.5341798744
O   O94       1.0  0.98203  0.82961  0.34224  1.0000 -0.5341798744
O   O95       1.0  0.48737  0.63979  0.65776  1.0000 -0.5341798744
O   O96       1.0  0.88979  0.73203  0.65242  1.0000 -0.5341798744
O   O97       1.0  0.57069  0.94395  0.21704  1.0000 -0.5393800794
O   O98       1.0  0.60365  0.32069  0.12674  1.0000 -0.5393800794
O   O99       1.0  0.19395  0.47691  0.87326  1.0000 -0.5393800794
O   O100      1.0  0.72691  0.35365  0.78296  1.0000 -0.5393800794
O   O101      1.0  0.67931  0.80605  0.28296  1.0000 -0.5393800794
O   O102      1.0  0.64635  0.42931  0.37326  1.0000 -0.5393800794
O   O103      1.0  0.05605  0.27309  0.62674  1.0000 -0.5393800794
O   O104      1.0  0.52309  0.39635  0.71704  1.0000 -0.5393800794
O   O105      1.0  0.72837  0.06017  0.24074  1.0000 -0.5393800794
O   O106      1.0  0.73763  0.47837  0.16820  1.0000 -0.5393800794
O   O107      1.0  0.31017  0.56943  0.83180  1.0000 -0.5393800794
O   O108      1.0  0.81943  0.48763  0.75926  1.0000 -0.5393800794
O   O109      1.0  0.52163  0.68983  0.25926  1.0000 -0.5393800794
O   O110      1.0  0.51237  0.27163  0.33180  1.0000 -0.5393800794
O   O111      1.0  0.93983  0.18057  0.66820  1.0000 -0.5393800794
O   O112      1.0  0.43057  0.26237  0.74074  1.0000 -0.5393800794
O   O113      1.0  0.39485  0.72083  0.13148  1.0000 -0.5393800794
O   O114      1.0  0.51337  0.14485  0.17402  1.0000 -0.5393800794
O   O115      1.0  0.97083  0.33935  0.82598  1.0000 -0.5393800794
O   O116      1.0  0.58935  0.26337  0.86852  1.0000 -0.5393800794
O   O117      1.0  0.85515  0.02917  0.36852  1.0000 -0.5393800794
O   O118      1.0  0.73663  0.60515  0.32598  1.0000 -0.5393800794
O   O119      1.0  0.27917  0.41065  0.67402  1.0000 -0.5393800794
O   O120      1.0  0.66065  0.48663  0.63148  1.0000 -0.5393800794
O   O121      1.0  0.50859  0.79096  0.18475  1.0000 -0.5163350468
O   O122      1.0  0.57384  0.25859  0.21763  1.0000 -0.5163350468
O   O123      1.0  0.04096  0.35621  0.78237  1.0000 -0.5089385464
O   O124      1.0  0.60621  0.32384  0.81525  1.0000 -0.5163350468
O   O125      1.0  0.74141  0.95904  0.31525  1.0000 -0.5163350468
O   O126      1.0  0.67616  0.49141  0.28237  1.0000 -0.5163350468
O   O127      1.0  0.20904  0.39379  0.71763  1.0000 -0.5089385464
O   O128      1.0  0.64379  0.42616  0.68475  1.0000 -0.5163350468
O   O129      1.0  0.58068  0.87852  0.29760  1.0000 -0.6814430996
O   O130      1.0  0.53308  0.33068  0.20216  1.0000 -0.6814430996
O   O131      1.0  0.12852  0.33092  0.79784  1.0000 -0.6814430996
O   O132      1.0  0.58092  0.28308  0.70240  1.0000 -0.6814430996
O   O133      1.0  0.66932  0.87148  0.20240  1.0000 -0.6814430996
O   O134      1.0  0.71692  0.41932  0.29784  1.0000 -0.6814430996
O   O135      1.0  0.12148  0.41908  0.70216  1.0000 -0.6814430996
O   O136      1.0  0.66908  0.46692  0.79760  1.0000 -0.6814430996
O   O137      1.0  0.23802  0.69727  0.23669  1.0000 -0.7027289911
O   O138      1.0  0.25133  0.98802  0.04075  1.0000 -0.7027289911
O   O139      1.0  0.94727  0.21058  0.95925  1.0000 -0.7027289911
O   O140      1.0  0.46058  0.00133  0.76331  1.0000 -0.7027289911
O   O141      1.0  0.01198  0.05273  0.26331  1.0000 -0.7027289911
O   O142      1.0  0.99867  0.76198  0.45925  1.0000 -0.7027289911
O   O143      1.0  0.30273  0.53942  0.54075  1.0000 -0.7027289911
O   O144      1.0  0.78942  0.74867  0.73669  1.0000 -0.7027289911
O   O145      1.0  0.42385  0.87385  0.18210  1.0000 -0.6656903221
O   O146      1.0  0.49175  0.17385  0.05000  1.0000 -0.6656903221
O   O147      1.0  0.12385  0.44175  0.95000  1.0000 -0.6656903221
O   O148      1.0  0.69175  0.24175  0.81790  1.0000 -0.6656903221
O   O149      1.0  0.82615  0.87615  0.31790  1.0000 -0.6656903221
O   O150      1.0  0.75825  0.57615  0.45000  1.0000 -0.6656903221
O   O151      1.0  0.12615  0.30825  0.55000  1.0000 -0.6656903221
O   O152      1.0  0.55825  0.50825  0.68210  1.0000 -0.6656903221
O   O153      1.0  0.49031  0.02585  0.22856  1.0000 -0.7160544998
O   O154      1.0  0.51175  0.24031  0.96446  1.0000 -0.7160544998
O   O155      1.0  0.27585  0.54729  0.03554  1.0000 -0.7160544998
O   O156      1.0  0.79729  0.26175  0.77144  1.0000 -0.7160544998
O   O157      1.0  0.75969  0.72415  0.27144  1.0000 -0.7160544998
O   O158      1.0  0.73825  0.50969  0.53554  1.0000 -0.7160544998
O   O159      1.0  0.97415  0.20271  0.46446  1.0000 -0.7160544998
O   O160      1.0  0.45271  0.48825  0.72856  1.0000 -0.7160544998
O   O161      1.0  0.23925  0.78939  0.18504  1.0000 -0.6814430996
O   O162      1.0  0.30421  0.98925  0.94986  1.0000 -0.6814430996
O   O163      1.0  0.03939  0.35435  0.05014  1.0000 -0.6814430996
O   O164      1.0  0.60435  0.05421  0.81496  1.0000 -0.6814430996
O   O165      1.0  0.01075  0.96061  0.31496  1.0000 -0.6814430996
O   O166      1.0  0.94579  0.76075  0.55014  1.0000 -0.6814430996
O   O167      1.0  0.21061  0.39565  0.44986  1.0000 -0.6814430996
O   O168      1.0  0.64565  0.69579  0.68504  1.0000 -0.6814430996
O   O169      1.0  0.36110  0.09387  0.27337  1.0000 -0.7160544998
O   O170      1.0  0.33773  0.11110  0.76723  1.0000 -0.7160544998
O   O171      1.0  0.34387  0.57050  0.23277  1.0000 -0.7160544998
O   O172      1.0  0.82050  0.08773  0.72663  1.0000 -0.7160544998
O   O173      1.0  0.88890  0.65613  0.22663  1.0000 -0.7160544998
O   O174      1.0  0.91227  0.63890  0.73277  1.0000 -0.7160544998
O   O175      1.0  0.90613  0.17950  0.26723  1.0000 -0.7160544998
O   O176      1.0  0.42950  0.66227  0.77337  1.0000 -0.7160544998
O   O177      1.0  0.39288  0.12530  0.15638  1.0000 -0.7142976864
O   O178      1.0  0.48650  0.14288  0.76758  1.0000 -0.7142976864
O   O179      1.0  0.37530  0.71892  0.23242  1.0000 -0.7142976864
O   O180      1.0  0.96892  0.23650  0.84362  1.0000 -0.7142976864
O   O181      1.0  0.85712  0.62470  0.34362  1.0000 -0.7142976864
O   O182      1.0  0.76350  0.60712  0.73242  1.0000 -0.7142976864
O   O183      1.0  0.87470  0.03108  0.26758  1.0000 -0.7142976864
O   O184      1.0  0.28108  0.51350  0.65638  1.0000 -0.7142976864
O   O185      1.0  0.19715  0.90565  0.30960  1.0000 -0.6814430996
O   O186      1.0  0.13755  0.94715  0.79150  1.0000 -0.6814430996
O   O187      1.0  0.15565  0.34605  0.20850  1.0000 -0.6814430996
O   O188      1.0  0.59605  0.88755  0.69040  1.0000 -0.6814430996
O   O189      1.0  0.05285  0.84435  0.19040  1.0000 -0.6814430996
O   O190      1.0  0.11245  0.80285  0.70850  1.0000 -0.6814430996
O   O191      1.0  0.09435  0.40395  0.29150  1.0000 -0.6814430996
O   O192      1.0  0.65395  0.86245  0.80960  1.0000 -0.6814430996
