# DDEC6 charges by PACMAN v1.1 (https://github.com/mtap-research/PACMAN-charge/)
data_2006[Ni][mot]3[FSR]1
_chemical_formula_sum              "Ni2 H26 C36 S1 N4 O10"
_cell_length_a       13.2214
_cell_length_b       13.2214
_cell_length_c       11.259
_cell_angle_alpha    72.7905
_cell_angle_beta     107.209
_cell_angle_gamma    143.628

_symmetry_space_group_name_H-M    "P 1"
_symmetry_Int_Tables_number       1

loop_
  _symmetry_equiv_pos_as_xyz
  'x, y, z'

loop_
  _atom_site_type_symbol
  _atom_site_label
  _atom_site_symmetry_multiplicity
  _atom_site_fract_x
  _atom_site_fract_y
  _atom_site_fract_z
  _atom_site_occupancy
  _atom_site_charge
Ni  Ni1       1.0  0.13641  0.76397  0.92994  1.0000 0.7714960159
Ni  Ni2       1.0  0.76397  0.13641  0.07006  1.0000 0.7714960159
H   H1        1.0  0.33300  0.26240  0.20820  1.0000 0.1311800771
H   H2        1.0  0.26240  0.33300  0.79180  1.0000 0.1311800771
H   H3        1.0  0.56320  0.33720  0.29310  1.0000 0.1109863296
H   H4        1.0  0.33720  0.56320  0.70690  1.0000 0.1109863296
H   H5        1.0  0.65190  0.28810  0.19810  1.0000 0.1109863296
H   H6        1.0  0.28810  0.65190  0.80190  1.0000 0.1109863296
H   H7        1.0  0.30140  0.77260  0.19320  1.0000 0.1179733903
H   H8        1.0  0.77260  0.30140  0.80680  1.0000 0.1179733903
H   H9        1.0  0.30690  0.77970  0.39430  1.0000 0.1311800771
H   H10       1.0  0.77970  0.30690  0.60570  1.0000 0.1311800771
H   H11       1.0  0.95200  0.73120  0.28220  1.0000 0.1386367411
H   H12       1.0  0.73120  0.95200  0.71780  1.0000 0.1386367411
H   H13       1.0  0.95150  0.71930  0.08240  1.0000 0.1109863296
H   H14       1.0  0.71930  0.95150  0.91760  1.0000 0.1109863296
H   H15       1.0  0.90790  0.64250  0.68750  1.0000 0.10106554
H   H16       1.0  0.64250  0.90790  0.31250  1.0000 0.10106554
H   H17       1.0  0.89580  0.62540  0.48220  1.0000 0.1311800771
H   H18       1.0  0.62540  0.89580  0.51780  1.0000 0.1311800771
H   H19       1.0  0.38430  0.91990  0.54900  1.0000 0.1311800771
H   H20       1.0  0.91990  0.38430  0.45100  1.0000 0.1311800771
H   H21       1.0  0.38200  0.92660  0.75030  1.0000 0.1109863296
H   H22       1.0  0.92660  0.38200  0.24970  1.0000 0.1109863296
H   H23       1.0  0.83910  0.49670  0.98570  1.0000 0.3323688687
H   H24       1.0  0.49670  0.83910  0.01430  1.0000 0.3323688687
H   H25       1.0  0.82860  0.54600  0.86240  1.0000 0.3190550686
H   H26       1.0  0.54600  0.82860  0.13760  1.0000 0.3190550686
C   C1        1.0  0.46057  0.16403  0.06040  1.0000 -0.0516027591
C   C2        1.0  0.16403  0.46057  0.93960  1.0000 -0.0516027591
C   C3        1.0  0.32193  0.12367  0.00100  1.0000 -0.0665165565
C   C4        1.0  0.12367  0.32193  0.99900  1.0000 -0.0665165565
C   C5        1.0  0.27210  0.15750  0.05990  1.0000 0.0274600082
C   C6        1.0  0.15750  0.27210  0.94010  1.0000 0.0274600082
C   C7        1.0  0.36540  0.23900  0.16990  1.0000 -0.1186055734
C   C8        1.0  0.23900  0.36540  0.83010  1.0000 -0.1186055734
C   C9        1.0  0.50200  0.28340  0.21990  1.0000 -0.0942199311
C   C10       1.0  0.28340  0.50200  0.78010  1.0000 -0.0942199311
C   C11       1.0  0.55350  0.25070  0.16440  1.0000 -0.133361858
C   C12       1.0  0.25070  0.55350  0.83560  1.0000 -0.133361858
C   C13       1.0  0.50999  0.11661  0.00780  1.0000 0.5720430494
C   C14       1.0  0.11661  0.50999  0.99220  1.0000 0.5720430494
C   C15       1.0  0.22840  0.05160  0.87500  1.0000 0.5620544434
C   C16       1.0  0.05160  0.22840  0.12500  1.0000 0.5620544434
C   C17       1.0  0.22980  0.76320  0.21180  1.0000 0.0878680081
C   C18       1.0  0.76320  0.22980  0.78820  1.0000 0.0878680081
C   C19       1.0  0.23540  0.76980  0.33210  1.0000 -0.1975243135
C   C20       1.0  0.76980  0.23540  0.66790  1.0000 -0.1975243135
C   C21       1.0  0.13441  0.76199  0.36250  1.0000 0.1109863296
C   C22       1.0  0.76199  0.13441  0.63750  1.0000 0.1109863296
C   C23       1.0  0.02430  0.74030  0.26590  1.0000 -0.1888224601
C   C24       1.0  0.74030  0.02430  0.73410  1.0000 -0.1888224601
C   C25       1.0  0.02410  0.73250  0.14630  1.0000 0.0774455102
C   C26       1.0  0.73250  0.02410  0.85370  1.0000 0.0774455102
C   C27       1.0  0.00510  0.69810  0.66020  1.0000 0.1109863296
C   C28       1.0  0.69810  0.00510  0.33980  1.0000 0.1109863296
C   C29       1.0  0.99700  0.68900  0.53500  1.0000 -0.2141394137
C   C30       1.0  0.68900  0.99700  0.46500  1.0000 -0.2141394137
C   C31       1.0  0.14530  0.77830  0.49270  1.0000 0.10106554
C   C32       1.0  0.77830  0.14530  0.50730  1.0000 0.10106554
C   C33       1.0  0.28500  0.86240  0.57390  1.0000 -0.1888224601
C   C34       1.0  0.86240  0.28500  0.42610  1.0000 -0.1888224601
C   C35       1.0  0.28220  0.86440  0.69590  1.0000 0.0878680081
C   C36       1.0  0.86440  0.28220  0.30410  1.0000 0.0878680081
S   S1        1.0  0.08010  0.08010  0.00000  1.0000 -0.0080507404
N   N1        1.0  0.12482  0.74338  0.11860  1.0000 -0.2494421645
N   N2        1.0  0.74338  0.12482  0.88140  1.0000 -0.2494421645
N   N3        1.0  0.14088  0.77972  0.73840  1.0000 -0.1975243135
N   N4        1.0  0.77972  0.14088  0.26160  1.0000 -0.1975243135
O   O1        1.0  0.40059  0.99221  0.94640  1.0000 -0.5147757053
O   O2        1.0  0.99221  0.40059  0.05360  1.0000 -0.5147757053
O   O3        1.0  0.65947  0.20193  0.03770  1.0000 -0.5249614834
O   O4        1.0  0.20193  0.65947  0.96230  1.0000 -0.5249614834
O   O5        1.0  0.09519  0.89341  0.87150  1.0000 -0.5789864778
O   O6        1.0  0.89341  0.09519  0.12850  1.0000 -0.5789864778
O   O7        1.0  0.29237  0.16103  0.78270  1.0000 -0.5256028294
O   O8        1.0  0.16103  0.29237  0.21730  1.0000 -0.5256028294
O   O9        1.0  0.87652  0.53348  0.91550  1.0000 -0.6381048082
O   O10       1.0  0.53348  0.87652  0.08450  1.0000 -0.6381048082
