# DDEC6 charges by PACMAN v1.1 (https://github.com/mtap-research/PACMAN-charge/)
data_2006[Fe][nan]3[FSR]1
_chemical_formula_sum              "Fe8 P4 H4 C12 O36"
_cell_length_a       7.6827
_cell_length_b       7.7269
_cell_length_c       18.092
_cell_angle_alpha    90
_cell_angle_beta     94.443
_cell_angle_gamma    90

_symmetry_space_group_name_H-M    "P 1"
_symmetry_Int_Tables_number       1

loop_
  _symmetry_equiv_pos_as_xyz
  'x, y, z'

loop_
  _atom_site_type_symbol
  _atom_site_label
  _atom_site_symmetry_multiplicity
  _atom_site_fract_x
  _atom_site_fract_y
  _atom_site_fract_z
  _atom_site_occupancy
  _atom_site_charge
Fe  Fe1       1.0  0.88628  0.41509  0.63900  1.0000 1.0578849584
Fe  Fe2       1.0  0.11372  0.91509  0.86100  1.0000 1.0513460905
Fe  Fe3       1.0  0.11372  0.58491  0.36100  1.0000 1.0513460905
Fe  Fe4       1.0  0.88628  0.08491  0.13900  1.0000 1.0578849584
Fe  Fe5       1.0  0.22343  0.66654  0.68874  1.0000 1.0736857723
Fe  Fe6       1.0  0.77657  0.16654  0.81126  1.0000 1.0758036048
Fe  Fe7       1.0  0.77657  0.33346  0.31126  1.0000 1.0736857723
Fe  Fe8       1.0  0.22343  0.83346  0.18874  1.0000 1.0736857723
P   P1        1.0  0.05923  0.05280  0.69190  1.0000 1.1283160717
P   P2        1.0  0.94077  0.55280  0.80810  1.0000 1.1283160717
P   P3        1.0  0.94077  0.94720  0.30810  1.0000 1.1283160717
P   P4        1.0  0.05923  0.44720  0.19190  1.0000 1.1283160717
H   H1        1.0  0.16880  0.11680  0.70150  1.0000 0.0468407858
H   H2        1.0  0.83120  0.61680  0.79850  1.0000 0.0468407858
H   H3        1.0  0.83120  0.88320  0.29850  1.0000 0.0468407858
H   H4        1.0  0.16880  0.38320  0.20150  1.0000 0.0468407858
C   C1        1.0  0.57460  0.61690  0.64907  1.0000 0.5001520262
C   C2        1.0  0.42540  0.11690  0.85093  1.0000 0.5001520262
C   C3        1.0  0.42540  0.38310  0.35093  1.0000 0.5001520262
C   C4        1.0  0.57460  0.88310  0.14907  1.0000 0.5001520262
C   C5        1.0  0.08300  0.54530  0.52000  1.0000 0.5171128184
C   C6        1.0  0.91700  0.04530  0.98000  1.0000 0.5171128184
C   C7        1.0  0.91700  0.45470  0.48000  1.0000 0.5171128184
C   C8        1.0  0.08300  0.95470  0.02000  1.0000 0.5171128184
C   C9        1.0  0.54010  0.45970  0.69901  1.0000 0.4840513588
C   C10       1.0  0.45990  0.95970  0.80099  1.0000 0.4840513588
C   C11       1.0  0.45990  0.54030  0.30099  1.0000 0.4840513588
C   C12       1.0  0.54010  0.04030  0.19901  1.0000 0.4840513588
O   O1        1.0  0.94010  0.16260  0.63979  1.0000 -0.6513741865
O   O2        1.0  0.05990  0.66260  0.86021  1.0000 -0.6513741865
O   O3        1.0  0.05990  0.83740  0.36021  1.0000 -0.6513741865
O   O4        1.0  0.94010  0.33740  0.13979  1.0000 -0.6513741865
O   O5        1.0  0.72200  0.62960  0.62434  1.0000 -0.4557513475
O   O6        1.0  0.27800  0.12960  0.87566  1.0000 -0.4557513475
O   O7        1.0  0.27800  0.37040  0.37566  1.0000 -0.4557513475
O   O8        1.0  0.72200  0.87040  0.12434  1.0000 -0.4557513475
O   O9        1.0  0.09780  0.52860  0.58964  1.0000 -0.5235549986
O   O10       1.0  0.90220  0.02860  0.91036  1.0000 -0.5235549986
O   O11       1.0  0.90220  0.47140  0.41036  1.0000 -0.5235549986
O   O12       1.0  0.09780  0.97140  0.08964  1.0000 -0.5235549986
O   O13       1.0  0.98030  0.02930  0.76643  1.0000 -0.7164946526
O   O14       1.0  0.01970  0.52930  0.73357  1.0000 -0.7164946526
O   O15       1.0  0.01970  0.97070  0.23357  1.0000 -0.7164946526
O   O16       1.0  0.98030  0.47070  0.26643  1.0000 -0.7164946526
O   O17       1.0  0.18350  0.62150  0.48138  1.0000 -0.4088193803
O   O18       1.0  0.81650  0.12150  0.01862  1.0000 -0.4088193803
O   O19       1.0  0.81650  0.37850  0.51862  1.0000 -0.4088193803
O   O20       1.0  0.18350  0.87850  0.98138  1.0000 -0.4088193803
O   O21       1.0  0.66090  0.34960  0.70721  1.0000 -0.5235549986
O   O22       1.0  0.33910  0.84960  0.79279  1.0000 -0.5235549986
O   O23       1.0  0.33910  0.65040  0.29279  1.0000 -0.5235549986
O   O24       1.0  0.66090  0.15040  0.20721  1.0000 -0.5235549986
O   O25       1.0  0.10320  0.88340  0.65642  1.0000 -0.6513741865
O   O26       1.0  0.89680  0.38340  0.84358  1.0000 -0.6513741865
O   O27       1.0  0.89680  0.11660  0.34358  1.0000 -0.6513741865
O   O28       1.0  0.10320  0.61660  0.15642  1.0000 -0.6513741865
O   O29       1.0  0.45280  0.72080  0.63711  1.0000 -0.4290957853
O   O30       1.0  0.54720  0.22080  0.86289  1.0000 -0.4290957853
O   O31       1.0  0.54720  0.27920  0.36289  1.0000 -0.4290957853
O   O32       1.0  0.45280  0.77920  0.13711  1.0000 -0.4290957853
O   O33       1.0  0.39430  0.45710  0.72496  1.0000 -0.4449913233
O   O34       1.0  0.60570  0.95710  0.77504  1.0000 -0.4455772369
O   O35       1.0  0.60570  0.54290  0.27504  1.0000 -0.4455772369
O   O36       1.0  0.39430  0.04290  0.22496  1.0000 -0.4449913233
