# DDEC6 charges by PACMAN v1.1 (https://github.com/mtap-research/PACMAN-charge/)
data_2006[Ni][nan]3[FSR]4
_chemical_formula_sum              "Ni20 H88 C64 N16 O72"
_cell_length_a       18.186
_cell_length_b       18.186
_cell_length_c       11.706
_cell_angle_alpha    90
_cell_angle_beta     90
_cell_angle_gamma    90

_symmetry_space_group_name_H-M    "P 1"
_symmetry_Int_Tables_number       1

loop_
  _symmetry_equiv_pos_as_xyz
  'x, y, z'

loop_
  _atom_site_type_symbol
  _atom_site_label
  _atom_site_symmetry_multiplicity
  _atom_site_fract_x
  _atom_site_fract_y
  _atom_site_fract_z
  _atom_site_occupancy
  _atom_site_charge
Ni  Ni1       1.0  0.06060  0.45711  0.83910  1.0000 1.0295665287
Ni  Ni2       1.0  0.93940  0.54289  0.33910  1.0000 1.0295665287
Ni  Ni3       1.0  0.95711  0.43940  0.08910  1.0000 1.0295665287
Ni  Ni4       1.0  0.04289  0.56060  0.58910  1.0000 1.0295665287
Ni  Ni5       1.0  0.56060  0.04289  0.41090  1.0000 1.0295665287
Ni  Ni6       1.0  0.43940  0.95711  0.91090  1.0000 1.0295665287
Ni  Ni7       1.0  0.45711  0.06060  0.16090  1.0000 1.0295665287
Ni  Ni8       1.0  0.54289  0.93940  0.66090  1.0000 1.0295665287
Ni  Ni9       1.0  0.12424  0.40690  0.06400  1.0000 0.8670317404
Ni  Ni10      1.0  0.87576  0.59310  0.56400  1.0000 0.8670317404
Ni  Ni11      1.0  0.90690  0.37576  0.31400  1.0000 0.8670317404
Ni  Ni12      1.0  0.09310  0.62424  0.81400  1.0000 0.8670317404
Ni  Ni13      1.0  0.62424  0.09310  0.18600  1.0000 0.8670317404
Ni  Ni14      1.0  0.37576  0.90690  0.68600  1.0000 0.8670317404
Ni  Ni15      1.0  0.40690  0.12424  0.93600  1.0000 0.8670317404
Ni  Ni16      1.0  0.59310  0.87576  0.43600  1.0000 0.8670317404
Ni  Ni17      1.0  0.25560  0.25560  0.00000  1.0000 0.824364138
Ni  Ni18      1.0  0.74440  0.74440  0.50000  1.0000 0.8255143487
Ni  Ni19      1.0  0.75560  0.24440  0.25000  1.0000 0.824364138
Ni  Ni20      1.0  0.24440  0.75560  0.75000  1.0000 0.824364138
H   H1        1.0  0.25410  0.44410  0.10890  1.0000 0.3070805022
H   H2        1.0  0.74590  0.55590  0.60890  1.0000 0.3070805022
H   H3        1.0  0.94410  0.24590  0.35890  1.0000 0.3070805022
H   H4        1.0  0.05590  0.75410  0.85890  1.0000 0.3070805022
H   H5        1.0  0.75410  0.05590  0.14110  1.0000 0.3070805022
H   H6        1.0  0.24590  0.94410  0.64110  1.0000 0.3070805022
H   H7        1.0  0.44410  0.25410  0.89110  1.0000 0.3070805022
H   H8        1.0  0.55590  0.74590  0.39110  1.0000 0.3070805022
H   H9        1.0  0.21090  0.45650  0.21220  1.0000 0.2933458486
H   H10       1.0  0.78910  0.54350  0.71220  1.0000 0.2933458486
H   H11       1.0  0.95650  0.28910  0.46220  1.0000 0.2933458486
H   H12       1.0  0.04350  0.71090  0.96220  1.0000 0.2933458486
H   H13       1.0  0.71090  0.04350  0.03780  1.0000 0.2933458486
H   H14       1.0  0.28910  0.95650  0.53780  1.0000 0.2933458486
H   H15       1.0  0.45650  0.21090  0.78780  1.0000 0.2933458486
H   H16       1.0  0.54350  0.78910  0.28780  1.0000 0.2933458486
H   H17       1.0  0.16670  0.17670  0.89100  1.0000 0.2933458486
H   H18       1.0  0.83330  0.82330  0.39100  1.0000 0.2933458486
H   H19       1.0  0.67670  0.33333  0.14100  1.0000 0.2933458486
H   H20       1.0  0.32330  0.66667  0.64100  1.0000 0.2933458486
H   H21       1.0  0.66667  0.32330  0.35900  1.0000 0.2933458486
H   H22       1.0  0.33333  0.67670  0.85900  1.0000 0.2933458486
H   H23       1.0  0.17670  0.16670  0.10900  1.0000 0.2933458486
H   H24       1.0  0.82330  0.83330  0.60900  1.0000 0.2933458486
H   H25       1.0  0.23910  0.16730  0.83720  1.0000 0.2933458486
H   H26       1.0  0.76090  0.83270  0.33720  1.0000 0.2933458486
H   H27       1.0  0.66730  0.26090  0.08720  1.0000 0.2933458486
H   H28       1.0  0.33270  0.73910  0.58720  1.0000 0.2933458486
H   H29       1.0  0.73910  0.33270  0.41280  1.0000 0.2933458486
H   H30       1.0  0.26090  0.66730  0.91280  1.0000 0.2933458486
H   H31       1.0  0.16730  0.23910  0.16280  1.0000 0.2933458486
H   H32       1.0  0.83270  0.76090  0.66280  1.0000 0.2933458486
H   H33       1.0  0.25320  0.56500  0.11080  1.0000 0.1010565259
H   H34       1.0  0.74680  0.43500  0.61080  1.0000 0.1010565259
H   H35       1.0  0.06500  0.24680  0.36080  1.0000 0.1010565259
H   H36       1.0  0.93500  0.75320  0.86080  1.0000 0.1010565259
H   H37       1.0  0.75320  0.93500  0.13920  1.0000 0.1010565259
H   H38       1.0  0.24680  0.06500  0.63920  1.0000 0.1010565259
H   H39       1.0  0.56500  0.25320  0.88920  1.0000 0.1010565259
H   H40       1.0  0.43500  0.74680  0.38920  1.0000 0.1010565259
H   H41       1.0  0.14900  0.62780  0.18290  1.0000 0.1599908643
H   H42       1.0  0.85100  0.37220  0.68290  1.0000 0.1599908643
H   H43       1.0  0.12780  0.35100  0.43290  1.0000 0.1599908643
H   H44       1.0  0.87220  0.64900  0.93290  1.0000 0.1599908643
H   H45       1.0  0.64900  0.87220  0.06710  1.0000 0.1599908643
H   H46       1.0  0.35100  0.12780  0.56710  1.0000 0.1599908643
H   H47       1.0  0.62780  0.14900  0.81710  1.0000 0.1599908643
H   H48       1.0  0.37220  0.85100  0.31710  1.0000 0.1599908643
H   H49       1.0  0.17340  0.56820  0.27170  1.0000 0.1599908643
H   H50       1.0  0.82660  0.43180  0.77170  1.0000 0.1599908643
H   H51       1.0  0.06820  0.32660  0.52170  1.0000 0.1599908643
H   H52       1.0  0.93180  0.67340  0.02170  1.0000 0.1599908643
H   H53       1.0  0.67340  0.93180  0.97830  1.0000 0.1599908643
H   H54       1.0  0.32660  0.06820  0.47830  1.0000 0.1599908643
H   H55       1.0  0.56820  0.17340  0.72830  1.0000 0.1599908643
H   H56       1.0  0.43180  0.82660  0.22830  1.0000 0.1599908643
H   H57       1.0  0.15120  0.24540  0.73600  1.0000 0.1055406988
H   H58       1.0  0.84880  0.75460  0.23600  1.0000 0.1055406988
H   H59       1.0  0.74540  0.34880  0.98600  1.0000 0.1055406988
H   H60       1.0  0.25460  0.65120  0.48600  1.0000 0.1055406988
H   H61       1.0  0.65120  0.25460  0.51400  1.0000 0.1055406988
H   H62       1.0  0.34880  0.74540  0.01400  1.0000 0.1055406988
H   H63       1.0  0.24540  0.15120  0.26400  1.0000 0.1055406988
H   H64       1.0  0.75460  0.84880  0.76400  1.0000 0.1055406988
H   H65       1.0  0.26330  0.23530  0.66610  1.0000 0.1459739678
H   H66       1.0  0.73670  0.76470  0.16610  1.0000 0.1459739678
H   H67       1.0  0.73530  0.23670  0.91610  1.0000 0.1459739678
H   H68       1.0  0.26470  0.76330  0.41610  1.0000 0.1459739678
H   H69       1.0  0.76330  0.26470  0.58390  1.0000 0.1459739678
H   H70       1.0  0.23670  0.73530  0.08390  1.0000 0.1459739678
H   H71       1.0  0.23530  0.26330  0.33390  1.0000 0.1459739678
H   H72       1.0  0.76470  0.73670  0.83390  1.0000 0.1459739678
H   H73       1.0  0.23540  0.31660  0.65340  1.0000 0.1659163856
H   H74       1.0  0.76460  0.68340  0.15340  1.0000 0.1659163856
H   H75       1.0  0.81660  0.26460  0.90340  1.0000 0.1659163856
H   H76       1.0  0.18340  0.73540  0.40340  1.0000 0.1659163856
H   H77       1.0  0.73540  0.18340  0.59660  1.0000 0.1659163856
H   H78       1.0  0.26460  0.81660  0.09660  1.0000 0.1659163856
H   H79       1.0  0.31660  0.23540  0.34660  1.0000 0.1659163856
H   H80       1.0  0.68340  0.76460  0.84660  1.0000 0.1659163856
H   H81       1.0  0.15540  0.52190  0.71510  1.0000 0.4005301916
H   H82       1.0  0.84460  0.47810  0.21510  1.0000 0.4005301916
H   H83       1.0  0.02190  0.34460  0.96510  1.0000 0.4005301916
H   H84       1.0  0.97810  0.65540  0.46510  1.0000 0.4005301916
H   H85       1.0  0.65540  0.97810  0.53490  1.0000 0.4005301916
H   H86       1.0  0.34460  0.02190  0.03490  1.0000 0.4005301916
H   H87       1.0  0.52190  0.15540  0.28490  1.0000 0.4005301916
H   H88       1.0  0.47810  0.84460  0.78490  1.0000 0.4005301916
C   C1        1.0  0.17300  0.55200  0.99100  1.0000 0.5445227348
C   C2        1.0  0.82700  0.44800  0.49100  1.0000 0.5445227348
C   C3        1.0  0.05200  0.32700  0.24100  1.0000 0.5445227348
C   C4        1.0  0.94800  0.67300  0.74100  1.0000 0.5445227348
C   C5        1.0  0.67300  0.94800  0.25900  1.0000 0.5445227348
C   C6        1.0  0.32700  0.05200  0.75900  1.0000 0.5445227348
C   C7        1.0  0.55200  0.17300  0.00900  1.0000 0.5445227348
C   C8        1.0  0.44800  0.82700  0.50900  1.0000 0.5445227348
C   C9        1.0  0.20490  0.54130  0.10600  1.0000 0.0397427776
C   C10       1.0  0.79510  0.45870  0.60600  1.0000 0.0397427776
C   C11       1.0  0.04130  0.29510  0.35600  1.0000 0.0397427776
C   C12       1.0  0.95870  0.70490  0.85600  1.0000 0.0397427776
C   C13       1.0  0.70490  0.95870  0.14400  1.0000 0.0397427776
C   C14       1.0  0.29510  0.04130  0.64400  1.0000 0.0397427776
C   C15       1.0  0.54130  0.20490  0.89400  1.0000 0.0397427776
C   C16       1.0  0.45870  0.79510  0.39400  1.0000 0.0397427776
C   C17       1.0  0.15230  0.57530  0.19600  1.0000 -0.378635285
C   C18       1.0  0.84770  0.42470  0.69600  1.0000 -0.378635285
C   C19       1.0  0.07530  0.34770  0.44600  1.0000 -0.378635285
C   C20       1.0  0.92470  0.65230  0.94600  1.0000 -0.378635285
C   C21       1.0  0.65230  0.92470  0.05400  1.0000 -0.378635285
C   C22       1.0  0.34770  0.07530  0.55400  1.0000 -0.378635285
C   C23       1.0  0.57530  0.15230  0.80400  1.0000 -0.378635285
C   C24       1.0  0.42470  0.84770  0.30400  1.0000 -0.378635285
C   C25       1.0  0.07570  0.54320  0.19500  1.0000 0.6511778407
C   C26       1.0  0.92430  0.45680  0.69500  1.0000 0.6511778407
C   C27       1.0  0.04320  0.42430  0.44500  1.0000 0.6511778407
C   C28       1.0  0.95680  0.57570  0.94500  1.0000 0.6511778407
C   C29       1.0  0.57570  0.95680  0.05500  1.0000 0.6511778407
C   C30       1.0  0.42430  0.04320  0.55500  1.0000 0.6511778407
C   C31       1.0  0.54320  0.07570  0.80500  1.0000 0.6511778407
C   C32       1.0  0.45680  0.92430  0.30500  1.0000 0.6511778407
C   C33       1.0  0.15940  0.32630  0.85000  1.0000 0.5723486864
C   C34       1.0  0.84060  0.67370  0.35000  1.0000 0.5723486864
C   C35       1.0  0.82630  0.34060  0.10000  1.0000 0.5723486864
C   C36       1.0  0.17370  0.65940  0.60000  1.0000 0.5723486864
C   C37       1.0  0.65940  0.17370  0.40000  1.0000 0.5723486864
C   C38       1.0  0.34060  0.82630  0.90000  1.0000 0.5723486864
C   C39       1.0  0.32630  0.15940  0.15000  1.0000 0.5723486864
C   C40       1.0  0.67370  0.84060  0.65000  1.0000 0.5723486864
C   C41       1.0  0.19100  0.26330  0.78600  1.0000 0.0282846889
C   C42       1.0  0.80900  0.73670  0.28600  1.0000 0.0282846889
C   C43       1.0  0.76330  0.30900  0.03600  1.0000 0.0282846889
C   C44       1.0  0.23670  0.69100  0.53600  1.0000 0.0282846889
C   C45       1.0  0.69100  0.23670  0.46400  1.0000 0.0282846889
C   C46       1.0  0.30900  0.76330  0.96400  1.0000 0.0282846889
C   C47       1.0  0.26330  0.19100  0.21400  1.0000 0.0282846889
C   C48       1.0  0.73670  0.80900  0.71400  1.0000 0.0282846889
C   C49       1.0  0.25480  0.28020  0.70800  1.0000 -0.4256186463
C   C50       1.0  0.74520  0.71980  0.20800  1.0000 -0.4256186463
C   C51       1.0  0.78020  0.24520  0.95800  1.0000 -0.4256186463
C   C52       1.0  0.21980  0.75480  0.45800  1.0000 -0.4256186463
C   C53       1.0  0.75480  0.21980  0.54200  1.0000 -0.4256186463
C   C54       1.0  0.24520  0.78020  0.04200  1.0000 -0.4256186463
C   C55       1.0  0.28020  0.25480  0.29200  1.0000 -0.4256186463
C   C56       1.0  0.71980  0.74520  0.79200  1.0000 -0.4256186463
C   C57       1.0  0.31500  0.30500  0.77100  1.0000 0.5837170207
C   C58       1.0  0.68500  0.69500  0.27100  1.0000 0.5837170207
C   C59       1.0  0.80500  0.18500  0.02100  1.0000 0.5837170207
C   C60       1.0  0.19500  0.81500  0.52100  1.0000 0.5837170207
C   C61       1.0  0.81500  0.19500  0.47900  1.0000 0.5837170207
C   C62       1.0  0.18500  0.80500  0.97900  1.0000 0.5837170207
C   C63       1.0  0.30500  0.31500  0.22900  1.0000 0.5837170207
C   C64       1.0  0.69500  0.68500  0.72900  1.0000 0.5837170207
N   N1        1.0  0.21140  0.46220  0.13590  1.0000 -0.5511187391
N   N2        1.0  0.78860  0.53780  0.63590  1.0000 -0.5511187391
N   N3        1.0  0.96220  0.28860  0.38590  1.0000 -0.5511187391
N   N4        1.0  0.03780  0.71140  0.88590  1.0000 -0.5511187391
N   N5        1.0  0.71140  0.03780  0.11410  1.0000 -0.5511187391
N   N6        1.0  0.28860  0.96220  0.61410  1.0000 -0.5511187391
N   N7        1.0  0.46220  0.21140  0.86410  1.0000 -0.5511187391
N   N8        1.0  0.53780  0.78860  0.36410  1.0000 -0.5511187391
N   N9        1.0  0.20790  0.20000  0.86900  1.0000 -0.5511187391
N   N10       1.0  0.79210  0.80000  0.36900  1.0000 -0.5511187391
N   N11       1.0  0.70000  0.29210  0.11900  1.0000 -0.5511187391
N   N12       1.0  0.30000  0.70790  0.61900  1.0000 -0.5511187391
N   N13       1.0  0.70790  0.30000  0.38100  1.0000 -0.5511187391
N   N14       1.0  0.29210  0.70000  0.88100  1.0000 -0.5511187391
N   N15       1.0  0.20000  0.20790  0.13100  1.0000 -0.5511187391
N   N16       1.0  0.80000  0.79210  0.63100  1.0000 -0.5511187391
O   O1        1.0  0.14860  0.48610  0.94540  1.0000 -0.615107981
O   O2        1.0  0.85140  0.51390  0.44540  1.0000 -0.615107981
O   O3        1.0  0.98610  0.35140  0.19540  1.0000 -0.6145966924
O   O4        1.0  0.01390  0.64860  0.69540  1.0000 -0.615107981
O   O5        1.0  0.64860  0.01390  0.30460  1.0000 -0.6145966924
O   O6        1.0  0.35140  0.98610  0.80460  1.0000 -0.615107981
O   O7        1.0  0.48610  0.14860  0.05460  1.0000 -0.615107981
O   O8        1.0  0.51390  0.85140  0.55460  1.0000 -0.615107981
O   O9        1.0  0.16450  0.60880  0.94170  1.0000 -0.4750154591
O   O10       1.0  0.83550  0.39120  0.44170  1.0000 -0.4750154591
O   O11       1.0  0.10880  0.33550  0.19170  1.0000 -0.4750154591
O   O12       1.0  0.89120  0.66450  0.69170  1.0000 -0.4750154591
O   O13       1.0  0.66450  0.89120  0.30830  1.0000 -0.4750154591
O   O14       1.0  0.33550  0.10880  0.80830  1.0000 -0.4750154591
O   O15       1.0  0.60880  0.16450  0.05830  1.0000 -0.4744903422
O   O16       1.0  0.39120  0.83550  0.55830  1.0000 -0.4750154591
O   O17       1.0  0.02790  0.58130  0.25170  1.0000 -0.5580144725
O   O18       1.0  0.97210  0.41870  0.75170  1.0000 -0.5580144725
O   O19       1.0  0.08130  0.47210  0.50170  1.0000 -0.5580144725
O   O20       1.0  0.91870  0.52790  0.00170  1.0000 -0.5580144725
O   O21       1.0  0.52790  0.91870  0.99830  1.0000 -0.5580144725
O   O22       1.0  0.47210  0.08130  0.49830  1.0000 -0.5580144725
O   O23       1.0  0.58130  0.02790  0.74830  1.0000 -0.5580144725
O   O24       1.0  0.41870  0.97210  0.24830  1.0000 -0.5580144725
O   O25       1.0  0.05680  0.48500  0.14690  1.0000 -0.5511187391
O   O26       1.0  0.94320  0.51500  0.64690  1.0000 -0.5511187391
O   O27       1.0  0.98500  0.44320  0.39690  1.0000 -0.5511187391
O   O28       1.0  0.01500  0.55680  0.89690  1.0000 -0.5511187391
O   O29       1.0  0.55680  0.01500  0.10310  1.0000 -0.5511187391
O   O30       1.0  0.44320  0.98500  0.60310  1.0000 -0.5511187391
O   O31       1.0  0.48500  0.05680  0.85310  1.0000 -0.5511187391
O   O32       1.0  0.51500  0.94320  0.35310  1.0000 -0.5511187391
O   O33       1.0  0.17550  0.32830  0.95610  1.0000 -0.5308210417
O   O34       1.0  0.82450  0.67170  0.45610  1.0000 -0.5308210417
O   O35       1.0  0.82830  0.32450  0.20610  1.0000 -0.5308210417
O   O36       1.0  0.17170  0.67550  0.70610  1.0000 -0.5308210417
O   O37       1.0  0.67550  0.17170  0.29390  1.0000 -0.5308210417
O   O38       1.0  0.32450  0.82830  0.79390  1.0000 -0.5308210417
O   O39       1.0  0.32830  0.17550  0.04390  1.0000 -0.5308210417
O   O40       1.0  0.67170  0.82450  0.54390  1.0000 -0.5308210417
O   O41       1.0  0.12090  0.36890  0.79060  1.0000 -0.5308210417
O   O42       1.0  0.87910  0.63110  0.29060  1.0000 -0.5308210417
O   O43       1.0  0.86890  0.37910  0.04060  1.0000 -0.5308210417
O   O44       1.0  0.13110  0.62090  0.54060  1.0000 -0.5308210417
O   O45       1.0  0.62090  0.13110  0.45940  1.0000 -0.5308210417
O   O46       1.0  0.37910  0.86890  0.95940  1.0000 -0.5308210417
O   O47       1.0  0.36890  0.12090  0.20940  1.0000 -0.5308210417
O   O48       1.0  0.63110  0.87910  0.70940  1.0000 -0.5308210417
O   O49       1.0  0.31990  0.30410  0.88140  1.0000 -0.5353959626
O   O50       1.0  0.68010  0.69590  0.38140  1.0000 -0.5353959626
O   O51       1.0  0.80410  0.18010  0.13140  1.0000 -0.5353959626
O   O52       1.0  0.19590  0.81990  0.63140  1.0000 -0.5353959626
O   O53       1.0  0.81990  0.19590  0.36860  1.0000 -0.5353959626
O   O54       1.0  0.18010  0.80410  0.86860  1.0000 -0.5353959626
O   O55       1.0  0.30410  0.31990  0.11860  1.0000 -0.5353959626
O   O56       1.0  0.69590  0.68010  0.61860  1.0000 -0.5353959626
O   O57       1.0  0.36600  0.34500  0.71800  1.0000 -0.5674075684
O   O58       1.0  0.63400  0.65500  0.21800  1.0000 -0.5674075684
O   O59       1.0  0.84500  0.13400  0.96800  1.0000 -0.5674075684
O   O60       1.0  0.15500  0.86600  0.46800  1.0000 -0.5674075684
O   O61       1.0  0.86600  0.15500  0.53200  1.0000 -0.5674075684
O   O62       1.0  0.13400  0.84500  0.03200  1.0000 -0.5674075684
O   O63       1.0  0.34500  0.36600  0.28200  1.0000 -0.5674075684
O   O64       1.0  0.65500  0.63400  0.78200  1.0000 -0.5674075684
O   O65       1.0  0.10230  0.52930  0.72680  1.0000 -0.885042218
O   O66       1.0  0.89770  0.47070  0.22680  1.0000 -0.8844901598
O   O67       1.0  0.02930  0.39770  0.97680  1.0000 -0.885042218
O   O68       1.0  0.97070  0.60230  0.47680  1.0000 -0.885042218
O   O69       1.0  0.60230  0.97070  0.52320  1.0000 -0.885042218
O   O70       1.0  0.39770  0.02930  0.02320  1.0000 -0.8844901598
O   O71       1.0  0.52930  0.10230  0.27320  1.0000 -0.8844901598
O   O72       1.0  0.47070  0.89770  0.77320  1.0000 -0.885042218
