# DDEC6 charges by PACMAN v1.1 (https://github.com/mtap-research/PACMAN-charge/)
data_2006[Zn][nan]3[FSR]6
_chemical_formula_sum              "Zn10 H32 C48 O32"
_cell_length_a       6.405
_cell_length_b       14.164
_cell_length_c       20.098
_cell_angle_alpha    90
_cell_angle_beta     95.29
_cell_angle_gamma    90

_symmetry_space_group_name_H-M    "P 1"
_symmetry_Int_Tables_number       1

loop_
  _symmetry_equiv_pos_as_xyz
  'x, y, z'

loop_
  _atom_site_type_symbol
  _atom_site_label
  _atom_site_symmetry_multiplicity
  _atom_site_fract_x
  _atom_site_fract_y
  _atom_site_fract_z
  _atom_site_occupancy
  _atom_site_charge
Zn  Zn1       1.0  0.00000  0.50000  0.50000  1.0000 0.9509917212
Zn  Zn2       1.0  0.00000  0.00000  0.00000  1.0000 0.9446161819
Zn  Zn3       1.0  0.98554  0.19286  0.94185  1.0000 0.9509917212
Zn  Zn4       1.0  0.01446  0.69286  0.55815  1.0000 0.9509917212
Zn  Zn5       1.0  0.01446  0.80714  0.05815  1.0000 0.9509917212
Zn  Zn6       1.0  0.98554  0.30714  0.44185  1.0000 0.9509917212
Zn  Zn7       1.0  0.51452  0.60197  0.54392  1.0000 1.0117711855
Zn  Zn8       1.0  0.48548  0.10197  0.95608  1.0000 1.0117711855
Zn  Zn9       1.0  0.48548  0.39803  0.45608  1.0000 1.0117711855
Zn  Zn10      1.0  0.51452  0.89803  0.04392  1.0000 1.0117711855
H   H1        1.0  0.13620  0.29740  0.67530  1.0000 0.113495134
H   H2        1.0  0.86380  0.79740  0.82470  1.0000 0.113495134
H   H3        1.0  0.86380  0.70260  0.32470  1.0000 0.113495134
H   H4        1.0  0.13620  0.20260  0.17530  1.0000 0.113495134
H   H5        1.0  0.26230  0.21640  0.77140  1.0000 0.1205506742
H   H6        1.0  0.73770  0.71640  0.72860  1.0000 0.1205506742
H   H7        1.0  0.73770  0.78360  0.22860  1.0000 0.1205506742
H   H8        1.0  0.26230  0.28360  0.27140  1.0000 0.1205506742
H   H9        1.0  0.83710  0.32300  0.75480  1.0000 0.113495134
H   H10       1.0  0.16290  0.82300  0.74520  1.0000 0.113495134
H   H11       1.0  0.16290  0.67700  0.24520  1.0000 0.113495134
H   H12       1.0  0.83710  0.17700  0.25480  1.0000 0.113495134
H   H13       1.0  0.71480  0.39730  0.65650  1.0000 0.1205506742
H   H14       1.0  0.28520  0.89730  0.84350  1.0000 0.1205506742
H   H15       1.0  0.28520  0.60270  0.34350  1.0000 0.1205506742
H   H16       1.0  0.71480  0.10270  0.15650  1.0000 0.1205506742
H   H17       1.0  0.71130  0.37450  0.97360  1.0000 0.1205506742
H   H18       1.0  0.28870  0.87450  0.52640  1.0000 0.1205506742
H   H19       1.0  0.28870  0.62550  0.02640  1.0000 0.1205506742
H   H20       1.0  0.71130  0.12550  0.47360  1.0000 0.1205506742
H   H21       1.0  0.15530  0.47350  0.01990  1.0000 0.113495134
H   H22       1.0  0.84470  0.97350  0.48010  1.0000 0.113495134
H   H23       1.0  0.84470  0.52650  0.98010  1.0000 0.113495134
H   H24       1.0  0.15530  0.02650  0.51990  1.0000 0.113495134
H   H25       1.0  0.22200  0.63100  0.47200  1.0000 0.3752400411
H   H26       1.0  0.77800  0.13100  0.02800  1.0000 0.3752400411
H   H27       1.0  0.77800  0.36900  0.52800  1.0000 0.3752400411
H   H28       1.0  0.22200  0.86900  0.97200  1.0000 0.3752400411
H   H29       1.0  0.84200  0.57400  0.59840  1.0000 0.3561377955
H   H30       1.0  0.15800  0.07400  0.90160  1.0000 0.3561377955
H   H31       1.0  0.15800  0.42600  0.40160  1.0000 0.3561377955
H   H32       1.0  0.84200  0.92600  0.09840  1.0000 0.3561377955
C   C1        1.0  0.33120  0.41470  0.59601  1.0000 0.5977314544
C   C2        1.0  0.66880  0.91470  0.90399  1.0000 0.5977314544
C   C3        1.0  0.66880  0.58530  0.40399  1.0000 0.5977314544
C   C4        1.0  0.33120  0.08530  0.09601  1.0000 0.5977314544
C   C5        1.0  0.41170  0.35750  0.65595  1.0000 -0.0274936324
C   C6        1.0  0.58830  0.85750  0.84405  1.0000 -0.0234758855
C   C7        1.0  0.58830  0.64250  0.34405  1.0000 -0.0234758855
C   C8        1.0  0.41170  0.14250  0.15595  1.0000 -0.0234758855
C   C9        1.0  0.27710  0.30220  0.69090  1.0000 -0.1028530764
C   C10       1.0  0.72290  0.80220  0.80910  1.0000 -0.1028530764
C   C11       1.0  0.72290  0.69780  0.30910  1.0000 -0.1028530764
C   C12       1.0  0.27710  0.19780  0.19090  1.0000 -0.1028530764
C   C13       1.0  0.35250  0.25380  0.74900  1.0000 -0.1076803108
C   C14       1.0  0.64750  0.75380  0.75100  1.0000 -0.1076803108
C   C15       1.0  0.64750  0.74620  0.25100  1.0000 -0.1076803108
C   C16       1.0  0.35250  0.24620  0.24900  1.0000 -0.1076803108
C   C17       1.0  0.56360  0.26170  0.77339  1.0000 -0.0274936324
C   C18       1.0  0.43640  0.76170  0.72661  1.0000 -0.0274936324
C   C19       1.0  0.43640  0.73830  0.22661  1.0000 -0.0274936324
C   C20       1.0  0.56360  0.23830  0.27339  1.0000 -0.0274936324
C   C21       1.0  0.69690  0.31680  0.73860  1.0000 -0.1076803108
C   C22       1.0  0.30310  0.81680  0.76140  1.0000 -0.1076803108
C   C23       1.0  0.30310  0.68320  0.26140  1.0000 -0.1076803108
C   C24       1.0  0.69690  0.18320  0.23860  1.0000 -0.1076803108
C   C25       1.0  0.62250  0.36270  0.68000  1.0000 -0.1076803108
C   C26       1.0  0.37750  0.86270  0.82000  1.0000 -0.1076803108
C   C27       1.0  0.37750  0.63730  0.32000  1.0000 -0.1076803108
C   C28       1.0  0.62250  0.13730  0.18000  1.0000 -0.1076803108
C   C29       1.0  0.64450  0.21410  0.83757  1.0000 0.5977314544
C   C30       1.0  0.35550  0.71410  0.66243  1.0000 0.5977314544
C   C31       1.0  0.35550  0.78590  0.16243  1.0000 0.5977314544
C   C32       1.0  0.64450  0.28590  0.33757  1.0000 0.5977314544
C   C33       1.0  0.32590  0.30980  0.98933  1.0000 0.5877846909
C   C34       1.0  0.67410  0.80980  0.51067  1.0000 0.5877846909
C   C35       1.0  0.67410  0.69020  0.01067  1.0000 0.5877846909
C   C36       1.0  0.32590  0.19020  0.48933  1.0000 0.5877846909
C   C37       1.0  0.41790  0.40810  0.99590  1.0000 -0.0234758855
C   C38       1.0  0.58210  0.90810  0.50410  1.0000 -0.0234758855
C   C39       1.0  0.58210  0.59190  0.00410  1.0000 -0.0234758855
C   C40       1.0  0.41790  0.09190  0.49590  1.0000 -0.0234758855
C   C41       1.0  0.62620  0.42450  0.98410  1.0000 -0.1028530764
C   C42       1.0  0.37380  0.92450  0.51590  1.0000 -0.1028530764
C   C43       1.0  0.37380  0.57550  0.01590  1.0000 -0.1028530764
C   C44       1.0  0.62620  0.07550  0.48410  1.0000 -0.1028530764
C   C45       1.0  0.29400  0.48400  0.01180  1.0000 -0.1076803108
C   C46       1.0  0.70600  0.98400  0.48820  1.0000 -0.1076803108
C   C47       1.0  0.70600  0.51600  0.98820  1.0000 -0.1076803108
C   C48       1.0  0.29400  0.01600  0.51180  1.0000 -0.1076803108
O   O1        1.0  0.46690  0.45254  0.56158  1.0000 -0.6231139468
O   O2        1.0  0.53310  0.95254  0.93842  1.0000 -0.6231139468
O   O3        1.0  0.53310  0.54746  0.43842  1.0000 -0.6231139468
O   O4        1.0  0.46690  0.04746  0.06158  1.0000 -0.6231139468
O   O5        1.0  0.13680  0.42324  0.58341  1.0000 -0.5514750051
O   O6        1.0  0.86320  0.92324  0.91659  1.0000 -0.5514750051
O   O7        1.0  0.86320  0.57676  0.41659  1.0000 -0.5514750051
O   O8        1.0  0.13680  0.07676  0.08341  1.0000 -0.5514750051
O   O9        1.0  0.82440  0.24054  0.86211  1.0000 -0.5591823228
O   O10       1.0  0.17560  0.74054  0.63789  1.0000 -0.5591823228
O   O11       1.0  0.17560  0.75946  0.13789  1.0000 -0.5591823228
O   O12       1.0  0.82440  0.25946  0.36211  1.0000 -0.5591823228
O   O13       1.0  0.53290  0.15140  0.86132  1.0000 -0.5776096153
O   O14       1.0  0.46710  0.65140  0.63868  1.0000 -0.5776096153
O   O15       1.0  0.46710  0.84860  0.13868  1.0000 -0.5776096153
O   O16       1.0  0.53290  0.34860  0.36132  1.0000 -0.5776096153
O   O17       1.0  0.44980  0.24200  0.99218  1.0000 -0.5654288101
O   O18       1.0  0.55020  0.74200  0.50782  1.0000 -0.5654288101
O   O19       1.0  0.55020  0.75800  0.00782  1.0000 -0.5591823228
O   O20       1.0  0.44980  0.25800  0.49218  1.0000 -0.5654288101
O   O21       1.0  0.12700  0.30430  0.98029  1.0000 -0.5591823228
O   O22       1.0  0.87300  0.80430  0.51971  1.0000 -0.5591823228
O   O23       1.0  0.87300  0.69570  0.01971  1.0000 -0.5591823228
O   O24       1.0  0.12700  0.19570  0.48029  1.0000 -0.5591823228
O   O25       1.0  0.20630  0.61687  0.50818  1.0000 -0.7985525297
O   O26       1.0  0.79370  0.11687  0.99182  1.0000 -0.7985525297
O   O27       1.0  0.79370  0.38313  0.49182  1.0000 -0.7985525297
O   O28       1.0  0.20630  0.88313  0.00818  1.0000 -0.7985525297
O   O29       1.0  0.82640  0.58358  0.56643  1.0000 -0.7085675763
O   O30       1.0  0.17360  0.08358  0.93357  1.0000 -0.7085675763
O   O31       1.0  0.17360  0.41642  0.43357  1.0000 -0.7085675763
O   O32       1.0  0.82640  0.91642  0.06643  1.0000 -0.7085675763
