# DDEC6 charges by PACMAN v1.1 (https://github.com/mtap-research/PACMAN-charge/)
data_2006[Mn][nan]3[FSR]1
_chemical_formula_sum              "Mn3 H12 C21 O15"
_cell_length_a       9.063
_cell_length_b       9.063
_cell_length_c       10.947
_cell_angle_alpha    90
_cell_angle_beta     90
_cell_angle_gamma    120

_symmetry_space_group_name_H-M    "P 1"
_symmetry_Int_Tables_number       1

loop_
  _symmetry_equiv_pos_as_xyz
  'x, y, z'

loop_
  _atom_site_type_symbol
  _atom_site_label
  _atom_site_symmetry_multiplicity
  _atom_site_fract_x
  _atom_site_fract_y
  _atom_site_fract_z
  _atom_site_occupancy
  _atom_site_charge
Mn  Mn1       1.0  0.97221  0.00000  0.66667  1.0000 0.9893604984
Mn  Mn2       1.0  0.00000  0.97221  0.33333  1.0000 0.9893604984
Mn  Mn3       1.0  0.02779  0.02779  0.00000  1.0000 0.9893604984
H   H1        1.0  0.63000  0.77300  0.75000  1.0000 0.3637416631
H   H2        1.0  0.22700  0.85700  0.41667  1.0000 0.3637416631
H   H3        1.0  0.14300  0.37000  0.08333  1.0000 0.3637416631
H   H4        1.0  0.85700  0.22700  0.58333  1.0000 0.3637416631
H   H5        1.0  0.37000  0.14300  0.91667  1.0000 0.3637416631
H   H6        1.0  0.77300  0.63000  0.25000  1.0000 0.3637416631
H   H7        1.0  0.40300  0.49400  0.66800  1.0000 0.1439341849
H   H8        1.0  0.50600  0.90900  0.33467  1.0000 0.1439341849
H   H9        1.0  0.09100  0.59700  0.00133  1.0000 0.1439341849
H   H10       1.0  0.90900  0.50600  0.66533  1.0000 0.1439341849
H   H11       1.0  0.59700  0.09100  0.99867  1.0000 0.1439341849
H   H12       1.0  0.49400  0.40300  0.33200  1.0000 0.1439341849
C   C1        1.0  0.26130  0.26130  0.50000  1.0000 0.5749623448
C   C2        1.0  0.73870  0.00000  0.16667  1.0000 0.5749623448
C   C3        1.0  0.00000  0.73870  0.83333  1.0000 0.5749623448
C   C4        1.0  0.73290  0.73290  0.50000  1.0000 0.1226504863
C   C5        1.0  0.26710  0.00000  0.16667  1.0000 0.1226504863
C   C6        1.0  0.00000  0.26710  0.83333  1.0000 0.1226504863
C   C7        1.0  0.47880  0.52420  0.60510  1.0000 -0.2770676642
C   C8        1.0  0.47580  0.95460  0.27177  1.0000 -0.2770676642
C   C9        1.0  0.04540  0.52120  0.93843  1.0000 -0.2770676642
C   C10       1.0  0.95460  0.47580  0.72823  1.0000 -0.2770676642
C   C11       1.0  0.52120  0.04540  0.06157  1.0000 -0.2770676642
C   C12       1.0  0.52420  0.47880  0.39490  1.0000 -0.2770676642
C   C13       1.0  0.62830  0.67750  0.60410  1.0000 0.174150151
C   C14       1.0  0.32250  0.95080  0.27077  1.0000 0.174150151
C   C15       1.0  0.04920  0.37170  0.93743  1.0000 0.174150151
C   C16       1.0  0.95080  0.32250  0.72923  1.0000 0.174150151
C   C17       1.0  0.37170  0.04920  0.06257  1.0000 0.174150151
C   C18       1.0  0.67750  0.62830  0.39590  1.0000 0.174150151
C   C19       1.0  0.42540  0.42540  0.50000  1.0000 0.0135856744
C   C20       1.0  0.57460  0.00000  0.16667  1.0000 0.0135856744
C   C21       1.0  0.00000  0.57460  0.83333  1.0000 0.0135856744
O   O1        1.0  0.87940  0.87940  0.50000  1.0000 -0.5526639749
O   O2        1.0  0.12060  0.00000  0.16667  1.0000 -0.5526639749
O   O3        1.0  0.00000  0.12060  0.83333  1.0000 -0.5526639749
O   O4        1.0  0.69290  0.78950  0.70031  1.0000 -0.3969570726
O   O5        1.0  0.21050  0.90340  0.36698  1.0000 -0.3969570726
O   O6        1.0  0.09660  0.30710  0.03364  1.0000 -0.3969570726
O   O7        1.0  0.90340  0.21050  0.63302  1.0000 -0.3969570726
O   O8        1.0  0.30710  0.09660  0.96636  1.0000 -0.3969570726
O   O9        1.0  0.78950  0.69290  0.29969  1.0000 -0.3969570726
O   O10       1.0  0.21880  0.17330  0.59677  1.0000 -0.5817487766
O   O11       1.0  0.82670  0.04550  0.26344  1.0000 -0.5817487766
O   O12       1.0  0.95450  0.78120  0.93010  1.0000 -0.5817487766
O   O13       1.0  0.04550  0.82670  0.73656  1.0000 -0.5817487766
O   O14       1.0  0.78120  0.95450  0.06990  1.0000 -0.5817487766
O   O15       1.0  0.17330  0.21880  0.40323  1.0000 -0.5817487766
