# DDEC6 charges by PACMAN v1.1 (https://github.com/mtap-research/PACMAN-charge/)
data_2006[Ag][nan]3[FSR]4
_chemical_formula_sum              "Ag240 H1440 C1200 N480"
_cell_length_a       45.5646
_cell_length_b       45.5646
_cell_length_c       45.5646
_cell_angle_alpha    94.9421
_cell_angle_beta     94.9421
_cell_angle_gamma    145.863

_symmetry_space_group_name_H-M    "P 1"
_symmetry_Int_Tables_number       1

loop_
  _symmetry_equiv_pos_as_xyz
  'x, y, z'

loop_
  _atom_site_type_symbol
  _atom_site_label
  _atom_site_symmetry_multiplicity
  _atom_site_fract_x
  _atom_site_fract_y
  _atom_site_fract_z
  _atom_site_occupancy
  _atom_site_charge
Ag  Ag1       1.0  0.14943  0.88257  0.31614  1.0000 0.2601259888
Ag  Ag2       1.0  0.08329  0.89943  0.76686  1.0000 0.2601259888
Ag  Ag3       1.0  0.13257  0.31643  0.23314  1.0000 0.2601259888
Ag  Ag4       1.0  0.56643  0.83329  0.68386  1.0000 0.2601259888
Ag  Ag5       1.0  0.10057  0.86743  0.18386  1.0000 0.2601259888
Ag  Ag6       1.0  0.16671  0.85057  0.73314  1.0000 0.2601259888
Ag  Ag7       1.0  0.11743  0.43357  0.26686  1.0000 0.2601259888
Ag  Ag8       1.0  0.68357  0.91671  0.81614  1.0000 0.2601259888
Ag  Ag9       1.0  0.10558  0.90341  0.27171  1.0000 0.2314316836
Ag  Ag10      1.0  0.08387  0.85558  0.70217  1.0000 0.2314316836
Ag  Ag11      1.0  0.15341  0.38170  0.29783  1.0000 0.2314316836
Ag  Ag12      1.0  0.63170  0.83387  0.72829  1.0000 0.2314316836
Ag  Ag13      1.0  0.14442  0.84659  0.22829  1.0000 0.2314316836
Ag  Ag14      1.0  0.16613  0.89442  0.79783  1.0000 0.2314316836
Ag  Ag15      1.0  0.09659  0.36830  0.20217  1.0000 0.2314316836
Ag  Ag16      1.0  0.61830  0.91613  0.77171  1.0000 0.2314316836
Ag  Ag17      1.0  0.20613  0.44018  0.23827  1.0000 0.2314316836
Ag  Ag18      1.0  0.21786  0.95613  0.26595  1.0000 0.2314316836
Ag  Ag19      1.0  0.69018  0.95191  0.73405  1.0000 0.2314316836
Ag  Ag20      1.0  0.20191  0.96786  0.76173  1.0000 0.2314316836
Ag  Ag21      1.0  0.04387  0.30982  0.26173  1.0000 0.2314316836
Ag  Ag22      1.0  0.03214  0.79387  0.23405  1.0000 0.2314316836
Ag  Ag23      1.0  0.55982  0.79809  0.76595  1.0000 0.2314316836
Ag  Ag24      1.0  0.04809  0.78214  0.73827  1.0000 0.2314316836
Ag  Ag25      1.0  0.85829  0.97256  0.58403  1.0000 0.2208049901
Ag  Ag26      1.0  0.52426  0.60829  0.38573  1.0000 0.2208049901
Ag  Ag27      1.0  0.22256  0.13853  0.61427  1.0000 0.2208049901
Ag  Ag28      1.0  0.38853  0.27426  0.41597  1.0000 0.2208049901
Ag  Ag29      1.0  0.39171  0.77744  0.91597  1.0000 0.2208049901
Ag  Ag30      1.0  0.72574  0.14171  0.11427  1.0000 0.2208049901
Ag  Ag31      1.0  0.02744  0.61147  0.88573  1.0000 0.2208049901
Ag  Ag32      1.0  0.86147  0.47574  0.08403  1.0000 0.2208049901
Ag  Ag33      1.0  0.81304  0.99434  0.54598  1.0000 0.2096809653
Ag  Ag34      1.0  0.51706  0.56304  0.31870  1.0000 0.2096809653
Ag  Ag35      1.0  0.24434  0.19836  0.68130  1.0000 0.2096809653
Ag  Ag36      1.0  0.44836  0.26706  0.45402  1.0000 0.2096809653
Ag  Ag37      1.0  0.43696  0.75566  0.95402  1.0000 0.2096809653
Ag  Ag38      1.0  0.73294  0.18696  0.18130  1.0000 0.2096809653
Ag  Ag39      1.0  0.00566  0.55164  0.81870  1.0000 0.2096809653
Ag  Ag40      1.0  0.80164  0.48294  0.04598  1.0000 0.2096809653
Ag  Ag41      1.0  0.73343  0.86575  0.52848  1.0000 0.2601259888
Ag  Ag42      1.0  0.45495  0.48343  0.36768  1.0000 0.2601259888
Ag  Ag43      1.0  0.11575  0.08727  0.63232  1.0000 0.2601259888
Ag  Ag44      1.0  0.33727  0.20495  0.47152  1.0000 0.2601259888
Ag  Ag45      1.0  0.51657  0.88425  0.97152  1.0000 0.2601259888
Ag  Ag46      1.0  0.79505  0.26657  0.13232  1.0000 0.2601259888
Ag  Ag47      1.0  0.13425  0.66273  0.86768  1.0000 0.2601259888
Ag  Ag48      1.0  0.91273  0.54505  0.02848  1.0000 0.2601259888
Ag  Ag49      1.0  0.63968  0.15095  0.16693  1.0000 0.2208049901
Ag  Ag50      1.0  0.72275  0.38968  0.98873  1.0000 0.2208049901
Ag  Ag51      1.0  0.40095  0.73402  0.01127  1.0000 0.2208049901
Ag  Ag52      1.0  0.98402  0.47275  0.83307  1.0000 0.2208049901
Ag  Ag53      1.0  0.61032  0.59905  0.33307  1.0000 0.2208049901
Ag  Ag54      1.0  0.52725  0.36032  0.51127  1.0000 0.2208049901
Ag  Ag55      1.0  0.84905  0.01598  0.48873  1.0000 0.2208049901
Ag  Ag56      1.0  0.26598  0.27725  0.66693  1.0000 0.2208049901
Ag  Ag57      1.0  0.62922  0.09919  0.10033  1.0000 0.2208049901
Ag  Ag58      1.0  0.77889  0.37922  0.03003  1.0000 0.2208049901
Ag  Ag59      1.0  0.34919  0.74886  0.96997  1.0000 0.2208049901
Ag  Ag60      1.0  0.99886  0.52889  0.89967  1.0000 0.2096809653
Ag  Ag61      1.0  0.62078  0.65081  0.39967  1.0000 0.2208049901
Ag  Ag62      1.0  0.47111  0.37078  0.46997  1.0000 0.2208049901
Ag  Ag63      1.0  0.90081  0.00114  0.53003  1.0000 0.2208049901
Ag  Ag64      1.0  0.25114  0.22111  0.60033  1.0000 0.2208049901
Ag  Ag65      1.0  0.57257  0.02920  0.15347  1.0000 0.2498136889
Ag  Ag66      1.0  0.66910  0.32257  0.04337  1.0000 0.2498136889
Ag  Ag67      1.0  0.27920  0.62573  0.95663  1.0000 0.2498136889
Ag  Ag68      1.0  0.87573  0.41910  0.84653  1.0000 0.2498136889
Ag  Ag69      1.0  0.67743  0.72080  0.34653  1.0000 0.2498136889
Ag  Ag70      1.0  0.58090  0.42743  0.45663  1.0000 0.2498136889
Ag  Ag71      1.0  0.97080  0.12427  0.54337  1.0000 0.2498136889
Ag  Ag72      1.0  0.37427  0.33090  0.65347  1.0000 0.2498136889
Ag  Ag73      1.0  0.98127  0.34312  0.91289  1.0000 0.1998786962
Ag  Ag74      1.0  0.31838  0.73127  0.13815  1.0000 0.1998786962
Ag  Ag75      1.0  0.59312  0.18023  0.86185  1.0000 0.1998786962
Ag  Ag76      1.0  0.43023  0.06838  0.08711  1.0000 0.1998786962
Ag  Ag77      1.0  0.26873  0.40688  0.58711  1.0000 0.1998786962
Ag  Ag78      1.0  0.93162  0.01873  0.36185  1.0000 0.1998786962
Ag  Ag79      1.0  0.65688  0.56977  0.63815  1.0000 0.1998786962
Ag  Ag80      1.0  0.81977  0.68162  0.41289  1.0000 0.1998786962
Ag  Ag81      1.0  0.89639  0.31328  0.93935  1.0000 0.2208049901
Ag  Ag82      1.0  0.20704  0.64639  0.08311  1.0000 0.2208049901
Ag  Ag83      1.0  0.56328  0.12393  0.91689  1.0000 0.2208049901
Ag  Ag84      1.0  0.37393  0.95704  0.06065  1.0000 0.2208049901
Ag  Ag85      1.0  0.35361  0.43672  0.56065  1.0000 0.2208049901
Ag  Ag86      1.0  0.04296  0.10361  0.41689  1.0000 0.2208049901
Ag  Ag87      1.0  0.68672  0.62607  0.58311  1.0000 0.2208049901
Ag  Ag88      1.0  0.87607  0.79296  0.43935  1.0000 0.2208049901
Ag  Ag89      1.0  0.85051  0.24115  0.86490  1.0000 0.2601259888
Ag  Ag90      1.0  0.23561  0.60051  0.10936  1.0000 0.2601259888
Ag  Ag91      1.0  0.49115  0.12625  0.89064  1.0000 0.2601259888
Ag  Ag92      1.0  0.37625  0.98561  0.13510  1.0000 0.2601259888
Ag  Ag93      1.0  0.39949  0.50885  0.63510  1.0000 0.2601259888
Ag  Ag94      1.0  0.01439  0.14949  0.39064  1.0000 0.2601259888
Ag  Ag95      1.0  0.75885  0.62375  0.60936  1.0000 0.2601259888
Ag  Ag96      1.0  0.87375  0.76439  0.36490  1.0000 0.2601259888
Ag  Ag97      1.0  0.97706  0.84115  0.44565  1.0000 0.2208049901
Ag  Ag98      1.0  0.78141  0.72706  0.63591  1.0000 0.2208049901
Ag  Ag99      1.0  0.09115  0.14550  0.36409  1.0000 0.2208049901
Ag  Ag100     1.0  0.39550  0.53141  0.55435  1.0000 0.2208049901
Ag  Ag101     1.0  0.27294  0.90885  0.05435  1.0000 0.2208049901
Ag  Ag102     1.0  0.46859  0.02294  0.86409  1.0000 0.2208049901
Ag  Ag103     1.0  0.15885  0.60450  0.13591  1.0000 0.2208049901
Ag  Ag104     1.0  0.85450  0.21859  0.94565  1.0000 0.2208049901
Ag  Ag105     1.0  0.91814  0.72710  0.42856  1.0000 0.2314316836
Ag  Ag106     1.0  0.73958  0.66814  0.69104  1.0000 0.2314316836
Ag  Ag107     1.0  0.97710  0.04854  0.30896  1.0000 0.2314316836
Ag  Ag108     1.0  0.29854  0.48958  0.57144  1.0000 0.2314316836
Ag  Ag109     1.0  0.33186  0.02290  0.07144  1.0000 0.2314316836
Ag  Ag110     1.0  0.51042  0.08186  0.80896  1.0000 0.2314316836
Ag  Ag111     1.0  0.27290  0.70146  0.19104  1.0000 0.2314316836
Ag  Ag112     1.0  0.95146  0.26042  0.92856  1.0000 0.2314316836
Ag  Ag113     1.0  0.94338  0.77608  0.50252  1.0000 0.2601259888
Ag  Ag114     1.0  0.69086  0.69338  0.66730  1.0000 0.2601259888
Ag  Ag115     1.0  0.02608  0.02356  0.33270  1.0000 0.2601259888
Ag  Ag116     1.0  0.27356  0.44086  0.49748  1.0000 0.2601259888
Ag  Ag117     1.0  0.30662  0.97392  0.99748  1.0000 0.2601259888
Ag  Ag118     1.0  0.55914  0.05662  0.83270  1.0000 0.2601259888
Ag  Ag119     1.0  0.22392  0.72644  0.16730  1.0000 0.2601259888
Ag  Ag120     1.0  0.97644  0.30914  0.00252  1.0000 0.2601259888
Ag  Ag121     1.0  0.46273  0.75293  0.40328  1.0000 0.2601259888
Ag  Ag122     1.0  0.30945  0.21273  0.20980  1.0000 0.2601259888
Ag  Ag123     1.0  0.00293  0.09965  0.79020  1.0000 0.2498136889
Ag  Ag124     1.0  0.34965  0.05945  0.59672  1.0000 0.2498136889
Ag  Ag125     1.0  0.78727  0.99707  0.09672  1.0000 0.2601259888
Ag  Ag126     1.0  0.94055  0.53727  0.29020  1.0000 0.2601259888
Ag  Ag127     1.0  0.24707  0.65035  0.70980  1.0000 0.2601259888
Ag  Ag128     1.0  0.90035  0.69055  0.90328  1.0000 0.2601259888
Ag  Ag129     1.0  0.47834  0.80088  0.47276  1.0000 0.2314316836
Ag  Ag130     1.0  0.25558  0.22834  0.17746  1.0000 0.2314316836
Ag  Ag131     1.0  0.05088  0.07812  0.82254  1.0000 0.2314316836
Ag  Ag132     1.0  0.32812  0.00558  0.52724  1.0000 0.2314316836
Ag  Ag133     1.0  0.77166  0.94912  0.02724  1.0000 0.2314316836
Ag  Ag134     1.0  0.99442  0.52166  0.32254  1.0000 0.2314316836
Ag  Ag135     1.0  0.19912  0.67188  0.67746  1.0000 0.2314316836
Ag  Ag136     1.0  0.92188  0.74442  0.97276  1.0000 0.2314316836
Ag  Ag137     1.0  0.35400  0.69770  0.42248  1.0000 0.1998786962
Ag  Ag138     1.0  0.18152  0.10400  0.15630  1.0000 0.1998786962
Ag  Ag139     1.0  0.94770  0.02522  0.84370  1.0000 0.1998786962
Ag  Ag140     1.0  0.27522  0.93152  0.57752  1.0000 0.1998786962
Ag  Ag141     1.0  0.89600  0.05230  0.07752  1.0000 0.1998786962
Ag  Ag142     1.0  0.06848  0.64600  0.34370  1.0000 0.1998786962
Ag  Ag143     1.0  0.30230  0.72478  0.65630  1.0000 0.1998786962
Ag  Ag144     1.0  0.97478  0.81848  0.92248  1.0000 0.1998786962
Ag  Ag145     1.0  0.16066  0.58246  0.63324  1.0000 0.1998786962
Ag  Ag146     1.0  0.77742  0.91066  0.07820  1.0000 0.1998786962
Ag  Ag147     1.0  0.83246  0.69922  0.92180  1.0000 0.1998786962
Ag  Ag148     1.0  0.94922  0.52742  0.36676  1.0000 0.1998786962
Ag  Ag149     1.0  0.08934  0.16754  0.86676  1.0000 0.1998786962
Ag  Ag150     1.0  0.47258  0.83934  0.42180  1.0000 0.1998786962
Ag  Ag151     1.0  0.41754  0.05078  0.57820  1.0000 0.1998786962
Ag  Ag152     1.0  0.30078  0.22258  0.13324  1.0000 0.1998786962
Ag  Ag153     1.0  0.22448  0.66183  0.58637  1.0000 0.2498136889
Ag  Ag154     1.0  0.88811  0.97448  0.06265  1.0000 0.2498136889
Ag  Ag155     1.0  0.91183  0.82546  0.93735  1.0000 0.2498136889
Ag  Ag156     1.0  0.07546  0.63811  0.41363  1.0000 0.2498136889
Ag  Ag157     1.0  0.02552  0.08817  0.91363  1.0000 0.2498136889
Ag  Ag158     1.0  0.36189  0.77552  0.43735  1.0000 0.2498136889
Ag  Ag159     1.0  0.33817  0.92454  0.56265  1.0000 0.2498136889
Ag  Ag160     1.0  0.17454  0.11189  0.08637  1.0000 0.2498136889
Ag  Ag161     1.0  0.26992  0.63588  0.61526  1.0000 0.2498136889
Ag  Ag162     1.0  0.90466  0.01992  0.13404  1.0000 0.2498136889
Ag  Ag163     1.0  0.88588  0.77062  0.86596  1.0000 0.2498136889
Ag  Ag164     1.0  0.02062  0.65466  0.38474  1.0000 0.2498136889
Ag  Ag165     1.0  0.98008  0.11412  0.88474  1.0000 0.2498136889
Ag  Ag166     1.0  0.34534  0.73008  0.36596  1.0000 0.2498136889
Ag  Ag167     1.0  0.36412  0.97938  0.63404  1.0000 0.2498136889
Ag  Ag168     1.0  0.22938  0.09534  0.11526  1.0000 0.2498136889
Ag  Ag169     1.0  0.83366  0.47737  0.48141  1.0000 0.2314316836
Ag  Ag170     1.0  0.60225  0.58366  0.85629  1.0000 0.2314316836
Ag  Ag171     1.0  0.72737  0.74596  0.14371  1.0000 0.2314316836
Ag  Ag172     1.0  0.99596  0.35225  0.51859  1.0000 0.2314316836
Ag  Ag173     1.0  0.41634  0.27263  0.01859  1.0000 0.2314316836
Ag  Ag174     1.0  0.64775  0.16634  0.64371  1.0000 0.2314316836
Ag  Ag175     1.0  0.52263  0.00404  0.35629  1.0000 0.2314316836
Ag  Ag176     1.0  0.25404  0.39775  0.98141  1.0000 0.2314316836
Ag  Ag177     1.0  0.87892  0.45571  0.51731  1.0000 0.2314316836
Ag  Ag178     1.0  0.61161  0.62892  0.92321  1.0000 0.2314316836
Ag  Ag179     1.0  0.70571  0.68840  0.07679  1.0000 0.2314316836
Ag  Ag180     1.0  0.93840  0.36161  0.48269  1.0000 0.2314316836
Ag  Ag181     1.0  0.37108  0.29429  0.98269  1.0000 0.2314316836
Ag  Ag182     1.0  0.63839  0.12108  0.57679  1.0000 0.2314316836
Ag  Ag183     1.0  0.54429  0.06160  0.42321  1.0000 0.2314316836
Ag  Ag184     1.0  0.31160  0.38839  0.01731  1.0000 0.2314316836
Ag  Ag185     1.0  0.96470  0.58830  0.53278  1.0000 0.2498136889
Ag  Ag186     1.0  0.68192  0.71470  0.87640  1.0000 0.2498136889
Ag  Ag187     1.0  0.83830  0.80552  0.12360  1.0000 0.2498136889
Ag  Ag188     1.0  0.05552  0.43192  0.46722  1.0000 0.2498136889
Ag  Ag189     1.0  0.28530  0.16170  0.96722  1.0000 0.2498136889
Ag  Ag190     1.0  0.56808  0.03530  0.62360  1.0000 0.2498136889
Ag  Ag191     1.0  0.41170  0.94448  0.37640  1.0000 0.2498136889
Ag  Ag192     1.0  0.19448  0.31808  0.03278  1.0000 0.2498136889
Ag  Ag193     1.0  0.46000  0.01617  0.32591  1.0000 0.2411815227
Ag  Ag194     1.0  0.38409  0.21000  0.94383  1.0000 0.2411815227
Ag  Ag195     1.0  0.26617  0.44026  0.05617  1.0000 0.2411815227
Ag  Ag196     1.0  0.69026  0.13409  0.67409  1.0000 0.2411815227
Ag  Ag197     1.0  0.79000  0.73383  0.17409  1.0000 0.2411815227
Ag  Ag198     1.0  0.86591  0.54000  0.55617  1.0000 0.2411815227
Ag  Ag199     1.0  0.98383  0.30974  0.44383  1.0000 0.2411815227
Ag  Ag200     1.0  0.55974  0.61591  0.82591  1.0000 0.2411815227
Ag  Ag201     1.0  0.59196  0.12608  0.36228  1.0000 0.2411815227
Ag  Ag202     1.0  0.47968  0.34196  0.96588  1.0000 0.2411815227
Ag  Ag203     1.0  0.37608  0.51380  0.03412  1.0000 0.2411815227
Ag  Ag204     1.0  0.76380  0.22968  0.63772  1.0000 0.2411815227
Ag  Ag205     1.0  0.65804  0.62392  0.13772  1.0000 0.2411815227
Ag  Ag206     1.0  0.77032  0.40804  0.53412  1.0000 0.2411815227
Ag  Ag207     1.0  0.87392  0.23620  0.46588  1.0000 0.2411815227
Ag  Ag208     1.0  0.48620  0.52032  0.86228  1.0000 0.2411815227
Ag  Ag209     1.0  0.50359  0.09362  0.39547  1.0000 0.2498136889
Ag  Ag210     1.0  0.35812  0.25359  0.90997  1.0000 0.2498136889
Ag  Ag211     1.0  0.34362  0.44815  0.09003  1.0000 0.2498136889
Ag  Ag212     1.0  0.69815  0.10812  0.60453  1.0000 0.2498136889
Ag  Ag213     1.0  0.74641  0.65638  0.10453  1.0000 0.2498136889
Ag  Ag214     1.0  0.89188  0.49641  0.59003  1.0000 0.2498136889
Ag  Ag215     1.0  0.90638  0.30185  0.40997  1.0000 0.2498136889
Ag  Ag216     1.0  0.55185  0.64188  0.89547  1.0000 0.2498136889
Ag  Ag217     1.0  0.09988  0.39018  0.74482  1.0000 0.19078331
Ag  Ag218     1.0  0.60506  0.84988  0.20970  1.0000 0.19078331
Ag  Ag219     1.0  0.64018  0.39536  0.79030  1.0000 0.19078331
Ag  Ag220     1.0  0.64536  0.35506  0.25518  1.0000 0.19078331
Ag  Ag221     1.0  0.15012  0.35982  0.75518  1.0000 0.19078331
Ag  Ag222     1.0  0.64494  0.90012  0.29030  1.0000 0.19078331
Ag  Ag223     1.0  0.60982  0.35464  0.70970  1.0000 0.19078331
Ag  Ag224     1.0  0.60464  0.39494  0.24482  1.0000 0.19078331
Ag  Ag225     1.0  0.10202  0.34318  0.68512  1.0000 0.2498136889
Ag  Ag226     1.0  0.66690  0.85202  0.25884  1.0000 0.2498136889
Ag  Ag227     1.0  0.59318  0.40806  0.74116  1.0000 0.2498136889
Ag  Ag228     1.0  0.65806  0.41690  0.31488  1.0000 0.2498136889
Ag  Ag229     1.0  0.14798  0.40682  0.81488  1.0000 0.2498136889
Ag  Ag230     1.0  0.58310  0.89798  0.24116  1.0000 0.2498136889
Ag  Ag231     1.0  0.65682  0.34194  0.75884  1.0000 0.2498136889
Ag  Ag232     1.0  0.59194  0.33310  0.18512  1.0000 0.2498136889
Ag  Ag233     1.0  0.01773  0.26088  0.72989  1.0000 0.2498136889
Ag  Ag234     1.0  0.53784  0.76773  0.25685  1.0000 0.2498136889
Ag  Ag235     1.0  0.51088  0.28099  0.74315  1.0000 0.2498136889
Ag  Ag236     1.0  0.53099  0.28784  0.27011  1.0000 0.2498136889
Ag  Ag237     1.0  0.23227  0.48912  0.77011  1.0000 0.2498136889
Ag  Ag238     1.0  0.71216  0.98227  0.24315  1.0000 0.2498136889
Ag  Ag239     1.0  0.73912  0.46901  0.75685  1.0000 0.2498136889
Ag  Ag240     1.0  0.71901  0.46216  0.22989  1.0000 0.2498136889
H   H1        1.0  0.09140  0.82010  0.35710  1.0000 0.1409316585
H   H2        1.0  0.98430  0.84140  0.77130  1.0000 0.1409316585
H   H3        1.0  0.07010  0.21300  0.22870  1.0000 0.1409316585
H   H4        1.0  0.46300  0.73430  0.64290  1.0000 0.1409316585
H   H5        1.0  0.15860  0.92990  0.14290  1.0000 0.1409316585
H   H6        1.0  0.26570  0.90860  0.72870  1.0000 0.1409316585
H   H7        1.0  0.17990  0.53700  0.27130  1.0000 0.1409316585
H   H8        1.0  0.78700  0.01570  0.85710  1.0000 0.1409316585
H   H9        1.0  0.08510  0.83800  0.38430  1.0000 0.1582630434
H   H10       1.0  0.95080  0.83510  0.74710  1.0000 0.1582630434
H   H11       1.0  0.08800  0.20370  0.25290  1.0000 0.1582630434
H   H12       1.0  0.45370  0.70080  0.61570  1.0000 0.1582630434
H   H13       1.0  0.16490  0.91200  0.11570  1.0000 0.1582630434
H   H14       1.0  0.29920  0.91490  0.75290  1.0000 0.1582630434
H   H15       1.0  0.16200  0.54630  0.24710  1.0000 0.1582630434
H   H16       1.0  0.79630  0.04920  0.88430  1.0000 0.1582630434
H   H17       1.0  0.03290  0.77660  0.36290  1.0000 0.1409316585
H   H18       1.0  0.92000  0.78290  0.75630  1.0000 0.1409316585
H   H19       1.0  0.02660  0.16370  0.24370  1.0000 0.1409316585
H   H20       1.0  0.41370  0.67000  0.63710  1.0000 0.1409316585
H   H21       1.0  0.21710  0.97340  0.13710  1.0000 0.1409316585
H   H22       1.0  0.33000  0.96710  0.74370  1.0000 0.1409316585
H   H23       1.0  0.22340  0.58630  0.25630  1.0000 0.1409316585
H   H24       1.0  0.83630  0.08000  0.86290  1.0000 0.1409316585
H   H25       1.0  0.02180  0.87180  0.28780  1.0000 0.1409316585
H   H26       1.0  0.98400  0.77180  0.65000  1.0000 0.1409316585
H   H27       1.0  0.12180  0.33400  0.35000  1.0000 0.1409316585
H   H28       1.0  0.58400  0.73400  0.71220  1.0000 0.1409316585
H   H29       1.0  0.22820  0.87820  0.21220  1.0000 0.1409316585
H   H30       1.0  0.26600  0.97820  0.85000  1.0000 0.1409316585
H   H31       1.0  0.12820  0.41600  0.15000  1.0000 0.1409316585
H   H32       1.0  0.66600  0.01600  0.78780  1.0000 0.1409316585
H   H33       1.0  0.96880  0.82180  0.29860  1.0000 0.1490140571
H   H34       1.0  0.92020  0.71880  0.64700  1.0000 0.1490140571
H   H35       1.0  0.07180  0.27320  0.35300  1.0000 0.1490140571
H   H36       1.0  0.52320  0.67020  0.70140  1.0000 0.1490140571
H   H37       1.0  0.28120  0.92820  0.20140  1.0000 0.1490140571
H   H38       1.0  0.32980  0.03120  0.85300  1.0000 0.1490140571
H   H39       1.0  0.17820  0.47680  0.14700  1.0000 0.1490140571
H   H40       1.0  0.72680  0.07980  0.79860  1.0000 0.1490140571
H   H41       1.0  0.02000  0.88230  0.32150  1.0000 0.1409316585
H   H42       1.0  0.94850  0.77000  0.63770  1.0000 0.1409316585
H   H43       1.0  0.13230  0.31080  0.36230  1.0000 0.1409316585
H   H44       1.0  0.56080  0.69850  0.67850  1.0000 0.1409316585
H   H45       1.0  0.23000  0.86770  0.17850  1.0000 0.1409316585
H   H46       1.0  0.30150  0.98000  0.86230  1.0000 0.1409316585
H   H47       1.0  0.11770  0.43920  0.13770  1.0000 0.1409316585
H   H48       1.0  0.68920  0.05150  0.82150  1.0000 0.1409316585
H   H49       1.0  0.18060  0.44430  0.35070  1.0000 0.1409316585
H   H50       1.0  0.07990  0.93060  0.23630  1.0000 0.1409316585
H   H51       1.0  0.69430  0.84360  0.76370  1.0000 0.1409316585
H   H52       1.0  0.09360  0.82990  0.64930  1.0000 0.1409316585
H   H53       1.0  0.06940  0.30570  0.14930  1.0000 0.1409316585
H   H54       1.0  0.17010  0.81940  0.26370  1.0000 0.1409316585
H   H55       1.0  0.55570  0.90640  0.73630  1.0000 0.1409316585
H   H56       1.0  0.15640  0.92010  0.85070  1.0000 0.1409316585
H   H57       1.0  0.24130  0.50410  0.37080  1.0000 0.1582630434
H   H58       1.0  0.12050  0.99130  0.23720  1.0000 0.1582630434
H   H59       1.0  0.75410  0.88330  0.76280  1.0000 0.1582630434
H   H60       1.0  0.13330  0.87050  0.62920  1.0000 0.1582630434
H   H61       1.0  0.00870  0.24590  0.12920  1.0000 0.1582630434
H   H62       1.0  0.12950  0.75870  0.26280  1.0000 0.1582630434
H   H63       1.0  0.49590  0.86670  0.73720  1.0000 0.1582630434
H   H64       1.0  0.11670  0.87950  0.87080  1.0000 0.1582630434
H   H65       1.0  0.19710  0.49210  0.35960  1.0000 0.1409316585
H   H66       1.0  0.08750  0.94710  0.20500  1.0000 0.1409316585
H   H67       1.0  0.74210  0.88250  0.79500  1.0000 0.1409316585
H   H68       1.0  0.13250  0.83750  0.64040  1.0000 0.1409316585
H   H69       1.0  0.05290  0.25790  0.14040  1.0000 0.1409316585
H   H70       1.0  0.16250  0.80290  0.29500  1.0000 0.1409316585
H   H71       1.0  0.50790  0.86750  0.70500  1.0000 0.1409316585
H   H72       1.0  0.11750  0.91250  0.85960  1.0000 0.1409316585
H   H73       1.0  0.28340  0.55220  0.24820  1.0000 0.1409316585
H   H74       1.0  0.28520  0.03340  0.23120  1.0000 0.1409316585
H   H75       1.0  0.80220  0.05400  0.76880  1.0000 0.1409316585
H   H76       1.0  0.30400  0.03520  0.75180  1.0000 0.1409316585
H   H77       1.0  0.96660  0.19780  0.25180  1.0000 0.1409316585
H   H78       1.0  0.96480  0.71660  0.26880  1.0000 0.1409316585
H   H79       1.0  0.44780  0.69600  0.73120  1.0000 0.1409316585
H   H80       1.0  0.94600  0.71480  0.74820  1.0000 0.1409316585
H   H81       1.0  0.28740  0.58780  0.26560  1.0000 0.1490140571
H   H82       1.0  0.27180  0.03740  0.19960  1.0000 0.1490140571
H   H83       1.0  0.83780  0.07220  0.80040  1.0000 0.1490140571
H   H84       1.0  0.32220  0.02180  0.73440  1.0000 0.1490140571
H   H85       1.0  0.96260  0.16220  0.23440  1.0000 0.1490140571
H   H86       1.0  0.97820  0.71260  0.30040  1.0000 0.1490140571
H   H87       1.0  0.41220  0.67780  0.69960  1.0000 0.1490140571
H   H88       1.0  0.92780  0.72820  0.76560  1.0000 0.1490140571
H   H89       1.0  0.33400  0.60330  0.27730  1.0000 0.1490140571
H   H90       1.0  0.30670  0.08400  0.23070  1.0000 0.1490140571
H   H91       1.0  0.85330  0.07600  0.76930  1.0000 0.1490140571
H   H92       1.0  0.32600  0.05670  0.72270  1.0000 0.1490140571
H   H93       1.0  0.91600  0.14670  0.22270  1.0000 0.1490140571
H   H94       1.0  0.94330  0.66600  0.26930  1.0000 0.1490140571
H   H95       1.0  0.39670  0.67400  0.73070  1.0000 0.1490140571
H   H96       1.0  0.92400  0.69330  0.77730  1.0000 0.1490140571
H   H97       1.0  0.30840  0.99660  0.26180  1.0000 0.1409316585
H   H98       1.0  0.29660  0.05840  0.81180  1.0000 0.1409316585
H   H99       1.0  0.24660  0.48480  0.18820  1.0000 0.1409316585
H   H100      1.0  0.73480  0.04660  0.73820  1.0000 0.1409316585
H   H101      1.0  0.94160  0.75340  0.23820  1.0000 0.1409316585
H   H102      1.0  0.95340  0.69160  0.68820  1.0000 0.1409316585
H   H103      1.0  0.00340  0.26520  0.31180  1.0000 0.1409316585
H   H104      1.0  0.51520  0.70340  0.76180  1.0000 0.1409316585
H   H105      1.0  0.36190  0.03790  0.28960  1.0000 0.1582630434
H   H106      1.0  0.32230  0.11190  0.82400  1.0000 0.1582630434
H   H107      1.0  0.28790  0.49830  0.17600  1.0000 0.1582630434
H   H108      1.0  0.74830  0.07230  0.71040  1.0000 0.1582630434
H   H109      1.0  0.88810  0.71210  0.21040  1.0000 0.1582630434
H   H110      1.0  0.92770  0.63810  0.67600  1.0000 0.1582630434
H   H111      1.0  0.96210  0.25170  0.32400  1.0000 0.1582630434
H   H112      1.0  0.50170  0.67770  0.78960  1.0000 0.1582630434
H   H113      1.0  0.33160  0.98390  0.26970  1.0000 0.1409316585
H   H114      1.0  0.31190  0.08160  0.84770  1.0000 0.1409316585
H   H115      1.0  0.23390  0.46420  0.15230  1.0000 0.1409316585
H   H116      1.0  0.71420  0.06190  0.73030  1.0000 0.1409316585
H   H117      1.0  0.91840  0.76610  0.23030  1.0000 0.1409316585
H   H118      1.0  0.93810  0.66840  0.65230  1.0000 0.1409316585
H   H119      1.0  0.01610  0.28580  0.34770  1.0000 0.1409316585
H   H120      1.0  0.53580  0.68810  0.76970  1.0000 0.1409316585
H   H121      1.0  0.20670  0.89390  0.36600  1.0000 0.1409316585
H   H122      1.0  0.09070  0.95670  0.81280  1.0000 0.1409316585
H   H123      1.0  0.14390  0.27790  0.18720  1.0000 0.1409316585
H   H124      1.0  0.52790  0.84070  0.63400  1.0000 0.1409316585
H   H125      1.0  0.04330  0.85610  0.13400  1.0000 0.1409316585
H   H126      1.0  0.15930  0.79330  0.68720  1.0000 0.1409316585
H   H127      1.0  0.10610  0.47210  0.31280  1.0000 0.1409316585
H   H128      1.0  0.72210  0.90930  0.86600  1.0000 0.1409316585
H   H129      1.0  0.23690  0.88830  0.36420  1.0000 0.1490140571
H   H130      1.0  0.12270  0.98690  0.84860  1.0000 0.1490140571
H   H131      1.0  0.13830  0.27410  0.15140  1.0000 0.1490140571
H   H132      1.0  0.52410  0.87270  0.63580  1.0000 0.1490140571
H   H133      1.0  0.01310  0.86170  0.13580  1.0000 0.1490140571
H   H134      1.0  0.12730  0.76310  0.65140  1.0000 0.1490140571
H   H135      1.0  0.11170  0.47590  0.34860  1.0000 0.1490140571
H   H136      1.0  0.72590  0.87730  0.86420  1.0000 0.1490140571
H   H137      1.0  0.27020  0.94430  0.38350  1.0000 0.1490140571
H   H138      1.0  0.13670  0.02020  0.82590  1.0000 0.1490140571
H   H139      1.0  0.19430  0.31080  0.17410  1.0000 0.1490140571
H   H140      1.0  0.56080  0.88670  0.61650  1.0000 0.1490140571
H   H141      1.0  0.97980  0.80570  0.11650  1.0000 0.1490140571
H   H142      1.0  0.11330  0.72980  0.67410  1.0000 0.1490140571
H   H143      1.0  0.05570  0.43920  0.32590  1.0000 0.1490140571
H   H144      1.0  0.68920  0.86330  0.88350  1.0000 0.1490140571
H   H145      1.0  0.95040  0.05700  0.63760  1.0000 0.1409316585
H   H146      1.0  0.56280  0.70040  0.39340  1.0000 0.1409316585
H   H147      1.0  0.30700  0.16940  0.60660  1.0000 0.1409316585
H   H148      1.0  0.41940  0.31280  0.36240  1.0000 0.1409316585
H   H149      1.0  0.29960  0.69300  0.86240  1.0000 0.1409316585
H   H150      1.0  0.68720  0.04960  0.10660  1.0000 0.1409316585
H   H151      1.0  0.94300  0.58060  0.89340  1.0000 0.1409316585
H   H152      1.0  0.83060  0.43720  0.13760  1.0000 0.1409316585
H   H153      1.0  0.00580  0.12220  0.64620  1.0000 0.1490140571
H   H154      1.0  0.60960  0.75580  0.38360  1.0000 0.1490140571
H   H155      1.0  0.37220  0.22600  0.61640  1.0000 0.1490140571
H   H156      1.0  0.47600  0.35960  0.35380  1.0000 0.1490140571
H   H157      1.0  0.24420  0.62780  0.85380  1.0000 0.1490140571
H   H158      1.0  0.64040  0.99420  0.11640  1.0000 0.1490140571
H   H159      1.0  0.87780  0.52400  0.88360  1.0000 0.1490140571
H   H160      1.0  0.77400  0.39040  0.14620  1.0000 0.1490140571
H   H161      1.0  0.96280  0.09260  0.66540  1.0000 0.1490140571
H   H162      1.0  0.54740  0.71280  0.37020  1.0000 0.1490140571
H   H163      1.0  0.34260  0.17720  0.62980  1.0000 0.1490140571
H   H164      1.0  0.42720  0.29740  0.33460  1.0000 0.1490140571
H   H165      1.0  0.28720  0.65740  0.83460  1.0000 0.1490140571
H   H166      1.0  0.70260  0.03720  0.12980  1.0000 0.1490140571
H   H167      1.0  0.90740  0.57280  0.87020  1.0000 0.1490140571
H   H168      1.0  0.82280  0.45260  0.16540  1.0000 0.1490140571
H   H169      1.0  0.87360  0.09990  0.56490  1.0000 0.1409316585
H   H170      1.0  0.55870  0.62360  0.27370  1.0000 0.1409316585
H   H171      1.0  0.34990  0.28500  0.72630  1.0000 0.1409316585
H   H172      1.0  0.53500  0.30870  0.43510  1.0000 0.1409316585
H   H173      1.0  0.37640  0.65010  0.93510  1.0000 0.1409316585
H   H174      1.0  0.69130  0.12640  0.22630  1.0000 0.1409316585
H   H175      1.0  0.90010  0.46500  0.77370  1.0000 0.1409316585
H   H176      1.0  0.71500  0.44130  0.06490  1.0000 0.1409316585
H   H177      1.0  0.88900  0.12800  0.59920  1.0000 0.1582630434
H   H178      1.0  0.53980  0.63900  0.26100  1.0000 0.1582630434
H   H179      1.0  0.37800  0.27880  0.73900  1.0000 0.1582630434
H   H180      1.0  0.52880  0.28980  0.40080  1.0000 0.1582630434
H   H181      1.0  0.36100  0.62200  0.90080  1.0000 0.1582630434
H   H182      1.0  0.71020  0.11100  0.23900  1.0000 0.1582630434
H   H183      1.0  0.87200  0.47120  0.76100  1.0000 0.1582630434
H   H184      1.0  0.72120  0.46020  0.09920  1.0000 0.1582630434
H   H185      1.0  0.93520  0.16110  0.58190  1.0000 0.1490140571
H   H186      1.0  0.60330  0.68520  0.27410  1.0000 0.1490140571
H   H187      1.0  0.41110  0.32920  0.72590  1.0000 0.1490140571
H   H188      1.0  0.57920  0.35330  0.41810  1.0000 0.1490140571
H   H189      1.0  0.31480  0.58890  0.91810  1.0000 0.1490140571
H   H190      1.0  0.64670  0.06480  0.22590  1.0000 0.1490140571
H   H191      1.0  0.83890  0.42080  0.77410  1.0000 0.1490140571
H   H192      1.0  0.67080  0.39670  0.08190  1.0000 0.1490140571
H   H193      1.0  0.76900  0.00970  0.52170  1.0000 0.1409316585
H   H194      1.0  0.49730  0.51900  0.25930  1.0000 0.1409316585
H   H195      1.0  0.25970  0.23800  0.74070  1.0000 0.1409316585
H   H196      1.0  0.48800  0.24730  0.47830  1.0000 0.1409316585
H   H197      1.0  0.48100  0.74030  0.97830  1.0000 0.1409316585
H   H198      1.0  0.75270  0.23100  0.24070  1.0000 0.1409316585
H   H199      1.0  0.99030  0.51200  0.75930  1.0000 0.1409316585
H   H200      1.0  0.76200  0.50270  0.02170  1.0000 0.1409316585
H   H201      1.0  0.73110  0.98650  0.48920  1.0000 0.1490140571
H   H202      1.0  0.49190  0.48110  0.24460  1.0000 0.1490140571
H   H203      1.0  0.23650  0.24730  0.75540  1.0000 0.1490140571
H   H204      1.0  0.49730  0.24190  0.51080  1.0000 0.1490140571
H   H205      1.0  0.51890  0.76350  0.01080  1.0000 0.1490140571
H   H206      1.0  0.75810  0.26890  0.25540  1.0000 0.1490140571
H   H207      1.0  0.01350  0.50270  0.74460  1.0000 0.1490140571
H   H208      1.0  0.75270  0.50810  0.98920  1.0000 0.1490140571
H   H209      1.0  0.71000  0.97390  0.51910  1.0000 0.1409316585
H   H210      1.0  0.44090  0.46000  0.23610  1.0000 0.1409316585
H   H211      1.0  0.22390  0.20480  0.76390  1.0000 0.1409316585
H   H212      1.0  0.45480  0.19090  0.48090  1.0000 0.1409316585
H   H213      1.0  0.54000  0.77610  0.98090  1.0000 0.1409316585
H   H214      1.0  0.80910  0.29000  0.26390  1.0000 0.1409316585
H   H215      1.0  0.02610  0.54520  0.73610  1.0000 0.1409316585
H   H216      1.0  0.79520  0.55910  0.01910  1.0000 0.1409316585
H   H217      1.0  0.62750  0.77920  0.48110  1.0000 0.1326892263
H   H218      1.0  0.39640  0.37750  0.34830  1.0000 0.1326892263
H   H219      1.0  0.02920  0.04810  0.65170  1.0000 0.1326892263
H   H220      1.0  0.29810  0.14640  0.51890  1.0000 0.1326892263
H   H221      1.0  0.62250  0.97080  0.01890  1.0000 0.1326892263
H   H222      1.0  0.85360  0.37250  0.15170  1.0000 0.1326892263
H   H223      1.0  0.22080  0.70190  0.84830  1.0000 0.1326892263
H   H224      1.0  0.95190  0.60360  0.98110  1.0000 0.1326892263
H   H225      1.0  0.58160  0.76470  0.48270  1.0000 0.1582630434
H   H226      1.0  0.34890  0.33160  0.31690  1.0000 0.1582630434
H   H227      1.0  0.01470  0.03200  0.68310  1.0000 0.1582630434
H   H228      1.0  0.28200  0.09890  0.51730  1.0000 0.1582630434
H   H229      1.0  0.66840  0.98530  0.01730  1.0000 0.1582630434
H   H230      1.0  0.90110  0.41840  0.18310  1.0000 0.1582630434
H   H231      1.0  0.23530  0.71800  0.81690  1.0000 0.1582630434
H   H232      1.0  0.96800  0.65110  0.98270  1.0000 0.1582630434
H   H233      1.0  0.60160  0.77640  0.45240  1.0000 0.1409316585
H   H234      1.0  0.39920  0.35160  0.32520  1.0000 0.1409316585
H   H235      1.0  0.02640  0.07400  0.67480  1.0000 0.1409316585
H   H236      1.0  0.32400  0.14920  0.54760  1.0000 0.1409316585
H   H237      1.0  0.64840  0.97360  0.04760  1.0000 0.1409316585
H   H238      1.0  0.85080  0.39840  0.17480  1.0000 0.1409316585
H   H239      1.0  0.22360  0.67600  0.82520  1.0000 0.1409316585
H   H240      1.0  0.92600  0.60080  0.95240  1.0000 0.1409316585
H   H241      1.0  0.00590  0.97340  0.59950  1.0000 0.1409316585
H   H242      1.0  0.65640  0.75590  0.53250  1.0000 0.1409316585
H   H243      1.0  0.22340  0.12390  0.46750  1.0000 0.1409316585
H   H244      1.0  0.37390  0.40640  0.40050  1.0000 0.1409316585
H   H245      1.0  0.24410  0.77660  0.90050  1.0000 0.1409316585
H   H246      1.0  0.59360  0.99410  0.96750  1.0000 0.1409316585
H   H247      1.0  0.02660  0.62610  0.03250  1.0000 0.1409316585
H   H248      1.0  0.87610  0.34360  0.09950  1.0000 0.1409316585
H   H249      1.0  0.97640  0.93840  0.56440  1.0000 0.1490140571
H   H250      1.0  0.66200  0.72640  0.53800  1.0000 0.1490140571
H   H251      1.0  0.18840  0.12400  0.46200  1.0000 0.1490140571
H   H252      1.0  0.37400  0.41200  0.43560  1.0000 0.1490140571
H   H253      1.0  0.27360  0.81160  0.93560  1.0000 0.1490140571
H   H254      1.0  0.58800  0.02360  0.96200  1.0000 0.1490140571
H   H255      1.0  0.06160  0.62600  0.03800  1.0000 0.1490140571
H   H256      1.0  0.87600  0.33800  0.06440  1.0000 0.1490140571
H   H257      1.0  0.98800  0.92470  0.58970  1.0000 0.1409316585
H   H258      1.0  0.64830  0.73800  0.56330  1.0000 0.1409316585
H   H259      1.0  0.17470  0.08500  0.43670  1.0000 0.1409316585
H   H260      1.0  0.33500  0.39830  0.41030  1.0000 0.1409316585
H   H261      1.0  0.26200  0.82530  0.91030  1.0000 0.1409316585
H   H262      1.0  0.60170  0.01200  0.93670  1.0000 0.1409316585
H   H263      1.0  0.07530  0.66500  0.06330  1.0000 0.1409316585
H   H264      1.0  0.91500  0.35170  0.08970  1.0000 0.1409316585
H   H265      1.0  0.19900  0.08370  0.55670  1.0000 0.1409316585
H   H266      1.0  0.89230  0.94900  0.61530  1.0000 0.1409316585
H   H267      1.0  0.33370  0.27700  0.38470  1.0000 0.1409316585
H   H268      1.0  0.52700  0.64230  0.44330  1.0000 0.1409316585
H   H269      1.0  0.05100  0.66630  0.94330  1.0000 0.1409316585
H   H270      1.0  0.35770  0.80100  0.88470  1.0000 0.1409316585
H   H271      1.0  0.91630  0.47300  0.11530  1.0000 0.1409316585
H   H272      1.0  0.72300  0.10770  0.05670  1.0000 0.1409316585
H   H273      1.0  0.15970  0.02270  0.55100  1.0000 0.1490140571
H   H274      1.0  0.85870  0.90970  0.63700  1.0000 0.1490140571
H   H275      1.0  0.27270  0.22170  0.36300  1.0000 0.1490140571
H   H276      1.0  0.47170  0.60870  0.44900  1.0000 0.1490140571
H   H277      1.0  0.09030  0.72730  0.94900  1.0000 0.1490140571
H   H278      1.0  0.39130  0.84030  0.86300  1.0000 0.1582630434
H   H279      1.0  0.97730  0.52830  0.13700  1.0000 0.1490140571
H   H280      1.0  0.77830  0.14130  0.05100  1.0000 0.1490140571
H   H281      1.0  0.15060  0.03830  0.52550  1.0000 0.1409316585
H   H282      1.0  0.87510  0.90060  0.61230  1.0000 0.1409316585
H   H283      1.0  0.28830  0.26280  0.38770  1.0000 0.1409316585
H   H284      1.0  0.51280  0.62510  0.47450  1.0000 0.1409316585
H   H285      1.0  0.09940  0.71170  0.97450  1.0000 0.1409316585
H   H286      1.0  0.37490  0.84940  0.88770  1.0000 0.1409316585
H   H287      1.0  0.96170  0.48720  0.11230  1.0000 0.1409316585
H   H288      1.0  0.73720  0.12490  0.02550  1.0000 0.1409316585
H   H289      1.0  0.68470  0.24650  0.17260  1.0000 0.1490140571
H   H290      1.0  0.76210  0.43470  0.93820  1.0000 0.1490140571
H   H291      1.0  0.49650  0.82390  0.06180  1.0000 0.1490140571
H   H292      1.0  0.07390  0.51210  0.82740  1.0000 0.1490140571
H   H293      1.0  0.56530  0.50350  0.32740  1.0000 0.1490140571
H   H294      1.0  0.48790  0.31530  0.56180  1.0000 0.1490140571
H   H295      1.0  0.75350  0.92610  0.43820  1.0000 0.1490140571
H   H296      1.0  0.17610  0.23790  0.67260  1.0000 0.1490140571
H   H297      1.0  0.67090  0.25900  0.14790  1.0000 0.1490140571
H   H298      1.0  0.77300  0.42090  0.91190  1.0000 0.1490140571
H   H299      1.0  0.50900  0.86110  0.08810  1.0000 0.1490140571
H   H300      1.0  0.11110  0.52300  0.85210  1.0000 0.1490140571
H   H301      1.0  0.57910  0.49100  0.35210  1.0000 0.1490140571
H   H302      1.0  0.47700  0.32910  0.58810  1.0000 0.1490140571
H   H303      1.0  0.74100  0.88890  0.41190  1.0000 0.1490140571
H   H304      1.0  0.13890  0.22700  0.64790  1.0000 0.1490140571
H   H305      1.0  0.73250  0.30030  0.16160  1.0000 0.1490140571
H   H306      1.0  0.82090  0.48250  0.93220  1.0000 0.1490140571
H   H307      1.0  0.55030  0.88870  0.06780  1.0000 0.1490140571
H   H308      1.0  0.13870  0.57090  0.83840  1.0000 0.1490140571
H   H309      1.0  0.51750  0.44970  0.33840  1.0000 0.1490140571
H   H310      1.0  0.42910  0.26750  0.56780  1.0000 0.1490140571
H   H311      1.0  0.69970  0.86130  0.43220  1.0000 0.1490140571
H   H312      1.0  0.11130  0.17910  0.66160  1.0000 0.1490140571
H   H313      1.0  0.67070  0.15670  0.05440  1.0000 0.1490140571
H   H314      1.0  0.86630  0.42070  0.01400  1.0000 0.1490140571
H   H315      1.0  0.40670  0.85230  0.98600  1.0000 0.1490140571
H   H316      1.0  0.10230  0.61630  0.94560  1.0000 0.1490140571
H   H317      1.0  0.57930  0.59330  0.44560  1.0000 0.1490140571
H   H318      1.0  0.38370  0.32930  0.48600  1.0000 0.1490140571
H   H319      1.0  0.84330  0.89770  0.51400  1.0000 0.1490140571
H   H320      1.0  0.14770  0.13370  0.55440  1.0000 0.1490140571
H   H321      1.0  0.71850  0.21890  0.05420  1.0000 0.1409316585
H   H322      1.0  0.91430  0.46850  0.99960  1.0000 0.1409316585
H   H323      1.0  0.46890  0.91470  0.00040  1.0000 0.1409316585
H   H324      1.0  0.16470  0.66430  0.94580  1.0000 0.1409316585
H   H325      1.0  0.53150  0.53110  0.44580  1.0000 0.1409316585
H   H326      1.0  0.33570  0.28150  0.50040  1.0000 0.1409316585
H   H327      1.0  0.78110  0.83530  0.49960  1.0000 0.1409316585
H   H328      1.0  0.08530  0.08570  0.55420  1.0000 0.1409316585
H   H329      1.0  0.65620  0.17590  0.04090  1.0000 0.1582630434
H   H330      1.0  0.86530  0.40620  0.98030  1.0000 0.1490140571
H   H331      1.0  0.42590  0.88500  0.01970  1.0000 0.1490140571
H   H332      1.0  0.13500  0.61530  0.95910  1.0000 0.1490140571
H   H333      1.0  0.59380  0.57410  0.45910  1.0000 0.1582630434
H   H334      1.0  0.38470  0.34380  0.51970  1.0000 0.1582630434
H   H335      1.0  0.82410  0.86500  0.48030  1.0000 0.1490140571
H   H336      1.0  0.11500  0.13470  0.54090  1.0000 0.1582630434
H   H337      1.0  0.82000  0.36230  0.06330  1.0000 0.1409316585
H   H338      1.0  0.00670  0.57000  0.95770  1.0000 0.1409316585
H   H339      1.0  0.61230  0.04900  0.04230  1.0000 0.1490140571
H   H340      1.0  0.29900  0.75670  0.93670  1.0000 0.1490140571
H   H341      1.0  0.43000  0.38770  0.43670  1.0000 0.1409316585
H   H342      1.0  0.24330  0.18000  0.54230  1.0000 0.1490140571
H   H343      1.0  0.63770  0.70100  0.45770  1.0000 0.1409316585
H   H344      1.0  0.95100  0.99330  0.56330  1.0000 0.1409316585
H   H345      1.0  0.78260  0.30310  0.06290  1.0000 0.1490140571
H   H346      1.0  0.96970  0.53260  0.97950  1.0000 0.1490140571
H   H347      1.0  0.55310  0.99020  0.02050  1.0000 0.1490140571
H   H348      1.0  0.24020  0.71970  0.93710  1.0000 0.1490140571
H   H349      1.0  0.46740  0.44690  0.43710  1.0000 0.1490140571
H   H350      1.0  0.28030  0.21740  0.52050  1.0000 0.1490140571
H   H351      1.0  0.69690  0.75980  0.47950  1.0000 0.1490140571
H   H352      1.0  0.00980  0.03030  0.56290  1.0000 0.1490140571
H   H353      1.0  0.81780  0.34850  0.09490  1.0000 0.1409316585
H   H354      1.0  0.97290  0.56780  0.96930  1.0000 0.1409316585
H   H355      1.0  0.59850  0.00360  0.03070  1.0000 0.1409316585
H   H356      1.0  0.25360  0.72290  0.90510  1.0000 0.1409316585
H   H357      1.0  0.43220  0.40150  0.40510  1.0000 0.1409316585
H   H358      1.0  0.27710  0.18220  0.53070  1.0000 0.1409316585
H   H359      1.0  0.65150  0.74640  0.46930  1.0000 0.1409316585
H   H360      1.0  0.99640  0.02710  0.59490  1.0000 0.1409316585
H   H361      1.0  0.61050  0.24590  0.08040  1.0000 0.1409316585
H   H362      1.0  0.78010  0.36050  0.86460  1.0000 0.1409316585
H   H363      1.0  0.49590  0.91550  0.13540  1.0000 0.1409316585
H   H364      1.0  0.16550  0.53010  0.91960  1.0000 0.1409316585
H   H365      1.0  0.63950  0.50410  0.41960  1.0000 0.1409316585
H   H366      1.0  0.46990  0.38950  0.63540  1.0000 0.1409316585
H   H367      1.0  0.75410  0.83450  0.36460  1.0000 0.1409316585
H   H368      1.0  0.08450  0.21990  0.58040  1.0000 0.1409316585
H   H369      1.0  0.62760  0.24090  0.10930  1.0000 0.1490140571
H   H370      1.0  0.76830  0.37760  0.88670  1.0000 0.1490140571
H   H371      1.0  0.49090  0.88160  0.11330  1.0000 0.1490140571
H   H372      1.0  0.13160  0.51830  0.89070  1.0000 0.1490140571
H   H373      1.0  0.62240  0.50910  0.39070  1.0000 0.1490140571
H   H374      1.0  0.48170  0.37240  0.61330  1.0000 0.1490140571
H   H375      1.0  0.75910  0.86840  0.38670  1.0000 0.1490140571
H   H376      1.0  0.11840  0.23170  0.60930  1.0000 0.1490140571
H   H377      1.0  0.59540  0.19890  0.07610  1.0000 0.1582630434
H   H378      1.0  0.76930  0.34540  0.89650  1.0000 0.1582630434
H   H379      1.0  0.44890  0.87280  0.10350  1.0000 0.1582630434
H   H380      1.0  0.12280  0.51930  0.92390  1.0000 0.1582630434
H   H381      1.0  0.65460  0.55110  0.42390  1.0000 0.1582630434
H   H382      1.0  0.48070  0.40460  0.60350  1.0000 0.1582630434
H   H383      1.0  0.80110  0.87720  0.39650  1.0000 0.1582630434
H   H384      1.0  0.12720  0.23070  0.57610  1.0000 0.1582630434
H   H385      1.0  0.51630  0.96680  0.19830  1.0000 0.1409316585
H   H386      1.0  0.56800  0.26630  0.04950  1.0000 0.1409316585
H   H387      1.0  0.21680  0.51850  0.95050  1.0000 0.1409316585
H   H388      1.0  0.76850  0.31800  0.80170  1.0000 0.1409316585
H   H389      1.0  0.73370  0.78320  0.30170  1.0000 0.1409316585
H   H390      1.0  0.68200  0.48370  0.45050  1.0000 0.1409316585
H   H391      1.0  0.03320  0.23150  0.54950  1.0000 0.1409316585
H   H392      1.0  0.48150  0.43200  0.69830  1.0000 0.1409316585
H   H393      1.0  0.48350  0.96060  0.21650  1.0000 0.1490140571
H   H394      1.0  0.51700  0.23350  0.02290  1.0000 0.1490140571
H   H395      1.0  0.21060  0.49410  0.97710  1.0000 0.1490140571
H   H396      1.0  0.74410  0.26700  0.78350  1.0000 0.1490140571
H   H397      1.0  0.76650  0.78940  0.28350  1.0000 0.1490140571
H   H398      1.0  0.73300  0.51650  0.47710  1.0000 0.1490140571
H   H399      1.0  0.03940  0.25590  0.52290  1.0000 0.1490140571
H   H400      1.0  0.50590  0.48300  0.71650  1.0000 0.1490140571
H   H401      1.0  0.53490  0.98560  0.23490  1.0000 0.1490140571
H   H402      1.0  0.55000  0.28490  0.04930  1.0000 0.1490140571
H   H403      1.0  0.23560  0.50070  0.95070  1.0000 0.1490140571
H   H404      1.0  0.75070  0.30000  0.76510  1.0000 0.1490140571
H   H405      1.0  0.71510  0.76440  0.26510  1.0000 0.1490140571
H   H406      1.0  0.70000  0.46510  0.45070  1.0000 0.1490140571
H   H407      1.0  0.01440  0.24930  0.54930  1.0000 0.1490140571
H   H408      1.0  0.49930  0.45000  0.73490  1.0000 0.1490140571
H   H409      1.0  0.64930  0.19390  0.22520  1.0000 0.1409316585
H   H410      1.0  0.67410  0.39930  0.95540  1.0000 0.1409316585
H   H411      1.0  0.44390  0.71870  0.04460  1.0000 0.1409316585
H   H412      1.0  0.96870  0.42410  0.77480  1.0000 0.1409316585
H   H413      1.0  0.60070  0.55610  0.27480  1.0000 0.1409316585
H   H414      1.0  0.57590  0.35070  0.54460  1.0000 0.1409316585
H   H415      1.0  0.80610  0.03130  0.45540  1.0000 0.1409316585
H   H416      1.0  0.28130  0.32590  0.72520  1.0000 0.1409316585
H   H417      1.0  0.65480  0.18970  0.25910  1.0000 0.1409316585
H   H418      1.0  0.64570  0.40480  0.96510  1.0000 0.1409316585
H   H419      1.0  0.43970  0.68060  0.03490  1.0000 0.1409316585
H   H420      1.0  0.93060  0.39570  0.74090  1.0000 0.1409316585
H   H421      1.0  0.59520  0.56030  0.24090  1.0000 0.1409316585
H   H422      1.0  0.60430  0.34520  0.53490  1.0000 0.1409316585
H   H423      1.0  0.81030  0.06940  0.46510  1.0000 0.1409316585
H   H424      1.0  0.31940  0.35430  0.75910  1.0000 0.1409316585
H   H425      1.0  0.60110  0.16100  0.24070  1.0000 0.1490140571
H   H426      1.0  0.61040  0.35110  0.94010  1.0000 0.1490140571
H   H427      1.0  0.41100  0.67030  0.05990  1.0000 0.1490140571
H   H428      1.0  0.92030  0.36040  0.75930  1.0000 0.1490140571
H   H429      1.0  0.64890  0.58900  0.25930  1.0000 0.1490140571
H   H430      1.0  0.63960  0.39890  0.55990  1.0000 0.1490140571
H   H431      1.0  0.83900  0.07970  0.44010  1.0000 0.1490140571
H   H432      1.0  0.32970  0.38960  0.74070  1.0000 0.1490140571
H   H433      1.0  0.09170  0.42370  0.95420  1.0000 0.1490140571
H   H434      1.0  0.38750  0.84170  0.16800  1.0000 0.1490140571
H   H435      1.0  0.67370  0.21950  0.83200  1.0000 0.1490140571
H   H436      1.0  0.46950  0.13750  0.04580  1.0000 0.1490140571
H   H437      1.0  0.15830  0.32630  0.54580  1.0000 0.1490140571
H   H438      1.0  0.86250  0.90830  0.33200  1.0000 0.1490140571
H   H439      1.0  0.57630  0.53050  0.66800  1.0000 0.1490140571
H   H440      1.0  0.78050  0.61250  0.45420  1.0000 0.1490140571
H   H441      1.0  0.11650  0.44350  0.99040  1.0000 0.1490140571
H   H442      1.0  0.37610  0.86650  0.17300  1.0000 0.1490140571
H   H443      1.0  0.69350  0.20310  0.82700  1.0000 0.1490140571
H   H444      1.0  0.45310  0.12610  0.00960  1.0000 0.1490140571
H   H445      1.0  0.13350  0.30650  0.50960  1.0000 0.1490140571
H   H446      1.0  0.87390  0.88350  0.32700  1.0000 0.1490140571
H   H447      1.0  0.55650  0.54690  0.67300  1.0000 0.1490140571
H   H448      1.0  0.79690  0.62390  0.49040  1.0000 0.1490140571
H   H449      1.0  0.13280  0.48340  0.97360  1.0000 0.1582630434
H   H450      1.0  0.40920  0.88280  0.14940  1.0000 0.1582630434
H   H451      1.0  0.73340  0.25980  0.85060  1.0000 0.1582630434
H   H452      1.0  0.50980  0.15920  0.02640  1.0000 0.1582630434
H   H453      1.0  0.11720  0.26660  0.52640  1.0000 0.1582630434
H   H454      1.0  0.84080  0.86720  0.35060  1.0000 0.1582630434
H   H455      1.0  0.51660  0.49020  0.64940  1.0000 0.1582630434
H   H456      1.0  0.74020  0.59080  0.47360  1.0000 0.1582630434
H   H457      1.0  0.93360  0.37400  0.00100  1.0000 0.1409316585
H   H458      1.0  0.18260  0.68360  0.05960  1.0000 0.1490140571
H   H459      1.0  0.62400  0.12300  0.94040  1.0000 0.1490140571
H   H460      1.0  0.37300  0.93260  0.99900  1.0000 0.1490140571
H   H461      1.0  0.31640  0.37600  0.49900  1.0000 0.1490140571
H   H462      1.0  0.06740  0.06640  0.44040  1.0000 0.1490140571
H   H463      1.0  0.62600  0.62700  0.55960  1.0000 0.1490140571
H   H464      1.0  0.87700  0.81740  0.50100  1.0000 0.1490140571
H   H465      1.0  0.99010  0.43850  0.01620  1.0000 0.1490140571
H   H466      1.0  0.22390  0.74010  0.05160  1.0000 0.1490140571
H   H467      1.0  0.68850  0.17230  0.94840  1.0000 0.1490140571
H   H468      1.0  0.42230  0.97390  0.98380  1.0000 0.1490140571
H   H469      1.0  0.25990  0.31150  0.48380  1.0000 0.1490140571
H   H470      1.0  0.02610  0.00990  0.44840  1.0000 0.1490140571
H   H471      1.0  0.56150  0.57770  0.55160  1.0000 0.1490140571
H   H472      1.0  0.82770  0.77610  0.51620  1.0000 0.1490140571
H   H473      1.0  0.97320  0.39800  0.03280  1.0000 0.1490140571
H   H474      1.0  0.19040  0.72320  0.07520  1.0000 0.1490140571
H   H475      1.0  0.64800  0.11520  0.92480  1.0000 0.1490140571
H   H476      1.0  0.36520  0.94040  0.96720  1.0000 0.1490140571
H   H477      1.0  0.27680  0.35200  0.46720  1.0000 0.1490140571
H   H478      1.0  0.05960  0.02680  0.42480  1.0000 0.1490140571
H   H479      1.0  0.60200  0.63480  0.57520  1.0000 0.1490140571
H   H480      1.0  0.88480  0.80960  0.53280  1.0000 0.1490140571
H   H481      1.0  0.12280  0.58160  0.03000  1.0000 0.1409316585
H   H482      1.0  0.34280  0.87280  0.04120  1.0000 0.1409316585
H   H483      1.0  0.83160  0.30160  0.95880  1.0000 0.1409316585
H   H484      1.0  0.55160  0.09280  0.97000  1.0000 0.1409316585
H   H485      1.0  0.12720  0.16840  0.47000  1.0000 0.1409316585
H   H486      1.0  0.90720  0.87720  0.45880  1.0000 0.1409316585
H   H487      1.0  0.41840  0.44840  0.54120  1.0000 0.1409316585
H   H488      1.0  0.69840  0.65720  0.53000  1.0000 0.1409316585
H   H489      1.0  0.06240  0.51790  0.01650  1.0000 0.1490140571
H   H490      1.0  0.29590  0.81240  0.04450  1.0000 0.1490140571
H   H491      1.0  0.76790  0.25140  0.95550  1.0000 0.1490140571
H   H492      1.0  0.50140  0.04590  0.98350  1.0000 0.1490140571
H   H493      1.0  0.18760  0.23210  0.48350  1.0000 0.1490140571
H   H494      1.0  0.95410  0.93760  0.45550  1.0000 0.1490140571
H   H495      1.0  0.48210  0.49860  0.54450  1.0000 0.1490140571
H   H496      1.0  0.74860  0.70410  0.51650  1.0000 0.1490140571
H   H497      1.0  0.10750  0.54760  0.99890  1.0000 0.1582630434
H   H498      1.0  0.35860  0.85750  0.05990  1.0000 0.1582630434
H   H499      1.0  0.79760  0.29870  0.94010  1.0000 0.1582630434
H   H500      1.0  0.54870  0.10860  0.00110  1.0000 0.1582630434
H   H501      1.0  0.14250  0.20240  0.50110  1.0000 0.1582630434
H   H502      1.0  0.89140  0.89250  0.44010  1.0000 0.1582630434
H   H503      1.0  0.45240  0.45130  0.55990  1.0000 0.1582630434
H   H504      1.0  0.70130  0.64140  0.49890  1.0000 0.1582630434
H   H505      1.0  0.15550  0.48590  0.07800  1.0000 0.1490140571
H   H506      1.0  0.32750  0.90550  0.16960  1.0000 0.1490140571
H   H507      1.0  0.73590  0.15790  0.83040  1.0000 0.1409316585
H   H508      1.0  0.40790  0.07750  0.92200  1.0000 0.1490140571
H   H509      1.0  0.09450  0.26410  0.42200  1.0000 0.1490140571
H   H510      1.0  0.92250  0.84450  0.33040  1.0000 0.1490140571
H   H511      1.0  0.51410  0.59210  0.66960  1.0000 0.1409316585
H   H512      1.0  0.84210  0.67250  0.57800  1.0000 0.1490140571
H   H513      1.0  0.13280  0.45880  0.04180  1.0000 0.1490140571
H   H514      1.0  0.34100  0.88280  0.17400  1.0000 0.1490140571
H   H515      1.0  0.70880  0.16700  0.82600  1.0000 0.1490140571
H   H516      1.0  0.41700  0.09100  0.95820  1.0000 0.1490140571
H   H517      1.0  0.11720  0.29120  0.45820  1.0000 0.1490140571
H   H518      1.0  0.90900  0.86720  0.32600  1.0000 0.1490140571
H   H519      1.0  0.54120  0.58300  0.67400  1.0000 0.1490140571
H   H520      1.0  0.83300  0.65900  0.54180  1.0000 0.1490140571
H   H521      1.0  0.09120  0.43170  0.06170  1.0000 0.1409316585
H   H522      1.0  0.27950  0.84120  0.15950  1.0000 0.1409316585
H   H523      1.0  0.68170  0.12000  0.84050  1.0000 0.1409316585
H   H524      1.0  0.37000  0.02950  0.93830  1.0000 0.1409316585
H   H525      1.0  0.15880  0.31830  0.43830  1.0000 0.1409316585
H   H526      1.0  0.97050  0.90880  0.34050  1.0000 0.1409316585
H   H527      1.0  0.56830  0.63000  0.65950  1.0000 0.1409316585
H   H528      1.0  0.88000  0.72050  0.56170  1.0000 0.1409316585
H   H529      1.0  0.82800  0.19200  0.80220  1.0000 0.1409316585
H   H530      1.0  0.27580  0.57800  0.13600  1.0000 0.1409316585
H   H531      1.0  0.44200  0.13980  0.86400  1.0000 0.1409316585
H   H532      1.0  0.38980  0.02580  0.19780  1.0000 0.1409316585
H   H533      1.0  0.42200  0.55800  0.69780  1.0000 0.1409316585
H   H534      1.0  0.97420  0.17200  0.36400  1.0000 0.1409316585
H   H535      1.0  0.80800  0.61020  0.63600  1.0000 0.1409316585
H   H536      1.0  0.86020  0.72420  0.30220  1.0000 0.1409316585
H   H537      1.0  0.85060  0.18100  0.78940  1.0000 0.1409316585
H   H538      1.0  0.31120  0.60060  0.16960  1.0000 0.1409316585
H   H539      1.0  0.43100  0.14160  0.83040  1.0000 0.1409316585
H   H540      1.0  0.39160  0.06120  0.21060  1.0000 0.1409316585
H   H541      1.0  0.39940  0.56900  0.71060  1.0000 0.1409316585
H   H542      1.0  0.93880  0.14940  0.33040  1.0000 0.1409316585
H   H543      1.0  0.81900  0.60840  0.66960  1.0000 0.1409316585
H   H544      1.0  0.85840  0.68880  0.28940  1.0000 0.1409316585
H   H545      1.0  0.86100  0.22030  0.77710  1.0000 0.1582630434
H   H546      1.0  0.33390  0.61100  0.14070  1.0000 0.1582630434
H   H547      1.0  0.47030  0.19320  0.85930  1.0000 0.1582630434
H   H548      1.0  0.44320  0.08390  0.22290  1.0000 0.1582630434
H   H549      1.0  0.38900  0.52970  0.72290  1.0000 0.1582630434
H   H550      1.0  0.91610  0.13900  0.35930  1.0000 0.1582630434
H   H551      1.0  0.77970  0.55680  0.64070  1.0000 0.1582630434
H   H552      1.0  0.80680  0.66610  0.27710  1.0000 0.1582630434
H   H553      1.0  0.06150  0.38400  0.88930  1.0000 0.1409316585
H   H554      1.0  0.42220  0.81150  0.17750  1.0000 0.1409316585
H   H555      1.0  0.63400  0.24470  0.82250  1.0000 0.1409316585
H   H556      1.0  0.49470  0.17220  0.11070  1.0000 0.1409316585
H   H557      1.0  0.18850  0.36600  0.61070  1.0000 0.1409316585
H   H558      1.0  0.82780  0.93850  0.32250  1.0000 0.1409316585
H   H559      1.0  0.61600  0.50530  0.67750  1.0000 0.1409316585
H   H560      1.0  0.75530  0.57780  0.38930  1.0000 0.1409316585
H   H561      1.0  0.07430  0.39780  0.85730  1.0000 0.1409316585
H   H562      1.0  0.46700  0.82430  0.17650  1.0000 0.1409316585
H   H563      1.0  0.64780  0.29050  0.82350  1.0000 0.1409316585
H   H564      1.0  0.54050  0.21700  0.14270  1.0000 0.1409316585
H   H565      1.0  0.17570  0.35220  0.64270  1.0000 0.1409316585
H   H566      1.0  0.78300  0.92570  0.32350  1.0000 0.1409316585
H   H567      1.0  0.60220  0.45950  0.67650  1.0000 0.1409316585
H   H568      1.0  0.70950  0.53300  0.35730  1.0000 0.1409316585
H   H569      1.0  0.06010  0.35430  0.86600  1.0000 0.1409316585
H   H570      1.0  0.44410  0.81010  0.20580  1.0000 0.1409316585
H   H571      1.0  0.60430  0.23830  0.79420  1.0000 0.1409316585
H   H572      1.0  0.48830  0.19410  0.13400  1.0000 0.1409316585
H   H573      1.0  0.18990  0.39570  0.63400  1.0000 0.1409316585
H   H574      1.0  0.80590  0.93990  0.29420  1.0000 0.1409316585
H   H575      1.0  0.64570  0.51170  0.70580  1.0000 0.1409316585
H   H576      1.0  0.76170  0.55590  0.36600  1.0000 0.1409316585
H   H577      1.0  0.03600  0.91280  0.40420  1.0000 0.1409316585
H   H578      1.0  0.88180  0.78600  0.62320  1.0000 0.1409316585
H   H579      1.0  0.16280  0.25860  0.37680  1.0000 0.1409316585
H   H580      1.0  0.50860  0.63180  0.59580  1.0000 0.1409316585
H   H581      1.0  0.21400  0.83720  0.09580  1.0000 0.1409316585
H   H582      1.0  0.36820  0.96400  0.87680  1.0000 0.1409316585
H   H583      1.0  0.08720  0.49140  0.12320  1.0000 0.1409316585
H   H584      1.0  0.74140  0.11820  0.90420  1.0000 0.1409316585
H   H585      1.0  0.07850  0.92790  0.39240  1.0000 0.1582630434
H   H586      1.0  0.93610  0.82850  0.65060  1.0000 0.1582630434
H   H587      1.0  0.17790  0.28550  0.34940  1.0000 0.1582630434
H   H588      1.0  0.53550  0.68610  0.60760  1.0000 0.1582630434
H   H589      1.0  0.17150  0.82210  0.10760  1.0000 0.1582630434
H   H590      1.0  0.31390  0.92150  0.84940  1.0000 0.1582630434
H   H591      1.0  0.07210  0.46450  0.15060  1.0000 0.1582630434
H   H592      1.0  0.71450  0.06390  0.89240  1.0000 0.1582630434
H   H593      1.0  0.03160  0.90490  0.36830  1.0000 0.1409316585
H   H594      1.0  0.91330  0.78160  0.62670  1.0000 0.1409316585
H   H595      1.0  0.15490  0.28660  0.37330  1.0000 0.1409316585
H   H596      1.0  0.53660  0.66330  0.63170  1.0000 0.1409316585
H   H597      1.0  0.21840  0.84510  0.13170  1.0000 0.1409316585
H   H598      1.0  0.33670  0.96840  0.87330  1.0000 0.1409316585
H   H599      1.0  0.09510  0.46340  0.12670  1.0000 0.1409316585
H   H600      1.0  0.71340  0.08670  0.86830  1.0000 0.1409316585
H   H601      1.0  0.90640  0.68670  0.36910  1.0000 0.1409316585
H   H602      1.0  0.78730  0.65640  0.71970  1.0000 0.1409316585
H   H603      1.0  0.93670  0.06760  0.28030  1.0000 0.1409316585
H   H604      1.0  0.31760  0.53730  0.63090  1.0000 0.1409316585
H   H605      1.0  0.34360  0.06330  0.13090  1.0000 0.1409316585
H   H606      1.0  0.46270  0.09360  0.78030  1.0000 0.1409316585
H   H607      1.0  0.31330  0.68240  0.21970  1.0000 0.1409316585
H   H608      1.0  0.93240  0.21270  0.86910  1.0000 0.1409316585
H   H609      1.0  0.91130  0.69760  0.33610  1.0000 0.1490140571
H   H610      1.0  0.82520  0.66130  0.71370  1.0000 0.1490140571
H   H611      1.0  0.94760  0.11150  0.28630  1.0000 0.1490140571
H   H612      1.0  0.36150  0.57520  0.66390  1.0000 0.1490140571
H   H613      1.0  0.33870  0.05240  0.16390  1.0000 0.1490140571
H   H614      1.0  0.42480  0.08870  0.78630  1.0000 0.1490140571
H   H615      1.0  0.30240  0.63850  0.21370  1.0000 0.1490140571
H   H616      1.0  0.88850  0.17480  0.83610  1.0000 0.1490140571
H   H617      1.0  0.96020  0.72260  0.35920  1.0000 0.1490140571
H   H618      1.0  0.85100  0.71020  0.73760  1.0000 0.1490140571
H   H619      1.0  0.97260  0.11340  0.26240  1.0000 0.1490140571
H   H620      1.0  0.36340  0.60100  0.64080  1.0000 0.1490140571
H   H621      1.0  0.28980  0.02740  0.14080  1.0000 0.1490140571
H   H622      1.0  0.39900  0.03980  0.76240  1.0000 0.1490140571
H   H623      1.0  0.27740  0.63660  0.23760  1.0000 0.1490140571
H   H624      1.0  0.88660  0.14900  0.85920  1.0000 0.1490140571
H   H625      1.0  0.88440  0.64040  0.41140  1.0000 0.1409316585
H   H626      1.0  0.72300  0.63440  0.74400  1.0000 0.1409316585
H   H627      1.0  0.89040  0.97900  0.25600  1.0000 0.1409316585
H   H628      1.0  0.22900  0.47300  0.58860  1.0000 0.1409316585
H   H629      1.0  0.36560  0.10960  0.08860  1.0000 0.1409316585
H   H630      1.0  0.52700  0.11560  0.75600  1.0000 0.1409316585
H   H631      1.0  0.35960  0.77100  0.24400  1.0000 0.1409316585
H   H632      1.0  0.02100  0.27700  0.91140  1.0000 0.1409316585
H   H633      1.0  0.92350  0.64730  0.42660  1.0000 0.1582630434
H   H634      1.0  0.74690  0.67350  0.77620  1.0000 0.1582630434
H   H635      1.0  0.89730  0.97070  0.22380  1.0000 0.1582630434
H   H636      1.0  0.22070  0.49690  0.57340  1.0000 0.1582630434
H   H637      1.0  0.32650  0.10270  0.07340  1.0000 0.1582630434
H   H638      1.0  0.50310  0.07650  0.72380  1.0000 0.1582630434
H   H639      1.0  0.35270  0.77930  0.27620  1.0000 0.1582630434
H   H640      1.0  0.02930  0.25310  0.92660  1.0000 0.1582630434
H   H641      1.0  0.86010  0.59380  0.42490  1.0000 0.1409316585
H   H642      1.0  0.68520  0.61010  0.76630  1.0000 0.1409316585
H   H643      1.0  0.84380  0.91890  0.23370  1.0000 0.1409316585
H   H644      1.0  0.16890  0.43520  0.57510  1.0000 0.1409316585
H   H645      1.0  0.38990  0.15620  0.07510  1.0000 0.1409316585
H   H646      1.0  0.56480  0.13990  0.73370  1.0000 0.1409316585
H   H647      1.0  0.40620  0.83110  0.26630  1.0000 0.1409316585
H   H648      1.0  0.08110  0.31480  0.92490  1.0000 0.1409316585
H   H649      1.0  0.94500  0.73320  0.54960  1.0000 0.1409316585
H   H650      1.0  0.64540  0.69500  0.71180  1.0000 0.1409316585
H   H651      1.0  0.98320  0.93360  0.28820  1.0000 0.1409316585
H   H652      1.0  0.18360  0.39540  0.45040  1.0000 0.1409316585
H   H653      1.0  0.30500  0.01680  0.95040  1.0000 0.1409316585
H   H654      1.0  0.60460  0.05500  0.78820  1.0000 0.1409316585
H   H655      1.0  0.26680  0.81640  0.21180  1.0000 0.1409316585
H   H656      1.0  0.06640  0.35460  0.04960  1.0000 0.1409316585
H   H657      1.0  0.91330  0.67650  0.54900  1.0000 0.1409316585
H   H658      1.0  0.61430  0.66330  0.73680  1.0000 0.1409316585
H   H659      1.0  0.92650  0.87750  0.26320  1.0000 0.1409316585
H   H660      1.0  0.12750  0.36430  0.45100  1.0000 0.1409316585
H   H661      1.0  0.33670  0.07350  0.95100  1.0000 0.1409316585
H   H662      1.0  0.63570  0.08670  0.76320  1.0000 0.1409316585
H   H663      1.0  0.32350  0.87250  0.23680  1.0000 0.1409316585
H   H664      1.0  0.12250  0.38570  0.04900  1.0000 0.1409316585
H   H665      1.0  0.97630  0.72870  0.55000  1.0000 0.1409316585
H   H666      1.0  0.67630  0.72630  0.74760  1.0000 0.1409316585
H   H667      1.0  0.97870  0.92870  0.25240  1.0000 0.1490140571
H   H668      1.0  0.17870  0.42630  0.45000  1.0000 0.1409316585
H   H669      1.0  0.27370  0.02130  0.95000  1.0000 0.1409316585
H   H670      1.0  0.57370  0.02370  0.75240  1.0000 0.1409316585
H   H671      1.0  0.27130  0.82130  0.24760  1.0000 0.1409316585
H   H672      1.0  0.07130  0.32370  0.05000  1.0000 0.1490140571
H   H673      1.0  0.97180  0.82870  0.56370  1.0000 0.1326892263
H   H674      1.0  0.65810  0.72180  0.64310  1.0000 0.1326892263
H   H675      1.0  0.07870  0.01500  0.35690  1.0000 0.1326892263
H   H676      1.0  0.26500  0.40810  0.43630  1.0000 0.1326892263
H   H677      1.0  0.27820  0.92130  0.93630  1.0000 0.1326892263
H   H678      1.0  0.59190  0.02820  0.85690  1.0000 0.1326892263
H   H679      1.0  0.17130  0.73500  0.14310  1.0000 0.1326892263
H   H680      1.0  0.98500  0.34190  0.06370  1.0000 0.1326892263
H   H681      1.0  0.03030  0.89110  0.58260  1.0000 0.1582630434
H   H682      1.0  0.69770  0.78030  0.63920  1.0000 0.1582630434
H   H683      1.0  0.14110  0.05850  0.36080  1.0000 0.1582630434
H   H684      1.0  0.30850  0.44770  0.41740  1.0000 0.1582630434
H   H685      1.0  0.21970  0.85890  0.91740  1.0000 0.1582630434
H   H686      1.0  0.55230  0.96970  0.86080  1.0000 0.1582630434
H   H687      1.0  0.10890  0.69150  0.13920  1.0000 0.1582630434
H   H688      1.0  0.94150  0.30230  0.08260  1.0000 0.1582630434
H   H689      1.0  0.97720  0.86660  0.57820  1.0000 0.1409316585
H   H690      1.0  0.64900  0.72720  0.61060  1.0000 0.1409316585
H   H691      1.0  0.11660  0.03840  0.38940  1.0000 0.1490140571
H   H692      1.0  0.28840  0.39900  0.42180  1.0000 0.1490140571
H   H693      1.0  0.27280  0.88340  0.92180  1.0000 0.1409316585
H   H694      1.0  0.60100  0.02280  0.88940  1.0000 0.1490140571
H   H695      1.0  0.13340  0.71160  0.11060  1.0000 0.1490140571
H   H696      1.0  0.96160  0.35100  0.07820  1.0000 0.1490140571
H   H697      1.0  0.03010  0.93920  0.46210  1.0000 0.1409316585
H   H698      1.0  0.81800  0.78010  0.59090  1.0000 0.1409316585
H   H699      1.0  0.18920  0.22710  0.40910  1.0000 0.1409316585
H   H700      1.0  0.47710  0.56800  0.53790  1.0000 0.1409316585
H   H701      1.0  0.21990  0.81080  0.03790  1.0000 0.1409316585
H   H702      1.0  0.43200  0.96990  0.90910  1.0000 0.1409316585
H   H703      1.0  0.06080  0.52290  0.09090  1.0000 0.1409316585
H   H704      1.0  0.77290  0.18200  0.96210  1.0000 0.1409316585
H   H705      1.0  0.03350  0.96950  0.48700  1.0000 0.1490140571
H   H706      1.0  0.79650  0.78350  0.56400  1.0000 0.1490140571
H   H707      1.0  0.21950  0.23250  0.43600  1.0000 0.1490140571
H   H708      1.0  0.48250  0.54650  0.51300  1.0000 0.1490140571
H   H709      1.0  0.21650  0.78050  0.01300  1.0000 0.1490140571
H   H710      1.0  0.45350  0.96650  0.93600  1.0000 0.1490140571
H   H711      1.0  0.03050  0.51750  0.06400  1.0000 0.1490140571
H   H712      1.0  0.76750  0.20350  0.98700  1.0000 0.1490140571
H   H713      1.0  0.08440  0.99070  0.48970  1.0000 0.1409316585
H   H714      1.0  0.84470  0.83440  0.59370  1.0000 0.1409316585
H   H715      1.0  0.24070  0.25100  0.40630  1.0000 0.1409316585
H   H716      1.0  0.50100  0.59470  0.51030  1.0000 0.1409316585
H   H717      1.0  0.16560  0.75930  0.01030  1.0000 0.1409316585
H   H718      1.0  0.40530  0.91560  0.90630  1.0000 0.1409316585
H   H719      1.0  0.00930  0.49900  0.09370  1.0000 0.1409316585
H   H720      1.0  0.74900  0.15530  0.98970  1.0000 0.1409316585
H   H721      1.0  0.55370  0.78870  0.39500  1.0000 0.1326892263
H   H722      1.0  0.40870  0.30370  0.26500  1.0000 0.1326892263
H   H723      1.0  0.03870  0.14370  0.73500  1.0000 0.1326892263
H   H724      1.0  0.39370  0.15870  0.60500  1.0000 0.1409316585
H   H725      1.0  0.69630  0.96130  0.10500  1.0000 0.1409316585
H   H726      1.0  0.84130  0.44630  0.23500  1.0000 0.1409316585
H   H727      1.0  0.21130  0.60630  0.76500  1.0000 0.1326892263
H   H728      1.0  0.85630  0.59130  0.89500  1.0000 0.1326892263
H   H729      1.0  0.61810  0.84090  0.41000  1.0000 0.1490140571
H   H730      1.0  0.45810  0.36810  0.27720  1.0000 0.1490140571
H   H731      1.0  0.09090  0.18090  0.72280  1.0000 0.1490140571
H   H732      1.0  0.43090  0.20810  0.59000  1.0000 0.1490140571
H   H733      1.0  0.63190  0.90910  0.09000  1.0000 0.1490140571
H   H734      1.0  0.79190  0.38190  0.22280  1.0000 0.1490140571
H   H735      1.0  0.15910  0.56910  0.77720  1.0000 0.1490140571
H   H736      1.0  0.81910  0.54190  0.91000  1.0000 0.1490140571
H   H737      1.0  0.57830  0.78480  0.41810  1.0000 0.1409316585
H   H738      1.0  0.41020  0.32830  0.29350  1.0000 0.1409316585
H   H739      1.0  0.03480  0.11670  0.70650  1.0000 0.1409316585
H   H740      1.0  0.36670  0.16020  0.58190  1.0000 0.1409316585
H   H741      1.0  0.67170  0.96520  0.08190  1.0000 0.1409316585
H   H742      1.0  0.83980  0.42170  0.20650  1.0000 0.1409316585
H   H743      1.0  0.21520  0.63330  0.79350  1.0000 0.1409316585
H   H744      1.0  0.88330  0.58980  0.91810  1.0000 0.1409316585
H   H745      1.0  0.57810  0.88040  0.51950  1.0000 0.1326892263
H   H746      1.0  0.30860  0.32810  0.19770  1.0000 0.1326892263
H   H747      1.0  0.13040  0.11090  0.80230  1.0000 0.1326892263
H   H748      1.0  0.36090  0.05860  0.48050  1.0000 0.1326892263
H   H749      1.0  0.67190  0.86960  0.98050  1.0000 0.1326892263
H   H750      1.0  0.94140  0.42190  0.30230  1.0000 0.1326892263
H   H751      1.0  0.11960  0.63910  0.69770  1.0000 0.1326892263
H   H752      1.0  0.88910  0.69140  0.01950  1.0000 0.1326892263
H   H753      1.0  0.59790  0.86510  0.53020  1.0000 0.1490140571
H   H754      1.0  0.31770  0.34790  0.23280  1.0000 0.1490140571
H   H755      1.0  0.11510  0.08490  0.76720  1.0000 0.1490140571
H   H756      1.0  0.33490  0.06770  0.46980  1.0000 0.1490140571
H   H757      1.0  0.65210  0.88490  0.96980  1.0000 0.1490140571
H   H758      1.0  0.93230  0.40210  0.26720  1.0000 0.1490140571
H   H759      1.0  0.13490  0.66510  0.73280  1.0000 0.1490140571
H   H760      1.0  0.91510  0.68230  0.03020  1.0000 0.1490140571
H   H761      1.0  0.64000  0.92260  0.52340  1.0000 0.1326892263
H   H762      1.0  0.36660  0.39000  0.21740  1.0000 0.1326892263
H   H763      1.0  0.17260  0.14920  0.78260  1.0000 0.1326892263
H   H764      1.0  0.39920  0.11660  0.47660  1.0000 0.1326892263
H   H765      1.0  0.61000  0.82740  0.97660  1.0000 0.1326892263
H   H766      1.0  0.88340  0.36000  0.28260  1.0000 0.1326892263
H   H767      1.0  0.07740  0.60080  0.71740  1.0000 0.1326892263
H   H768      1.0  0.85080  0.63340  0.02340  1.0000 0.1326892263
H   H769      1.0  0.48890  0.82390  0.53640  1.0000 0.1409316585
H   H770      1.0  0.20250  0.23890  0.16500  1.0000 0.1409316585
H   H771      1.0  0.07390  0.03750  0.83500  1.0000 0.1409316585
H   H772      1.0  0.28750  0.95250  0.46360  1.0000 0.1409316585
H   H773      1.0  0.76110  0.92610  0.96360  1.0000 0.1409316585
H   H774      1.0  0.04750  0.51110  0.33500  1.0000 0.1409316585
H   H775      1.0  0.17610  0.71250  0.66500  1.0000 0.1409316585
H   H776      1.0  0.96250  0.79750  0.03640  1.0000 0.1409316585
H   H777      1.0  0.46070  0.82310  0.55580  1.0000 0.1490140571
H   H778      1.0  0.15490  0.21070  0.13760  1.0000 0.1490140571
H   H779      1.0  0.07310  0.01730  0.86240  1.0000 0.1490140571
H   H780      1.0  0.26730  0.90490  0.44420  1.0000 0.1490140571
H   H781      1.0  0.78930  0.92690  0.94420  1.0000 0.1490140571
H   H782      1.0  0.09510  0.53930  0.36240  1.0000 0.1490140571
H   H783      1.0  0.17690  0.73270  0.63760  1.0000 0.1490140571
H   H784      1.0  0.98270  0.84510  0.05580  1.0000 0.1490140571
H   H785      1.0  0.45240  0.78150  0.55630  1.0000 0.1490140571
H   H786      1.0  0.14610  0.20240  0.17090  1.0000 0.1490140571
H   H787      1.0  0.03150  0.97520  0.82910  1.0000 0.1490140571
H   H788      1.0  0.22520  0.89610  0.44370  1.0000 0.1490140571
H   H789      1.0  0.79760  0.96850  0.94370  1.0000 0.1490140571
H   H790      1.0  0.10390  0.54760  0.32910  1.0000 0.1490140571
H   H791      1.0  0.21850  0.77480  0.67090  1.0000 0.1490140571
H   H792      1.0  0.02480  0.85390  0.05630  1.0000 0.1490140571
H   H793      1.0  0.26040  0.63980  0.44520  1.0000 0.1409316585
H   H794      1.0  0.06520  0.01040  0.12060  1.0000 0.1409316585
H   H795      1.0  0.88980  0.94460  0.87940  1.0000 0.1409316585
H   H796      1.0  0.19460  0.81520  0.55480  1.0000 0.1409316585
H   H797      1.0  0.98960  0.11020  0.05480  1.0000 0.1409316585
H   H798      1.0  0.18480  0.73960  0.37940  1.0000 0.1409316585
H   H799      1.0  0.36020  0.80540  0.62060  1.0000 0.1409316585
H   H800      1.0  0.05540  0.93480  0.94520  1.0000 0.1409316585
H   H801      1.0  0.24630  0.61490  0.47360  1.0000 0.1582630434
H   H802      1.0  0.02270  0.99630  0.13140  1.0000 0.1582630434
H   H803      1.0  0.86490  0.89130  0.86860  1.0000 0.1582630434
H   H804      1.0  0.14130  0.77270  0.52640  1.0000 0.1582630434
H   H805      1.0  0.00370  0.13510  0.02640  1.0000 0.1582630434
H   H806      1.0  0.22730  0.75370  0.36860  1.0000 0.1582630434
H   H807      1.0  0.38510  0.85870  0.63140  1.0000 0.1582630434
H   H808      1.0  0.10870  0.97730  0.97360  1.0000 0.1582630434
H   H809      1.0  0.25370  0.65600  0.47350  1.0000 0.1490140571
H   H810      1.0  0.03020  0.00370  0.09770  1.0000 0.1490140571
H   H811      1.0  0.90600  0.93250  0.90230  1.0000 0.1490140571
H   H812      1.0  0.18250  0.78020  0.52650  1.0000 0.1490140571
H   H813      1.0  0.99630  0.09400  0.02650  1.0000 0.1490140571
H   H814      1.0  0.21980  0.74630  0.40230  1.0000 0.1490140571
H   H815      1.0  0.34400  0.81750  0.59770  1.0000 0.1490140571
H   H816      1.0  0.06750  0.96980  0.97350  1.0000 0.1490140571
H   H817      1.0  0.24820  0.60580  0.37780  1.0000 0.1409316585
H   H818      1.0  0.12040  0.99820  0.14240  1.0000 0.1409316585
H   H819      1.0  0.85580  0.97800  0.85760  1.0000 0.1409316585
H   H820      1.0  0.22800  0.87040  0.62220  1.0000 0.1409316585
H   H821      1.0  0.00180  0.14420  0.12220  1.0000 0.1409316585
H   H822      1.0  0.12960  0.75180  0.35760  1.0000 0.1409316585
H   H823      1.0  0.39420  0.77200  0.64240  1.0000 0.1409316585
H   H824      1.0  0.02200  0.87960  0.87780  1.0000 0.1409316585
H   H825      1.0  0.22330  0.57630  0.34180  1.0000 0.1490140571
H   H826      1.0  0.13150  0.97330  0.14700  1.0000 0.1490140571
H   H827      1.0  0.82630  0.98450  0.85300  1.0000 0.1490140571
H   H828      1.0  0.23450  0.88150  0.65820  1.0000 0.1490140571
H   H829      1.0  0.02670  0.17370  0.15820  1.0000 0.1490140571
H   H830      1.0  0.11850  0.77670  0.35300  1.0000 0.1490140571
H   H831      1.0  0.42370  0.76550  0.64700  1.0000 0.1490140571
H   H832      1.0  0.01550  0.86850  0.84180  1.0000 0.1490140571
H   H833      1.0  0.21820  0.54960  0.36600  1.0000 0.1490140571
H   H834      1.0  0.10220  0.96820  0.16860  1.0000 0.1490140571
H   H835      1.0  0.79960  0.93360  0.83140  1.0000 0.1490140571
H   H836      1.0  0.18360  0.85220  0.63400  1.0000 0.1490140571
H   H837      1.0  0.03180  0.20040  0.13400  1.0000 0.1490140571
H   H838      1.0  0.14780  0.78180  0.33140  1.0000 0.1490140571
H   H839      1.0  0.45040  0.81640  0.66860  1.0000 0.1490140571
H   H840      1.0  0.06640  0.89780  0.86600  1.0000 0.1490140571
H   H841      1.0  0.43730  0.69200  0.35050  1.0000 0.1409316585
H   H842      1.0  0.33680  0.18730  0.24530  1.0000 0.1409316585
H   H843      1.0  0.94200  0.09150  0.75470  1.0000 0.1409316585
H   H844      1.0  0.34150  0.08680  0.64950  1.0000 0.1409316585
H   H845      1.0  0.81270  0.05800  0.14950  1.0000 0.1409316585
H   H846      1.0  0.91320  0.56270  0.25470  1.0000 0.1409316585
H   H847      1.0  0.30800  0.65850  0.74530  1.0000 0.1409316585
H   H848      1.0  0.90850  0.66320  0.85050  1.0000 0.1409316585
H   H849      1.0  0.39030  0.62800  0.34150  1.0000 0.1582630434
H   H850      1.0  0.29880  0.14030  0.26230  1.0000 0.1582630434
H   H851      1.0  0.87800  0.03650  0.73770  1.0000 0.1582630434
H   H852      1.0  0.28650  0.04880  0.65850  1.0000 0.1582630434
H   H853      1.0  0.85970  0.12200  0.15850  1.0000 0.1582630434
H   H854      1.0  0.95120  0.60970  0.23770  1.0000 0.1582630434
H   H855      1.0  0.37200  0.71350  0.76230  1.0000 0.1582630434
H   H856      1.0  0.96350  0.70120  0.84150  1.0000 0.1582630434
H   H857      1.0  0.39420  0.65400  0.31720  1.0000 0.1409316585
H   H858      1.0  0.32700  0.14420  0.24020  1.0000 0.1409316585
H   H859      1.0  0.90400  0.08680  0.75980  1.0000 0.1409316585
H   H860      1.0  0.33680  0.07700  0.68280  1.0000 0.1409316585
H   H861      1.0  0.85580  0.09600  0.18280  1.0000 0.1409316585
H   H862      1.0  0.92300  0.60580  0.25980  1.0000 0.1409316585
H   H863      1.0  0.34600  0.66320  0.74020  1.0000 0.1409316585
H   H864      1.0  0.91320  0.67300  0.81720  1.0000 0.1409316585
H   H865      1.0  0.06580  0.53790  0.64470  1.0000 0.1490140571
H   H866      1.0  0.67110  0.81580  0.02790  1.0000 0.1490140571
H   H867      1.0  0.78790  0.64320  0.97210  1.0000 0.1490140571
H   H868      1.0  0.89320  0.42110  0.35530  1.0000 0.1490140571
H   H869      1.0  0.18420  0.21210  0.85530  1.0000 0.1490140571
H   H870      1.0  0.57890  0.93420  0.47210  1.0000 0.1490140571
H   H871      1.0  0.46210  0.10680  0.52790  1.0000 0.1490140571
H   H872      1.0  0.35680  0.32890  0.14470  1.0000 0.1490140571
H   H873      1.0  0.01390  0.50290  0.61780  1.0000 0.1409316585
H   H874      1.0  0.64610  0.76390  0.01100  1.0000 0.1409316585
H   H875      1.0  0.75290  0.63510  0.98900  1.0000 0.1409316585
H   H876      1.0  0.88510  0.39610  0.38220  1.0000 0.1409316585
H   H877      1.0  0.23610  0.24710  0.88220  1.0000 0.1409316585
H   H878      1.0  0.60390  0.98610  0.48900  1.0000 0.1409316585
H   H879      1.0  0.49710  0.11490  0.51100  1.0000 0.1409316585
H   H880      1.0  0.36490  0.35390  0.11780  1.0000 0.1409316585
H   H881      1.0  0.04600  0.55490  0.64290  1.0000 0.1490140571
H   H882      1.0  0.65310  0.79600  0.99110  1.0000 0.1490140571
H   H883      1.0  0.80490  0.66200  0.00890  1.0000 0.1490140571
H   H884      1.0  0.91200  0.40310  0.35710  1.0000 0.1490140571
H   H885      1.0  0.20400  0.19510  0.85710  1.0000 0.1490140571
H   H886      1.0  0.59690  0.95400  0.50890  1.0000 0.1490140571
H   H887      1.0  0.44510  0.08800  0.49110  1.0000 0.1490140571
H   H888      1.0  0.33800  0.34690  0.14290  1.0000 0.1490140571
H   H889      1.0  0.17490  0.66610  0.54960  1.0000 0.1409316585
H   H890      1.0  0.87530  0.92490  0.00880  1.0000 0.1409316585
H   H891      1.0  0.91610  0.86650  0.99120  1.0000 0.1409316585
H   H892      1.0  0.11650  0.62530  0.45040  1.0000 0.1409316585
H   H893      1.0  0.07510  0.08390  0.95040  1.0000 0.1409316585
H   H894      1.0  0.37470  0.82510  0.49120  1.0000 0.1409316585
H   H895      1.0  0.33390  0.88350  0.50880  1.0000 0.1409316585
H   H896      1.0  0.13350  0.12470  0.04960  1.0000 0.1409316585
H   H897      1.0  0.14390  0.66990  0.55540  1.0000 0.1409316585
H   H898      1.0  0.83850  0.89390  0.97400  1.0000 0.1409316585
H   H899      1.0  0.91990  0.86450  0.02600  1.0000 0.1409316585
H   H900      1.0  0.11450  0.58850  0.44460  1.0000 0.1409316585
H   H901      1.0  0.10610  0.08010  0.94460  1.0000 0.1409316585
H   H902      1.0  0.41150  0.85610  0.52600  1.0000 0.1409316585
H   H903      1.0  0.33010  0.88550  0.47400  1.0000 0.1409316585
H   H904      1.0  0.13550  0.16150  0.05540  1.0000 0.1409316585
H   H905      1.0  0.11160  0.61650  0.53230  1.0000 0.1582630434
H   H906      1.0  0.82930  0.86160  0.99510  1.0000 0.1582630434
H   H907      1.0  0.86650  0.83420  0.00490  1.0000 0.1582630434
H   H908      1.0  0.08420  0.57930  0.46770  1.0000 0.1582630434
H   H909      1.0  0.13840  0.13350  0.96770  1.0000 0.1582630434
H   H910      1.0  0.42070  0.88840  0.50490  1.0000 0.1582630434
H   H911      1.0  0.38350  0.91580  0.49510  1.0000 0.1582630434
H   H912      1.0  0.16580  0.17070  0.03230  1.0000 0.1582630434
H   H913      1.0  0.26810  0.71950  0.54180  1.0000 0.1409316585
H   H914      1.0  0.97630  0.01810  0.04860  1.0000 0.1409316585
H   H915      1.0  0.96950  0.92770  0.95140  1.0000 0.1409316585
H   H916      1.0  0.17770  0.72630  0.45820  1.0000 0.1409316585
H   H917      1.0  0.98190  0.03050  0.95820  1.0000 0.1409316585
H   H918      1.0  0.27370  0.73190  0.45140  1.0000 0.1409316585
H   H919      1.0  0.28050  0.82230  0.54860  1.0000 0.1409316585
H   H920      1.0  0.07230  0.02370  0.04180  1.0000 0.1409316585
H   H921      1.0  0.26540  0.69870  0.50990  1.0000 0.1490140571
H   H922      1.0  0.00550  0.01540  0.06670  1.0000 0.1490140571
H   H923      1.0  0.94870  0.93880  0.93330  1.0000 0.1490140571
H   H924      1.0  0.18880  0.75550  0.49010  1.0000 0.1490140571
H   H925      1.0  0.98460  0.05130  0.99010  1.0000 0.1490140571
H   H926      1.0  0.24450  0.73460  0.43330  1.0000 0.1490140571
H   H927      1.0  0.30130  0.81120  0.56670  1.0000 0.1490140571
H   H928      1.0  0.06120  0.99450  0.00990  1.0000 0.1490140571
H   H929      1.0  0.32180  0.76050  0.53030  1.0000 0.1490140571
H   H930      1.0  0.04150  0.07180  0.06130  1.0000 0.1490140571
H   H931      1.0  0.01050  0.98020  0.93870  1.0000 0.1490140571
H   H932      1.0  0.23020  0.79150  0.46970  1.0000 0.1490140571
H   H933      1.0  0.92820  0.98950  0.96970  1.0000 0.1490140571
H   H934      1.0  0.20850  0.67820  0.43870  1.0000 0.1490140571
H   H935      1.0  0.23950  0.76980  0.56130  1.0000 0.1490140571
H   H936      1.0  0.01980  0.95850  0.03030  1.0000 0.1490140571
H   H937      1.0  0.34560  0.66400  0.58680  1.0000 0.1409316585
H   H938      1.0  0.00880  0.09560  0.18160  1.0000 0.1409316585
H   H939      1.0  0.91400  0.82720  0.81840  1.0000 0.1409316585
H   H940      1.0  0.07720  0.75880  0.41320  1.0000 0.1409316585
H   H941      1.0  0.90440  0.08600  0.91320  1.0000 0.1409316585
H   H942      1.0  0.24120  0.65440  0.31840  1.0000 0.1409316585
H   H943      1.0  0.33600  0.92280  0.68160  1.0000 0.1409316585
H   H944      1.0  0.17280  0.99120  0.08680  1.0000 0.1409316585
H   H945      1.0  0.39100  0.70940  0.57040  1.0000 0.1409316585
H   H946      1.0  0.07060  0.14100  0.18160  1.0000 0.1409316585
H   H947      1.0  0.95940  0.88900  0.81840  1.0000 0.1409316585
H   H948      1.0  0.13900  0.82060  0.42960  1.0000 0.1409316585
H   H949      1.0  0.85900  0.04060  0.92960  1.0000 0.1409316585
H   H950      1.0  0.17940  0.60900  0.31840  1.0000 0.1409316585
H   H951      1.0  0.29060  0.86100  0.68160  1.0000 0.1409316585
H   H952      1.0  0.11100  0.92940  0.07040  1.0000 0.1409316585
H   H953      1.0  0.33350  0.64750  0.55040  1.0000 0.1490140571
H   H954      1.0  0.03310  0.08350  0.18600  1.0000 0.1490140571
H   H955      1.0  0.89750  0.84710  0.81400  1.0000 0.1490140571
H   H956      1.0  0.09710  0.78310  0.44960  1.0000 0.1490140571
H   H957      1.0  0.91650  0.10250  0.94960  1.0000 0.1490140571
H   H958      1.0  0.21690  0.66650  0.31400  1.0000 0.1490140571
H   H959      1.0  0.35250  0.90290  0.68600  1.0000 0.1490140571
H   H960      1.0  0.15290  0.96690  0.05040  1.0000 0.1490140571
H   H961      1.0  0.29920  0.60500  0.64160  1.0000 0.1409316585
H   H962      1.0  0.90760  0.04920  0.19420  1.0000 0.1409316585
H   H963      1.0  0.85500  0.71340  0.80580  1.0000 0.1409316585
H   H964      1.0  0.96340  0.65760  0.35840  1.0000 0.1409316585
H   H965      1.0  0.95080  0.14500  0.85840  1.0000 0.1409316585
H   H966      1.0  0.34240  0.70080  0.30580  1.0000 0.1409316585
H   H967      1.0  0.39500  0.03660  0.69420  1.0000 0.1409316585
H   H968      1.0  0.28660  0.09240  0.14160  1.0000 0.1409316585
H   H969      1.0  0.26250  0.54710  0.64420  1.0000 0.1490140571
H   H970      1.0  0.86830  0.01250  0.21540  1.0000 0.1490140571
H   H971      1.0  0.79710  0.65290  0.78460  1.0000 0.1490140571
H   H972      1.0  0.90290  0.61830  0.35580  1.0000 0.1490140571
H   H973      1.0  0.98750  0.20290  0.85580  1.0000 0.1490140571
H   H974      1.0  0.38170  0.73750  0.28460  1.0000 0.1490140571
H   H975      1.0  0.45290  0.09710  0.71540  1.0000 0.1490140571
H   H976      1.0  0.34710  0.13170  0.14420  1.0000 0.1490140571
H   H977      1.0  0.30150  0.59650  0.67460  1.0000 0.1490140571
H   H978      1.0  0.87690  0.05150  0.20500  1.0000 0.1490140571
H   H979      1.0  0.84650  0.67190  0.79500  1.0000 0.1490140571
H   H980      1.0  0.92190  0.62690  0.32540  1.0000 0.1490140571
H   H981      1.0  0.94850  0.15350  0.82540  1.0000 0.1490140571
H   H982      1.0  0.37310  0.69850  0.29500  1.0000 0.1490140571
H   H983      1.0  0.40350  0.07810  0.70500  1.0000 0.1490140571
H   H984      1.0  0.32810  0.12310  0.17460  1.0000 0.1490140571
H   H985      1.0  0.10420  0.50910  0.66750  1.0000 0.1326892263
H   H986      1.0  0.68670  0.85420  0.09510  1.0000 0.1326892263
H   H987      1.0  0.75910  0.59160  0.90490  1.0000 0.1326892263
H   H988      1.0  0.84160  0.43670  0.33250  1.0000 0.1326892263
H   H989      1.0  0.14580  0.24090  0.83250  1.0000 0.1326892263
H   H990      1.0  0.56330  0.89580  0.40490  1.0000 0.1326892263
H   H991      1.0  0.49090  0.15840  0.59510  1.0000 0.1326892263
H   H992      1.0  0.40840  0.31330  0.16750  1.0000 0.1326892263
H   H993      1.0  0.12090  0.50460  0.69710  1.0000 0.1409316585
H   H994      1.0  0.67380  0.87090  0.11630  1.0000 0.1409316585
H   H995      1.0  0.75460  0.55750  0.88370  1.0000 0.1409316585
H   H996      1.0  0.80750  0.42380  0.30290  1.0000 0.1409316585
H   H997      1.0  0.12910  0.24540  0.80290  1.0000 0.1409316585
H   H998      1.0  0.57620  0.87910  0.38370  1.0000 0.1409316585
H   H999      1.0  0.49540  0.19250  0.61630  1.0000 0.1409316585
H   H1000     1.0  0.44250  0.32620  0.19710  1.0000 0.1409316585
H   H1001     1.0  0.08280  0.45800  0.66520  1.0000 0.1582630434
H   H1002     1.0  0.66760  0.83280  0.12480  1.0000 0.1582630434
H   H1003     1.0  0.70800  0.54280  0.87520  1.0000 0.1582630434
H   H1004     1.0  0.79280  0.41760  0.33480  1.0000 0.1582630434
H   H1005     1.0  0.16720  0.29200  0.83480  1.0000 0.1582630434
H   H1006     1.0  0.58240  0.91720  0.37520  1.0000 0.1582630434
H   H1007     1.0  0.54200  0.20720  0.62480  1.0000 0.1582630434
H   H1008     1.0  0.45720  0.33240  0.16520  1.0000 0.1582630434
H   H1009     1.0  0.72110  0.38050  0.43560  1.0000 0.1409316585
H   H1010     1.0  0.53550  0.47110  0.84060  1.0000 0.1409316585
H   H1011     1.0  0.63050  0.69490  0.15940  1.0000 0.1409316585
H   H1012     1.0  0.94490  0.28550  0.56440  1.0000 0.1409316585
H   H1013     1.0  0.52890  0.36950  0.06440  1.0000 0.1409316585
H   H1014     1.0  0.71450  0.27890  0.65940  1.0000 0.1409316585
H   H1015     1.0  0.61950  0.05510  0.34060  1.0000 0.1409316585
H   H1016     1.0  0.30510  0.46450  0.93560  1.0000 0.1409316585
H   H1017     1.0  0.66667  0.31940  0.43760  1.0000 0.1409316585
H   H1018     1.0  0.47900  0.41660  0.84720  1.0000 0.1409316585
H   H1019     1.0  0.56940  0.63180  0.15280  1.0000 0.1409316585
H   H1020     1.0  0.88180  0.22900  0.56240  1.0000 0.1409316585
H   H1021     1.0  0.58340  0.43060  0.06240  1.0000 0.1409316585
H   H1022     1.0  0.77100  0.33340  0.65280  1.0000 0.1409316585
H   H1023     1.0  0.68060  0.11820  0.34720  1.0000 0.1409316585
H   H1024     1.0  0.36820  0.52100  0.93760  1.0000 0.1409316585
H   H1025     1.0  0.69300  0.33080  0.41060  1.0000 0.1490140571
H   H1026     1.0  0.53240  0.44300  0.86220  1.0000 0.1490140571
H   H1027     1.0  0.58080  0.67020  0.13780  1.0000 0.1490140571
H   H1028     1.0  0.92020  0.28240  0.58940  1.0000 0.1490140571
H   H1029     1.0  0.55700  0.41920  0.08940  1.0000 0.1490140571
H   H1030     1.0  0.71760  0.30700  0.63780  1.0000 0.1490140571
H   H1031     1.0  0.66920  0.07980  0.36220  1.0000 0.1490140571
H   H1032     1.0  0.32980  0.46760  0.91060  1.0000 0.1490140571
H   H1033     1.0  0.81570  0.34970  0.50220  1.0000 0.1490140571
H   H1034     1.0  0.56350  0.56570  0.96600  1.0000 0.1490140571
H   H1035     1.0  0.59970  0.59750  0.03400  1.0000 0.1490140571
H   H1036     1.0  0.84750  0.31350  0.49780  1.0000 0.1490140571
H   H1037     1.0  0.43430  0.40030  0.99780  1.0000 0.1490140571
H   H1038     1.0  0.68650  0.18430  0.53400  1.0000 0.1490140571
H   H1039     1.0  0.65030  0.15250  0.46600  1.0000 0.1490140571
H   H1040     1.0  0.40250  0.43650  0.00220  1.0000 0.1490140571
H   H1041     1.0  0.77690  0.30220  0.47070  1.0000 0.1490140571
H   H1042     1.0  0.55620  0.52690  0.97470  1.0000 0.1490140571
H   H1043     1.0  0.55220  0.58150  0.02530  1.0000 0.1490140571
H   H1044     1.0  0.83150  0.30620  0.52930  1.0000 0.1490140571
H   H1045     1.0  0.47310  0.44780  0.02930  1.0000 0.1490140571
H   H1046     1.0  0.69380  0.22310  0.52530  1.0000 0.1490140571
H   H1047     1.0  0.69780  0.16850  0.47470  1.0000 0.1490140571
H   H1048     1.0  0.41850  0.44380  0.97070  1.0000 0.1490140571
H   H1049     1.0  0.75210  0.29190  0.49840  1.0000 0.1490140571
H   H1050     1.0  0.50370  0.50210  0.96020  1.0000 0.1490140571
H   H1051     1.0  0.54190  0.54350  0.03980  1.0000 0.1490140571
H   H1052     1.0  0.79350  0.25370  0.50160  1.0000 0.1490140571
H   H1053     1.0  0.49790  0.45810  0.00160  1.0000 0.1490140571
H   H1054     1.0  0.74630  0.24790  0.53980  1.0000 0.1490140571
H   H1055     1.0  0.70810  0.20650  0.46020  1.0000 0.1490140571
H   H1056     1.0  0.45650  0.49630  0.99840  1.0000 0.1490140571
H   H1057     1.0  0.91700  0.43490  0.54350  1.0000 0.1409316585
H   H1058     1.0  0.62350  0.66700  0.98210  1.0000 0.1409316585
H   H1059     1.0  0.68490  0.64140  0.01790  1.0000 0.1409316585
H   H1060     1.0  0.89140  0.37350  0.45650  1.0000 0.1409316585
H   H1061     1.0  0.33300  0.31510  0.95650  1.0000 0.1409316585
H   H1062     1.0  0.62650  0.08300  0.51790  1.0000 0.1409316585
H   H1063     1.0  0.56510  0.10860  0.48210  1.0000 0.1409316585
H   H1064     1.0  0.35860  0.37650  0.04350  1.0000 0.1409316585
H   H1065     1.0  0.95770  0.46030  0.57520  1.0000 0.1490140571
H   H1066     1.0  0.63250  0.70770  0.99740  1.0000 0.1490140571
H   H1067     1.0  0.71030  0.63510  0.00260  1.0000 0.1490140571
H   H1068     1.0  0.88510  0.38250  0.42480  1.0000 0.1490140571
H   H1069     1.0  0.29230  0.28970  0.92480  1.0000 0.1490140571
H   H1070     1.0  0.61750  0.04230  0.50260  1.0000 0.1490140571
H   H1071     1.0  0.53970  0.11490  0.49740  1.0000 0.1490140571
H   H1072     1.0  0.36490  0.36750  0.07520  1.0000 0.1490140571
H   H1073     1.0  0.97390  0.46730  0.54380  1.0000 0.1582630434
H   H1074     1.0  0.68010  0.72390  0.00660  1.0000 0.1582630434
H   H1075     1.0  0.71730  0.67350  0.99340  1.0000 0.1582630434
H   H1076     1.0  0.92350  0.43010  0.45620  1.0000 0.1582630434
H   H1077     1.0  0.27610  0.28270  0.95620  1.0000 0.1582630434
H   H1078     1.0  0.56990  0.02610  0.49340  1.0000 0.1582630434
H   H1079     1.0  0.53270  0.07650  0.50660  1.0000 0.1582630434
H   H1080     1.0  0.32650  0.31990  0.04380  1.0000 0.1582630434
H   H1081     1.0  0.07080  0.67120  0.57500  1.0000 0.1490140571
H   H1082     1.0  0.74580  0.82080  0.89960  1.0000 0.1490140571
H   H1083     1.0  0.92120  0.84620  0.10040  1.0000 0.1490140571
H   H1084     1.0  0.09620  0.49580  0.42500  1.0000 0.1490140571
H   H1085     1.0  0.17920  0.07880  0.92500  1.0000 0.1490140571
H   H1086     1.0  0.50420  0.92920  0.60040  1.0000 0.1490140571
H   H1087     1.0  0.32880  0.90380  0.39960  1.0000 0.1490140571
H   H1088     1.0  0.15380  0.25420  0.07500  1.0000 0.1490140571
H   H1089     1.0  0.11430  0.68200  0.57510  1.0000 0.1490140571
H   H1090     1.0  0.78920  0.86430  0.93230  1.0000 0.1490140571
H   H1091     1.0  0.93200  0.85690  0.06770  1.0000 0.1490140571
H   H1092     1.0  0.10690  0.53920  0.42490  1.0000 0.1490140571
H   H1093     1.0  0.13570  0.06800  0.92490  1.0000 0.1490140571
H   H1094     1.0  0.46080  0.88570  0.56770  1.0000 0.1490140571
H   H1095     1.0  0.31800  0.89310  0.43230  1.0000 0.1490140571
H   H1096     1.0  0.14310  0.21080  0.07510  1.0000 0.1490140571
H   H1097     1.0  0.09410  0.67350  0.60500  1.0000 0.1490140571
H   H1098     1.0  0.73910  0.84410  0.92060  1.0000 0.1490140571
H   H1099     1.0  0.92350  0.81850  0.07940  1.0000 0.1490140571
H   H1100     1.0  0.06850  0.48910  0.39500  1.0000 0.1490140571
H   H1101     1.0  0.15590  0.07650  0.89500  1.0000 0.1490140571
H   H1102     1.0  0.51090  0.90590  0.57940  1.0000 0.1490140571
H   H1103     1.0  0.32650  0.93150  0.42060  1.0000 0.1490140571
H   H1104     1.0  0.18150  0.26090  0.10500  1.0000 0.1490140571
H   H1105     1.0  0.03130  0.69760  0.53610  1.0000 0.1409316585
H   H1106     1.0  0.74520  0.78130  0.83370  1.0000 0.1409316585
H   H1107     1.0  0.94760  0.91150  0.16630  1.0000 0.1409316585
H   H1108     1.0  0.16150  0.49520  0.46390  1.0000 0.1409316585
H   H1109     1.0  0.21870  0.05240  0.96390  1.0000 0.1409316585
H   H1110     1.0  0.50480  0.96870  0.66630  1.0000 0.1409316585
H   H1111     1.0  0.30240  0.83850  0.33370  1.0000 0.1409316585
H   H1112     1.0  0.08850  0.25480  0.03610  1.0000 0.1409316585
H   H1113     1.0  0.01630  0.71890  0.54160  1.0000 0.1409316585
H   H1114     1.0  0.72470  0.76630  0.79740  1.0000 0.1409316585
H   H1115     1.0  0.96890  0.92730  0.20260  1.0000 0.1409316585
H   H1116     1.0  0.17730  0.47470  0.45840  1.0000 0.1490140571
H   H1117     1.0  0.23370  0.03110  0.95840  1.0000 0.1409316585
H   H1118     1.0  0.52530  0.98370  0.70260  1.0000 0.1409316585
H   H1119     1.0  0.28110  0.82270  0.29740  1.0000 0.1490140571
H   H1120     1.0  0.07270  0.27530  0.04160  1.0000 0.1490140571
H   H1121     1.0  0.03160  0.72030  0.51090  1.0000 0.1582630434
H   H1122     1.0  0.77070  0.78160  0.81130  1.0000 0.1582630434
H   H1123     1.0  0.97030  0.95940  0.18870  1.0000 0.1582630434
H   H1124     1.0  0.20940  0.52070  0.48910  1.0000 0.1582630434
H   H1125     1.0  0.21840  0.02970  0.98910  1.0000 0.1582630434
H   H1126     1.0  0.47930  0.96840  0.68870  1.0000 0.1582630434
H   H1127     1.0  0.27970  0.79060  0.31130  1.0000 0.1582630434
H   H1128     1.0  0.04060  0.22930  0.01090  1.0000 0.1582630434
H   H1129     1.0  0.79190  0.49330  0.45800  1.0000 0.1409316585
H   H1130     1.0  0.58390  0.54190  0.79860  1.0000 0.1409316585
H   H1131     1.0  0.74330  0.78530  0.20140  1.0000 0.1409316585
H   H1132     1.0  0.03530  0.33390  0.54200  1.0000 0.1409316585
H   H1133     1.0  0.45810  0.25670  0.04200  1.0000 0.1409316585
H   H1134     1.0  0.66610  0.20810  0.70140  1.0000 0.1409316585
H   H1135     1.0  0.50670  0.96470  0.29860  1.0000 0.1409316585
H   H1136     1.0  0.21470  0.41610  0.95800  1.0000 0.1409316585
H   H1137     1.0  0.81570  0.53760  0.44190  1.0000 0.1490140571
H   H1138     1.0  0.62380  0.56570  0.77810  1.0000 0.1490140571
H   H1139     1.0  0.78760  0.84570  0.22190  1.0000 0.1490140571
H   H1140     1.0  0.09570  0.37380  0.55810  1.0000 0.1490140571
H   H1141     1.0  0.43430  0.21240  0.05810  1.0000 0.1490140571
H   H1142     1.0  0.62620  0.18430  0.72190  1.0000 0.1490140571
H   H1143     1.0  0.46240  0.90430  0.27810  1.0000 0.1490140571
H   H1144     1.0  0.15430  0.37620  0.94190  1.0000 0.1490140571
H   H1145     1.0  0.79590  0.53020  0.47170  1.0000 0.1409316585
H   H1146     1.0  0.57420  0.54590  0.76570  1.0000 0.1409316585
H   H1147     1.0  0.78020  0.80850  0.23430  1.0000 0.1409316585
H   H1148     1.0  0.05850  0.32420  0.52830  1.0000 0.1409316585
H   H1149     1.0  0.45410  0.21980  0.02830  1.0000 0.1409316585
H   H1150     1.0  0.67580  0.20410  0.73430  1.0000 0.1409316585
H   H1151     1.0  0.46980  0.94150  0.26570  1.0000 0.1409316585
H   H1152     1.0  0.19150  0.42580  0.97170  1.0000 0.1409316585
H   H1153     1.0  0.42410  0.96990  0.25940  1.0000 0.1409316585
H   H1154     1.0  0.41470  0.17410  0.95420  1.0000 0.1409316585
H   H1155     1.0  0.21990  0.46050  0.04580  1.0000 0.1409316585
H   H1156     1.0  0.71050  0.16470  0.74060  1.0000 0.1409316585
H   H1157     1.0  0.82590  0.78010  0.24060  1.0000 0.1409316585
H   H1158     1.0  0.83530  0.57590  0.54580  1.0000 0.1409316585
H   H1159     1.0  0.03010  0.28950  0.45420  1.0000 0.1409316585
H   H1160     1.0  0.53950  0.58530  0.75940  1.0000 0.1409316585
H   H1161     1.0  0.45270  0.00380  0.23470  1.0000 0.1582630434
H   H1162     1.0  0.46800  0.20270  0.94890  1.0000 0.1582630434
H   H1163     1.0  0.25380  0.51910  0.05110  1.0000 0.1582630434
H   H1164     1.0  0.76910  0.21800  0.76530  1.0000 0.1582630434
H   H1165     1.0  0.79730  0.74620  0.26530  1.0000 0.1582630434
H   H1166     1.0  0.78200  0.54730  0.55110  1.0000 0.1582630434
H   H1167     1.0  0.99620  0.23090  0.44890  1.0000 0.1582630434
H   H1168     1.0  0.48090  0.53200  0.73470  1.0000 0.1582630434
H   H1169     1.0  0.44360  0.96190  0.23730  1.0000 0.1409316585
H   H1170     1.0  0.45630  0.19360  0.98170  1.0000 0.1409316585
H   H1171     1.0  0.21190  0.47460  0.01830  1.0000 0.1409316585
H   H1172     1.0  0.72460  0.20630  0.76270  1.0000 0.1409316585
H   H1173     1.0  0.80640  0.78810  0.26270  1.0000 0.1409316585
H   H1174     1.0  0.79370  0.55640  0.51830  1.0000 0.1409316585
H   H1175     1.0  0.03810  0.27540  0.48170  1.0000 0.1409316585
H   H1176     1.0  0.52540  0.54370  0.73730  1.0000 0.1409316585
H   H1177     1.0  0.66860  0.16400  0.32800  1.0000 0.1409316585
H   H1178     1.0  0.59060  0.41860  0.00460  1.0000 0.1409316585
H   H1179     1.0  0.41400  0.58600  0.99540  1.0000 0.1409316585
H   H1180     1.0  0.83600  0.34060  0.67200  1.0000 0.1409316585
H   H1181     1.0  0.58140  0.58600  0.17200  1.0000 0.1409316585
H   H1182     1.0  0.65940  0.33140  0.49540  1.0000 0.1409316585
H   H1183     1.0  0.83600  0.16400  0.50460  1.0000 0.1409316585
H   H1184     1.0  0.41400  0.40940  0.82800  1.0000 0.1409316585
H   H1185     1.0  0.66360  0.13730  0.29830  1.0000 0.1490140571
H   H1186     1.0  0.61530  0.41360  0.02630  1.0000 0.1490140571
H   H1187     1.0  0.38730  0.58900  0.97370  1.0000 0.1490140571
H   H1188     1.0  0.83900  0.36530  0.70170  1.0000 0.1490140571
H   H1189     1.0  0.58640  0.61270  0.20170  1.0000 0.1490140571
H   H1190     1.0  0.63470  0.33640  0.47370  1.0000 0.1490140571
H   H1191     1.0  0.86270  0.16100  0.52630  1.0000 0.1490140571
H   H1192     1.0  0.41100  0.38470  0.79830  1.0000 0.1490140571
H   H1193     1.0  0.67130  0.17830  0.29660  1.0000 0.1409316585
H   H1194     1.0  0.62470  0.42130  0.99300  1.0000 0.1409316585
H   H1195     1.0  0.42830  0.63170  0.00700  1.0000 0.1409316585
H   H1196     1.0  0.88170  0.37470  0.70340  1.0000 0.1409316585
H   H1197     1.0  0.57870  0.57170  0.20340  1.0000 0.1409316585
H   H1198     1.0  0.62530  0.32870  0.50700  1.0000 0.1409316585
H   H1199     1.0  0.82170  0.11830  0.49300  1.0000 0.1409316585
H   H1200     1.0  0.36830  0.37530  0.79660  1.0000 0.1409316585
H   H1201     1.0  0.70340  0.22420  0.39080  1.0000 0.1409316585
H   H1202     1.0  0.56260  0.45340  0.97920  1.0000 0.1409316585
H   H1203     1.0  0.47420  0.58340  0.02080  1.0000 0.1409316585
H   H1204     1.0  0.83340  0.31260  0.60920  1.0000 0.1409316585
H   H1205     1.0  0.54660  0.52580  0.10920  1.0000 0.1409316585
H   H1206     1.0  0.68740  0.29660  0.52080  1.0000 0.1409316585
H   H1207     1.0  0.77580  0.16660  0.47920  1.0000 0.1409316585
H   H1208     1.0  0.41660  0.43740  0.89080  1.0000 0.1409316585
H   H1209     1.0  0.73600  0.28210  0.39830  1.0000 0.1582630434
H   H1210     1.0  0.58770  0.48600  0.95390  1.0000 0.1582630434
H   H1211     1.0  0.53210  0.63380  0.04610  1.0000 0.1582630434
H   H1212     1.0  0.88380  0.33770  0.60170  1.0000 0.1582630434
H   H1213     1.0  0.51400  0.46790  0.10170  1.0000 0.1582630434
H   H1214     1.0  0.66230  0.26400  0.54610  1.0000 0.1582630434
H   H1215     1.0  0.71790  0.11620  0.45390  1.0000 0.1582630434
H   H1216     1.0  0.36620  0.41230  0.89830  1.0000 0.1582630434
H   H1217     1.0  0.74340  0.26600  0.42440  1.0000 0.1409316585
H   H1218     1.0  0.56900  0.49340  0.97740  1.0000 0.1409316585
H   H1219     1.0  0.51600  0.59160  0.02260  1.0000 0.1409316585
H   H1220     1.0  0.84160  0.31900  0.57560  1.0000 0.1409316585
H   H1221     1.0  0.50660  0.48400  0.07560  1.0000 0.1409316585
H   H1222     1.0  0.68100  0.25660  0.52260  1.0000 0.1409316585
H   H1223     1.0  0.73400  0.15840  0.47740  1.0000 0.1409316585
H   H1224     1.0  0.40840  0.43100  0.92440  1.0000 0.1409316585
H   H1225     1.0  0.55370  0.17660  0.44810  1.0000 0.1409316585
H   H1226     1.0  0.35560  0.30370  0.87710  1.0000 0.1409316585
H   H1227     1.0  0.42660  0.47850  0.12290  1.0000 0.1409316585
H   H1228     1.0  0.72850  0.10560  0.55190  1.0000 0.1409316585
H   H1229     1.0  0.69630  0.57340  0.05190  1.0000 0.1409316585
H   H1230     1.0  0.89440  0.44630  0.62290  1.0000 0.1409316585
H   H1231     1.0  0.82340  0.27150  0.37710  1.0000 0.1409316585
H   H1232     1.0  0.52150  0.64440  0.94810  1.0000 0.1409316585
H   H1233     1.0  0.60840  0.22340  0.47600  1.0000 0.1490140571
H   H1234     1.0  0.38240  0.35840  0.88500  1.0000 0.1490140571
H   H1235     1.0  0.47340  0.49740  0.11500  1.0000 0.1490140571
H   H1236     1.0  0.74740  0.13240  0.52400  1.0000 0.1490140571
H   H1237     1.0  0.64160  0.52660  0.02400  1.0000 0.1490140571
H   H1238     1.0  0.86760  0.39160  0.61500  1.0000 0.1490140571
H   H1239     1.0  0.77660  0.25260  0.38500  1.0000 0.1490140571
H   H1240     1.0  0.50260  0.61760  0.97600  1.0000 0.1490140571
H   H1241     1.0  0.60160  0.23940  0.44920  1.0000 0.1490140571
H   H1242     1.0  0.40240  0.35160  0.86220  1.0000 0.1490140571
H   H1243     1.0  0.48940  0.54020  0.13780  1.0000 0.1490140571
H   H1244     1.0  0.79020  0.15240  0.55080  1.0000 0.1490140571
H   H1245     1.0  0.64840  0.51060  0.05080  1.0000 0.1490140571
H   H1246     1.0  0.84760  0.39840  0.63780  1.0000 0.1490140571
H   H1247     1.0  0.76060  0.20980  0.36220  1.0000 0.1490140571
H   H1248     1.0  0.45980  0.59760  0.94920  1.0000 0.1490140571
H   H1249     1.0  0.42720  0.07500  0.40920  1.0000 0.1409316585
H   H1250     1.0  0.26800  0.17720  0.85220  1.0000 0.1409316585
H   H1251     1.0  0.32500  0.41580  0.14780  1.0000 0.1409316585
H   H1252     1.0  0.66580  0.01800  0.59080  1.0000 0.1409316585
H   H1253     1.0  0.82280  0.67500  0.09080  1.0000 0.1409316585
H   H1254     1.0  0.98200  0.57280  0.64780  1.0000 0.1409316585
H   H1255     1.0  0.92500  0.33420  0.35220  1.0000 0.1409316585
H   H1256     1.0  0.58420  0.73200  0.90920  1.0000 0.1409316585
H   H1257     1.0  0.39790  0.07280  0.38450  1.0000 0.1582630434
H   H1258     1.0  0.26340  0.14790  0.82510  1.0000 0.1582630434
H   H1259     1.0  0.32280  0.43830  0.17490  1.0000 0.1582630434
H   H1260     1.0  0.68830  0.01340  0.61550  1.0000 0.1582630434
H   H1261     1.0  0.85210  0.67720  0.11550  1.0000 0.1582630434
H   H1262     1.0  0.98660  0.60210  0.67490  1.0000 0.1582630434
H   H1263     1.0  0.92720  0.31170  0.32510  1.0000 0.1582630434
H   H1264     1.0  0.56170  0.73660  0.88450  1.0000 0.1582630434
H   H1265     1.0  0.36260  0.02500  0.40080  1.0000 0.1409316585
H   H1266     1.0  0.21180  0.11260  0.83760  1.0000 0.1409316585
H   H1267     1.0  0.27500  0.37420  0.16240  1.0000 0.1409316585
H   H1268     1.0  0.62420  0.96180  0.59920  1.0000 0.1409316585
H   H1269     1.0  0.88740  0.72500  0.09920  1.0000 0.1409316585
H   H1270     1.0  0.03820  0.63740  0.66240  1.0000 0.1409316585
H   H1271     1.0  0.97500  0.37580  0.33760  1.0000 0.1409316585
H   H1272     1.0  0.62580  0.78820  0.90080  1.0000 0.1409316585
H   H1273     1.0  0.35150  0.92780  0.29170  1.0000 0.1409316585
H   H1274     1.0  0.30980  0.10150  0.92370  1.0000 0.1409316585
H   H1275     1.0  0.17780  0.38610  0.07630  1.0000 0.1409316585
H   H1276     1.0  0.63610  0.05980  0.70830  1.0000 0.1409316585
H   H1277     1.0  0.89850  0.82220  0.20830  1.0000 0.1409316585
H   H1278     1.0  0.94020  0.64850  0.57630  1.0000 0.1409316585
H   H1279     1.0  0.07220  0.36390  0.42370  1.0000 0.1409316585
H   H1280     1.0  0.61390  0.69020  0.79170  1.0000 0.1409316585
H   H1281     1.0  0.29460  0.89200  0.29600  1.0000 0.1490140571
H   H1282     1.0  0.24860  0.04460  0.90260  1.0000 0.1490140571
H   H1283     1.0  0.14200  0.34600  0.09740  1.0000 0.1490140571
H   H1284     1.0  0.59600  0.99860  0.70400  1.0000 0.1490140571
H   H1285     1.0  0.95540  0.85800  0.20400  1.0000 0.1490140571
H   H1286     1.0  0.00140  0.70540  0.59740  1.0000 0.1490140571
H   H1287     1.0  0.10800  0.40400  0.40260  1.0000 0.1490140571
H   H1288     1.0  0.65400  0.75140  0.79600  1.0000 0.1490140571
H   H1289     1.0  0.32790  0.93880  0.27910  1.0000 0.1409316585
H   H1290     1.0  0.29880  0.07790  0.88910  1.0000 0.1409316585
H   H1291     1.0  0.18880  0.40970  0.11090  1.0000 0.1409316585
H   H1292     1.0  0.65970  0.04880  0.72090  1.0000 0.1409316585
H   H1293     1.0  0.92210  0.81120  0.22090  1.0000 0.1409316585
H   H1294     1.0  0.95120  0.67210  0.61090  1.0000 0.1409316585
H   H1295     1.0  0.06120  0.34030  0.38910  1.0000 0.1409316585
H   H1296     1.0  0.59030  0.70120  0.77910  1.0000 0.1409316585
H   H1297     1.0  0.16490  0.49800  0.75630  1.0000 0.1409316585
H   H1298     1.0  0.65860  0.91490  0.16690  1.0000 0.1409316585
H   H1299     1.0  0.74800  0.49170  0.83310  1.0000 0.1409316585
H   H1300     1.0  0.74170  0.40860  0.24370  1.0000 0.1409316585
H   H1301     1.0  0.08510  0.25200  0.74370  1.0000 0.1409316585
H   H1302     1.0  0.59140  0.83510  0.33310  1.0000 0.1409316585
H   H1303     1.0  0.50200  0.25830  0.66690  1.0000 0.1409316585
H   H1304     1.0  0.50830  0.34140  0.25630  1.0000 0.1409316585
H   H1305     1.0  0.21410  0.55180  0.74570  1.0000 0.1409316585
H   H1306     1.0  0.71840  0.96410  0.16230  1.0000 0.1409316585
H   H1307     1.0  0.80180  0.55610  0.83770  1.0000 0.1409316585
H   H1308     1.0  0.80610  0.46840  0.25430  1.0000 0.1409316585
H   H1309     1.0  0.03590  0.19820  0.75430  1.0000 0.1409316585
H   H1310     1.0  0.53160  0.78590  0.33770  1.0000 0.1409316585
H   H1311     1.0  0.44820  0.19390  0.66230  1.0000 0.1409316585
H   H1312     1.0  0.44390  0.28160  0.24570  1.0000 0.1409316585
H   H1313     1.0  0.15300  0.51120  0.73060  1.0000 0.1490140571
H   H1314     1.0  0.67240  0.90300  0.14180  1.0000 0.1490140571
H   H1315     1.0  0.76120  0.53060  0.85820  1.0000 0.1490140571
H   H1316     1.0  0.78060  0.42240  0.26940  1.0000 0.1490140571
H   H1317     1.0  0.09700  0.23880  0.76940  1.0000 0.1490140571
H   H1318     1.0  0.57760  0.84700  0.35820  1.0000 0.1490140571
H   H1319     1.0  0.48880  0.21940  0.64180  1.0000 0.1490140571
H   H1320     1.0  0.46940  0.32760  0.23060  1.0000 0.1490140571
H   H1321     1.0  0.15480  0.40620  0.64120  1.0000 0.1409316585
H   H1322     1.0  0.76360  0.90480  0.24860  1.0000 0.1409316585
H   H1323     1.0  0.65620  0.51500  0.75140  1.0000 0.1409316585
H   H1324     1.0  0.76500  0.51360  0.35880  1.0000 0.1409316585
H   H1325     1.0  0.09520  0.34380  0.85880  1.0000 0.1409316585
H   H1326     1.0  0.48640  0.84520  0.25140  1.0000 0.1409316585
H   H1327     1.0  0.59380  0.23500  0.74860  1.0000 0.1409316585
H   H1328     1.0  0.48500  0.23640  0.14120  1.0000 0.1409316585
H   H1329     1.0  0.14320  0.42730  0.62630  1.0000 0.1582630434
H   H1330     1.0  0.76690  0.89320  0.21590  1.0000 0.1582630434
H   H1331     1.0  0.67730  0.55100  0.78410  1.0000 0.1582630434
H   H1332     1.0  0.80100  0.51690  0.37370  1.0000 0.1582630434
H   H1333     1.0  0.10680  0.32270  0.87370  1.0000 0.1582630434
H   H1334     1.0  0.48310  0.85680  0.28410  1.0000 0.1582630434
H   H1335     1.0  0.57270  0.19900  0.71590  1.0000 0.1582630434
H   H1336     1.0  0.44900  0.23310  0.12630  1.0000 0.1582630434
H   H1337     1.0  0.20450  0.46870  0.64120  1.0000 0.1409316585
H   H1338     1.0  0.81330  0.95450  0.23580  1.0000 0.1409316585
H   H1339     1.0  0.71870  0.57750  0.76420  1.0000 0.1409316585
H   H1340     1.0  0.82750  0.56330  0.35880  1.0000 0.1409316585
H   H1341     1.0  0.04550  0.28130  0.85880  1.0000 0.1409316585
H   H1342     1.0  0.43670  0.79550  0.26420  1.0000 0.1409316585
H   H1343     1.0  0.53130  0.17250  0.73580  1.0000 0.1409316585
H   H1344     1.0  0.42250  0.18670  0.14120  1.0000 0.1409316585
H   H1345     1.0  0.08210  0.29100  0.62630  1.0000 0.1409316585
H   H1346     1.0  0.70580  0.83210  0.29110  1.0000 0.1409316585
H   H1347     1.0  0.54100  0.41470  0.70890  1.0000 0.1409316585
H   H1348     1.0  0.66470  0.45580  0.37370  1.0000 0.1409316585
H   H1349     1.0  0.16790  0.45900  0.87370  1.0000 0.1409316585
H   H1350     1.0  0.54420  0.91790  0.20890  1.0000 0.1409316585
H   H1351     1.0  0.70900  0.33530  0.79110  1.0000 0.1409316585
H   H1352     1.0  0.58530  0.29420  0.12630  1.0000 0.1409316585
H   H1353     1.0  0.06450  0.24280  0.61510  1.0000 0.1490140571
H   H1354     1.0  0.69940  0.81450  0.32170  1.0000 0.1490140571
H   H1355     1.0  0.49280  0.37770  0.67830  1.0000 0.1490140571
H   H1356     1.0  0.62770  0.44940  0.38490  1.0000 0.1490140571
H   H1357     1.0  0.18550  0.50720  0.88490  1.0000 0.1490140571
H   H1358     1.0  0.55060  0.93550  0.17830  1.0000 0.1490140571
H   H1359     1.0  0.75720  0.37230  0.82170  1.0000 0.1490140571
H   H1360     1.0  0.62230  0.30060  0.11510  1.0000 0.1490140571
H   H1361     1.0  0.02350  0.23440  0.60290  1.0000 0.1490140571
H   H1362     1.0  0.67060  0.77350  0.28910  1.0000 0.1490140571
H   H1363     1.0  0.48440  0.38150  0.71090  1.0000 0.1490140571
H   H1364     1.0  0.63150  0.42060  0.39710  1.0000 0.1490140571
H   H1365     1.0  0.22650  0.51560  0.89710  1.0000 0.1490140571
H   H1366     1.0  0.57940  0.97650  0.21090  1.0000 0.1490140571
H   H1367     1.0  0.76560  0.36850  0.78910  1.0000 0.1490140571
H   H1368     1.0  0.61850  0.32940  0.10290  1.0000 0.1490140571
H   H1369     1.0  0.94710  0.15030  0.71420  1.0000 0.1409316585
H   H1370     1.0  0.48290  0.69710  0.29680  1.0000 0.1409316585
H   H1371     1.0  0.40030  0.18610  0.70320  1.0000 0.1409316585
H   H1372     1.0  0.43610  0.23290  0.28580  1.0000 0.1409316585
H   H1373     1.0  0.30290  0.59970  0.78580  1.0000 0.1409316585
H   H1374     1.0  0.76710  0.05290  0.20320  1.0000 0.1409316585
H   H1375     1.0  0.84970  0.56390  0.79680  1.0000 0.1409316585
H   H1376     1.0  0.81390  0.51710  0.21420  1.0000 0.1409316585
H   H1377     1.0  0.90250  0.10870  0.68140  1.0000 0.1582630434
H   H1378     1.0  0.47110  0.65250  0.29380  1.0000 0.1582630434
H   H1379     1.0  0.35870  0.17730  0.70620  1.0000 0.1582630434
H   H1380     1.0  0.42730  0.22110  0.31860  1.0000 0.1582630434
H   H1381     1.0  0.34750  0.64130  0.81860  1.0000 0.1582630434
H   H1382     1.0  0.77890  0.09750  0.20620  1.0000 0.1582630434
H   H1383     1.0  0.89130  0.57270  0.79380  1.0000 0.1582630434
H   H1384     1.0  0.82270  0.52890  0.18140  1.0000 0.1582630434
H   H1385     1.0  0.94240  0.11570  0.69370  1.0000 0.1409316585
H   H1386     1.0  0.49870  0.69240  0.32670  1.0000 0.1409316585
H   H1387     1.0  0.36570  0.17200  0.67330  1.0000 0.1409316585
H   H1388     1.0  0.42200  0.24870  0.30630  1.0000 0.1409316585
H   H1389     1.0  0.30760  0.63430  0.80630  1.0000 0.1409316585
H   H1390     1.0  0.75130  0.05760  0.17330  1.0000 0.1409316585
H   H1391     1.0  0.88430  0.57800  0.82670  1.0000 0.1409316585
H   H1392     1.0  0.82800  0.50130  0.19370  1.0000 0.1409316585
H   H1393     1.0  0.93630  0.19030  0.76440  1.0000 0.1409316585
H   H1394     1.0  0.42190  0.68630  0.24600  1.0000 0.1409316585
H   H1395     1.0  0.44030  0.17590  0.75400  1.0000 0.1409316585
H   H1396     1.0  0.42590  0.17190  0.23560  1.0000 0.1409316585
H   H1397     1.0  0.31370  0.55970  0.73560  1.0000 0.1409316585
H   H1398     1.0  0.82810  0.06370  0.25400  1.0000 0.1409316585
H   H1399     1.0  0.80970  0.57410  0.74600  1.0000 0.1409316585
H   H1400     1.0  0.82410  0.57810  0.26440  1.0000 0.1409316585
H   H1401     1.0  0.94550  0.20600  0.80050  1.0000 0.1490140571
H   H1402     1.0  0.39500  0.69550  0.23950  1.0000 0.1490140571
H   H1403     1.0  0.45600  0.15550  0.76050  1.0000 0.1490140571
H   H1404     1.0  0.40550  0.14500  0.19950  1.0000 0.1490140571
H   H1405     1.0  0.30450  0.54400  0.69950  1.0000 0.1490140571
H   H1406     1.0  0.85500  0.05450  0.26050  1.0000 0.1490140571
H   H1407     1.0  0.79400  0.59450  0.73950  1.0000 0.1490140571
H   H1408     1.0  0.84450  0.60500  0.30050  1.0000 0.1490140571
H   H1409     1.0  0.89850  0.18260  0.77610  1.0000 0.1490140571
H   H1410     1.0  0.37240  0.64850  0.21590  1.0000 0.1490140571
H   H1411     1.0  0.43260  0.15650  0.78410  1.0000 0.1490140571
H   H1412     1.0  0.40650  0.12240  0.22390  1.0000 0.1490140571
H   H1413     1.0  0.35150  0.56740  0.72390  1.0000 0.1490140571
H   H1414     1.0  0.87760  0.10150  0.28410  1.0000 0.1490140571
H   H1415     1.0  0.81740  0.59350  0.71590  1.0000 0.1490140571
H   H1416     1.0  0.84350  0.62760  0.27610  1.0000 0.1490140571
H   H1417     1.0  0.08630  0.42440  0.78830  1.0000 0.1409316585
H   H1418     1.0  0.54800  0.83630  0.16190  1.0000 0.1409316585
H   H1419     1.0  0.67440  0.38610  0.83810  1.0000 0.1409316585
H   H1420     1.0  0.63610  0.29800  0.21170  1.0000 0.1409316585
H   H1421     1.0  0.16370  0.32560  0.71170  1.0000 0.1409316585
H   H1422     1.0  0.70200  0.91370  0.33810  1.0000 0.1409316585
H   H1423     1.0  0.57560  0.36390  0.66190  1.0000 0.1409316585
H   H1424     1.0  0.61390  0.45200  0.28830  1.0000 0.1409316585
H   H1425     1.0  0.03240  0.39390  0.79410  1.0000 0.1582630434
H   H1426     1.0  0.48830  0.78240  0.13850  1.0000 0.1582630434
H   H1427     1.0  0.64390  0.34980  0.86150  1.0000 0.1582630434
H   H1428     1.0  0.59980  0.23830  0.20590  1.0000 0.1582630434
H   H1429     1.0  0.21760  0.35610  0.70590  1.0000 0.1582630434
H   H1430     1.0  0.76170  0.96760  0.36150  1.0000 0.1582630434
H   H1431     1.0  0.60610  0.40020  0.63850  1.0000 0.1582630434
H   H1432     1.0  0.65020  0.51170  0.29410  1.0000 0.1582630434
H   H1433     1.0  0.07600  0.41570  0.82130  1.0000 0.1409316585
H   H1434     1.0  0.50470  0.82600  0.16030  1.0000 0.1409316585
H   H1435     1.0  0.66570  0.34440  0.83970  1.0000 0.1409316585
H   H1436     1.0  0.59440  0.25470  0.17870  1.0000 0.1409316585
H   H1437     1.0  0.17400  0.33430  0.67870  1.0000 0.1409316585
H   H1438     1.0  0.74530  0.92400  0.33970  1.0000 0.1409316585
H   H1439     1.0  0.58430  0.40560  0.66030  1.0000 0.1409316585
H   H1440     1.0  0.65560  0.49530  0.32130  1.0000 0.1409316585
C   C1        1.0  0.06740  0.81480  0.36340  1.0000 -0.4982091723
C   C2        1.0  0.95400  0.81740  0.75260  1.0000 -0.4982091723
C   C3        1.0  0.06480  0.20140  0.24740  1.0000 -0.4982091723
C   C4        1.0  0.45140  0.70400  0.63660  1.0000 -0.4982091723
C   C5        1.0  0.18260  0.93520  0.13660  1.0000 -0.4982091723
C   C6        1.0  0.29600  0.93260  0.74740  1.0000 -0.4982091723
C   C7        1.0  0.18520  0.54860  0.25260  1.0000 -0.4982091723
C   C8        1.0  0.79860  0.04600  0.86340  1.0000 -0.4982091723
C   C9        1.0  0.05650  0.82980  0.34170  1.0000 0.1998786962
C   C10       1.0  0.96480  0.80650  0.72670  1.0000 0.1998786962
C   C11       1.0  0.07980  0.23810  0.27330  1.0000 0.1998786962
C   C12       1.0  0.48810  0.71480  0.65830  1.0000 0.1998786962
C   C13       1.0  0.19350  0.92020  0.15830  1.0000 0.1998786962
C   C14       1.0  0.28520  0.94350  0.77330  1.0000 0.1998786962
C   C15       1.0  0.17020  0.51190  0.22670  1.0000 0.1998786962
C   C16       1.0  0.76190  0.03520  0.84170  1.0000 0.1998786962
C   C17       1.0  0.02640  0.82950  0.34190  1.0000 -0.1097824624
C   C18       1.0  0.93450  0.77640  0.69690  1.0000 -0.1097824624
C   C19       1.0  0.07950  0.23760  0.30310  1.0000 -0.0995316853
C   C20       1.0  0.48760  0.68450  0.65810  1.0000 -0.1097824624
C   C21       1.0  0.22360  0.92050  0.15810  1.0000 -0.1097824624
C   C22       1.0  0.31550  0.97360  0.80310  1.0000 -0.1097824624
C   C23       1.0  0.17050  0.51240  0.19690  1.0000 -0.1097824624
C   C24       1.0  0.76240  0.06550  0.84190  1.0000 -0.1097824624
C   C25       1.0  0.03150  0.84870  0.31680  1.0000 0.1826575425
C   C26       1.0  0.96470  0.78150  0.68280  1.0000 0.1826575425
C   C27       1.0  0.09870  0.28190  0.31720  1.0000 0.1826575425
C   C28       1.0  0.53190  0.71470  0.68320  1.0000 0.1826575425
C   C29       1.0  0.21850  0.90130  0.18320  1.0000 0.1826575425
C   C30       1.0  0.28530  0.96850  0.81720  1.0000 0.1826575425
C   C31       1.0  0.15130  0.46810  0.18280  1.0000 0.1826575425
C   C32       1.0  0.71810  0.03530  0.81680  1.0000 0.1826575425
C   C33       1.0  0.00870  0.85680  0.30530  1.0000 -0.479671287
C   C34       1.0  0.95340  0.75870  0.65190  1.0000 -0.479671287
C   C35       1.0  0.10680  0.30150  0.34810  1.0000 -0.479671287
C   C36       1.0  0.55150  0.70340  0.69470  1.0000 -0.479671287
C   C37       1.0  0.24130  0.89320  0.19470  1.0000 -0.479671287
C   C38       1.0  0.29660  0.99130  0.84810  1.0000 -0.479671287
C   C39       1.0  0.14320  0.44850  0.15190  1.0000 -0.479671287
C   C40       1.0  0.69850  0.04660  0.80530  1.0000 -0.479671287
C   C41       1.0  0.21000  0.48340  0.35400  1.0000 -0.479671287
C   C42       1.0  0.10600  0.96000  0.22660  1.0000 -0.4719944868
C   C43       1.0  0.73340  0.87940  0.77340  1.0000 -0.479671287
C   C44       1.0  0.12940  0.85600  0.64600  1.0000 -0.4719944868
C   C45       1.0  0.04000  0.26660  0.14600  1.0000 -0.4719944868
C   C46       1.0  0.14400  0.79000  0.27340  1.0000 -0.4719944868
C   C47       1.0  0.51660  0.87060  0.72660  1.0000 -0.479671287
C   C48       1.0  0.12060  0.89400  0.85400  1.0000 -0.479671287
C   C49       1.0  0.22670  0.49800  0.32590  1.0000 0.19078331
C   C50       1.0  0.15080  0.97670  0.22870  1.0000 0.19078331
C   C51       1.0  0.74800  0.92210  0.77130  1.0000 0.19078331
C   C52       1.0  0.17210  0.90080  0.67410  1.0000 0.19078331
C   C53       1.0  0.02330  0.25200  0.17410  1.0000 0.1998786962
C   C54       1.0  0.09920  0.77330  0.27130  1.0000 0.1998786962
C   C55       1.0  0.50200  0.82790  0.72870  1.0000 0.19078331
C   C56       1.0  0.07790  0.84920  0.82590  1.0000 0.19078331
C   C57       1.0  0.26610  0.54800  0.31930  1.0000 -0.1097824624
C   C58       1.0  0.19680  0.01610  0.21810  1.0000 -0.1097824624
C   C59       1.0  0.79800  0.97870  0.78190  1.0000 -0.1097824624
C   C60       1.0  0.22870  0.94680  0.68070  1.0000 -0.1097824624
C   C61       1.0  0.98390  0.20200  0.18070  1.0000 -0.1097824624
C   C62       1.0  0.05320  0.73390  0.28190  1.0000 -0.1097824624
C   C63       1.0  0.45200  0.77130  0.71810  1.0000 -0.1097824624
C   C64       1.0  0.02130  0.80320  0.81930  1.0000 -0.1097824624
C   C65       1.0  0.26370  0.53630  0.28920  1.0000 0.1998786962
C   C66       1.0  0.22450  0.01370  0.22740  1.0000 0.1998786962
C   C67       1.0  0.78630  0.99710  0.77260  1.0000 0.1998786962
C   C68       1.0  0.24710  0.97450  0.71080  1.0000 0.1998786962
C   C69       1.0  0.98630  0.21370  0.21080  1.0000 0.1998786962
C   C70       1.0  0.02550  0.73630  0.27260  1.0000 0.1998786962
C   C71       1.0  0.46370  0.75290  0.72740  1.0000 0.1998786962
C   C72       1.0  0.00290  0.77550  0.78920  1.0000 0.1998786962
C   C73       1.0  0.29500  0.57330  0.26830  1.0000 -0.4899157862
C   C74       1.0  0.27670  0.04500  0.22170  1.0000 -0.4899157862
C   C75       1.0  0.82330  0.05500  0.77830  1.0000 -0.4899157862
C   C76       1.0  0.30500  0.02670  0.73170  1.0000 -0.4899157862
C   C77       1.0  0.95500  0.17670  0.23170  1.0000 -0.4899157862
C   C78       1.0  0.97330  0.70500  0.27830  1.0000 -0.4899157862
C   C79       1.0  0.42670  0.69500  0.72170  1.0000 -0.4899157862
C   C80       1.0  0.94500  0.72330  0.76830  1.0000 -0.4899157862
C   C81       1.0  0.32650  0.99950  0.27840  1.0000 -0.479671287
C   C82       1.0  0.29810  0.07650  0.82700  1.0000 -0.479671287
C   C83       1.0  0.24950  0.47110  0.17300  1.0000 -0.479671287
C   C84       1.0  0.72110  0.04810  0.72160  1.0000 -0.479671287
C   C85       1.0  0.92350  0.75050  0.22160  1.0000 -0.479671287
C   C86       1.0  0.95190  0.67350  0.67300  1.0000 -0.479671287
C   C87       1.0  0.00050  0.27890  0.32700  1.0000 -0.479671287
C   C88       1.0  0.52890  0.70190  0.77840  1.0000 -0.479671287
C   C89       1.0  0.29250  0.96960  0.29950  1.0000 0.19078331
C   C90       1.0  0.24300  0.04250  0.82290  1.0000 0.1826575425
C   C91       1.0  0.21960  0.42010  0.17710  1.0000 0.1826575425
C   C92       1.0  0.67010  0.99300  0.70050  1.0000 0.1826575425
C   C93       1.0  0.95750  0.78040  0.20050  1.0000 0.1826575425
C   C94       1.0  0.00700  0.70750  0.67710  1.0000 0.19078331
C   C95       1.0  0.03040  0.32990  0.32290  1.0000 0.1826575425
C   C96       1.0  0.57990  0.75700  0.79950  1.0000 0.1826575425
C   C97       1.0  0.30010  0.96230  0.32580  1.0000 -0.0995316853
C   C98       1.0  0.22430  0.05010  0.83780  1.0000 -0.0995316853
C   C99       1.0  0.21230  0.38650  0.16220  1.0000 -0.0995316853
C   C100      1.0  0.63650  0.97430  0.67420  1.0000 -0.0995316853
C   C101      1.0  0.94990  0.78770  0.17420  1.0000 -0.0995316853
C   C102      1.0  0.02570  0.69990  0.66220  1.0000 -0.0995316853
C   C103      1.0  0.03770  0.36350  0.33780  1.0000 -0.0995316853
C   C104      1.0  0.61350  0.77570  0.82580  1.0000 -0.0995316853
C   C105      1.0  0.25540  0.93340  0.33660  1.0000 0.1998786962
C   C106      1.0  0.16880  0.00540  0.82200  1.0000 0.1998786962
C   C107      1.0  0.18340  0.34680  0.17800  1.0000 0.1998786962
C   C108      1.0  0.59680  0.91880  0.66340  1.0000 0.1998786962
C   C109      1.0  0.99460  0.81660  0.16340  1.0000 0.1998786962
C   C110      1.0  0.08120  0.74460  0.67800  1.0000 0.1998786962
C   C111      1.0  0.06660  0.40320  0.32200  1.0000 0.1998786962
C   C112      1.0  0.65320  0.83120  0.83660  1.0000 0.1998786962
C   C113      1.0  0.24100  0.91310  0.36510  1.0000 -0.4899157862
C   C114      1.0  0.12590  0.99100  0.82790  1.0000 -0.4899157862
C   C115      1.0  0.16310  0.29800  0.17210  1.0000 -0.4899157862
C   C116      1.0  0.54800  0.87590  0.63490  1.0000 -0.4899157862
C   C117      1.0  0.00900  0.83690  0.13490  1.0000 -0.4899157862
C   C118      1.0  0.12410  0.75900  0.67210  1.0000 -0.4899157862
C   C119      1.0  0.08690  0.45200  0.32790  1.0000 -0.4899157862
C   C120      1.0  0.70200  0.87410  0.86510  1.0000 -0.4899157862
C   C121      1.0  0.96698  0.09040  0.64498  1.0000 -0.4899157862
C   C122      1.0  0.57200  0.71698  0.37658  1.0000 -0.4899157862
C   C123      1.0  0.34040  0.19542  0.62342  1.0000 -0.4899157862
C   C124      1.0  0.44542  0.32200  0.35502  1.0000 -0.4899157862
C   C125      1.0  0.28302  0.65960  0.85502  1.0000 -0.4899157862
C   C126      1.0  0.67800  0.03302  0.12342  1.0000 -0.4899157862
C   C127      1.0  0.90960  0.55458  0.87658  1.0000 -0.4899157862
C   C128      1.0  0.80458  0.42800  0.14498  1.0000 -0.4899157862
C   C129      1.0  0.94037  0.08957  0.62394  1.0000 0.19078331
C   C130      1.0  0.56643  0.69037  0.35080  1.0000 0.19078331
C   C131      1.0  0.33957  0.21563  0.64920  1.0000 0.19078331
C   C132      1.0  0.46563  0.31643  0.37606  1.0000 0.19078331
C   C133      1.0  0.30963  0.66043  0.87606  1.0000 0.19078331
C   C134      1.0  0.68357  0.05963  0.14920  1.0000 0.19078331
C   C135      1.0  0.91043  0.53437  0.85080  1.0000 0.19078331
C   C136      1.0  0.78437  0.43357  0.12394  1.0000 0.19078331
C   C137      1.0  0.94959  0.12750  0.62409  1.0000 -0.0995316853
C   C138      1.0  0.57550  0.69959  0.32209  1.0000 -0.0995316853
C   C139      1.0  0.37750  0.25341  0.67791  1.0000 -0.0995316853
C   C140      1.0  0.50341  0.32550  0.37591  1.0000 -0.0995316853
C   C141      1.0  0.30041  0.62250  0.87591  1.0000 -0.0995316853
C   C142      1.0  0.67450  0.05041  0.17791  1.0000 -0.0995316853
C   C143      1.0  0.87250  0.49659  0.82209  1.0000 -0.0995316853
C   C144      1.0  0.74659  0.42450  0.12409  1.0000 -0.0995316853
C   C145      1.0  0.91250  0.10418  0.59708  1.0000 0.19078331
C   C146      1.0  0.56542  0.66250  0.30832  1.0000 0.19078331
C   C147      1.0  0.35418  0.25710  0.69168  1.0000 0.19078331
C   C148      1.0  0.50710  0.31542  0.40292  1.0000 0.19078331
C   C149      1.0  0.33750  0.64582  0.90292  1.0000 0.19078331
C   C150      1.0  0.68458  0.08750  0.19168  1.0000 0.19078331
C   C151      1.0  0.89582  0.49290  0.80832  1.0000 0.19078331
C   C152      1.0  0.74290  0.43458  0.09708  1.0000 0.19078331
C   C153      1.0  0.90160  0.12520  0.58460  1.0000 -0.4719944868
C   C154      1.0  0.56700  0.65160  0.27640  1.0000 -0.4719944868
C   C155      1.0  0.37520  0.29060  0.72360  1.0000 -0.4719944868
C   C156      1.0  0.54060  0.31700  0.41540  1.0000 -0.4719944868
C   C157      1.0  0.34840  0.62480  0.91540  1.0000 -0.4719944868
C   C158      1.0  0.68300  0.09840  0.22360  1.0000 -0.4719944868
C   C159      1.0  0.87480  0.45940  0.77640  1.0000 -0.4719944868
C   C160      1.0  0.70940  0.43300  0.08460  1.0000 -0.4719944868
C   C161      1.0  0.73130  0.97890  0.50860  1.0000 -0.4719944868
C   C162      1.0  0.47270  0.48130  0.25240  1.0000 -0.4719944868
C   C163      1.0  0.22890  0.22030  0.74760  1.0000 -0.4719944868
C   C164      1.0  0.47030  0.22270  0.49140  1.0000 -0.4719944868
C   C165      1.0  0.51870  0.77110  0.99140  1.0000 -0.4719944868
C   C166      1.0  0.77730  0.26870  0.24760  1.0000 -0.4719944868
C   C167      1.0  0.02110  0.52970  0.75240  1.0000 -0.4719944868
C   C168      1.0  0.77970  0.52730  0.00860  1.0000 -0.4719944868
C   C169      1.0  0.70728  0.92870  0.50238  1.0000 0.174651635
C   C170      1.0  0.45490  0.45728  0.27858  1.0000 0.174651635
C   C171      1.0  0.17870  0.17632  0.72142  1.0000 0.174651635
C   C172      1.0  0.42632  0.20490  0.49762  1.0000 0.174651635
C   C173      1.0  0.54272  0.82130  0.99762  1.0000 0.174651635
C   C174      1.0  0.79510  0.29272  0.22142  1.0000 0.1826575425
C   C175      1.0  0.07130  0.57368  0.77858  1.0000 0.1826575425
C   C176      1.0  0.82368  0.54510  0.00238  1.0000 0.174651635
C   C177      1.0  0.65560  0.87581  0.48541  1.0000 -0.0995316853
C   C178      1.0  0.42019  0.40560  0.27979  1.0000 -0.0995316853
C   C179      1.0  0.12581  0.14040  0.72021  1.0000 -0.0995316853
C   C180      1.0  0.39040  0.17019  0.51459  1.0000 -0.0995316853
C   C181      1.0  0.59440  0.87419  0.01459  1.0000 -0.0995316853
C   C182      1.0  0.82981  0.34440  0.22021  1.0000 -0.0995316853
C   C183      1.0  0.12419  0.60960  0.77979  1.0000 -0.0995316853
C   C184      1.0  0.85960  0.57981  0.98541  1.0000 -0.0995316853
C   C185      1.0  0.65610  0.84550  0.48780  1.0000 0.19078331
C   C186      1.0  0.41830  0.40610  0.31060  1.0000 0.19078331
C   C187      1.0  0.09550  0.10770  0.68940  1.0000 0.19078331
C   C188      1.0  0.35770  0.16830  0.51220  1.0000 0.19078331
C   C189      1.0  0.59390  0.90450  0.01220  1.0000 0.19078331
C   C190      1.0  0.83170  0.34390  0.18940  1.0000 0.19078331
C   C191      1.0  0.15450  0.64230  0.81060  1.0000 0.19078331
C   C192      1.0  0.89230  0.58170  0.98780  1.0000 0.19078331
C   C193      1.0  0.61310  0.78650  0.47500  1.0000 -0.4982091723
C   C194      1.0  0.38810  0.36310  0.32660  1.0000 -0.4982091723
C   C195      1.0  0.03650  0.06150  0.67340  1.0000 -0.4899157862
C   C196      1.0  0.31150  0.13810  0.52500  1.0000 -0.4982091723
C   C197      1.0  0.63690  0.96350  0.02500  1.0000 -0.4982091723
C   C198      1.0  0.86190  0.38690  0.17340  1.0000 -0.4982091723
C   C199      1.0  0.21350  0.68850  0.82660  1.0000 -0.4982091723
C   C200      1.0  0.93850  0.61190  0.97500  1.0000 -0.4982091723
C   C201      1.0  0.00190  0.95400  0.58330  1.0000 -0.4899157862
C   C202      1.0  0.66860  0.75190  0.54790  1.0000 -0.4982091723
C   C203      1.0  0.20400  0.12070  0.45210  1.0000 -0.4982091723
C   C204      1.0  0.37070  0.41860  0.41670  1.0000 -0.4982091723
C   C205      1.0  0.24810  0.79600  0.91670  1.0000 -0.4982091723
C   C206      1.0  0.58140  0.99810  0.95210  1.0000 -0.4982091723
C   C207      1.0  0.04600  0.62930  0.04790  1.0000 -0.4982091723
C   C208      1.0  0.87930  0.33140  0.08330  1.0000 -0.4899157862
C   C209      1.0  0.05540  0.99220  0.57800  1.0000 0.1998786962
C   C210      1.0  0.72740  0.80540  0.56320  1.0000 0.1998786962
C   C211      1.0  0.24220  0.16420  0.43680  1.0000 0.1998786962
C   C212      1.0  0.41420  0.47740  0.42200  1.0000 0.1998786962
C   C213      1.0  0.19460  0.75780  0.92200  1.0000 0.19078331
C   C214      1.0  0.52260  0.94460  0.93680  1.0000 0.1998786962
C   C215      1.0  0.00780  0.58580  0.06320  1.0000 0.1998786962
C   C216      1.0  0.83580  0.27260  0.07800  1.0000 0.1998786962
C   C217      1.0  0.06941  0.98300  0.55701  1.0000 -0.1097824624
C   C218      1.0  0.76240  0.81941  0.58641  1.0000 -0.1097824624
C   C219      1.0  0.23300  0.17599  0.41359  1.0000 -0.1097824624
C   C220      1.0  0.42599  0.51240  0.44299  1.0000 -0.1097824624
C   C221      1.0  0.18059  0.76700  0.94299  1.0000 -0.1097824624
C   C222      1.0  0.48760  0.93059  0.91359  1.0000 -0.1097824624
C   C223      1.0  0.01700  0.57401  0.08641  1.0000 -0.1097824624
C   C224      1.0  0.82401  0.23760  0.05701  1.0000 -0.1097824624
C   C225      1.0  0.12440  0.03118  0.56218  1.0000 0.19078331
C   C226      1.0  0.81222  0.87440  0.59322  1.0000 0.19078331
C   C227      1.0  0.28118  0.21900  0.40678  1.0000 0.19078331
C   C228      1.0  0.46900  0.56222  0.43782  1.0000 0.19078331
C   C229      1.0  0.12560  0.71882  0.93782  1.0000 0.19078331
C   C230      1.0  0.43778  0.87560  0.90678  1.0000 0.19078331
C   C231      1.0  0.96882  0.53100  0.09322  1.0000 0.19078331
C   C232      1.0  0.78100  0.18778  0.06218  1.0000 0.19078331
C   C233      1.0  0.16160  0.04520  0.54760  1.0000 -0.479671287
C   C234      1.0  0.86400  0.91160  0.61640  1.0000 -0.479671287
C   C235      1.0  0.29520  0.24760  0.38360  1.0000 -0.479671287
C   C236      1.0  0.49760  0.61400  0.45240  1.0000 -0.479671287
C   C237      1.0  0.08840  0.70480  0.95240  1.0000 -0.479671287
C   C238      1.0  0.38600  0.83840  0.88360  1.0000 -0.479671287
C   C239      1.0  0.95480  0.50240  0.11640  1.0000 -0.479671287
C   C240      1.0  0.75240  0.13600  0.04760  1.0000 -0.479671287
C   C241      1.0  0.69430  0.26190  0.15520  1.0000 -0.4982091723
C   C242      1.0  0.78910  0.44430  0.93240  1.0000 -0.4982091723
C   C243      1.0  0.51190  0.85670  0.06760  1.0000 -0.4982091723
C   C244      1.0  0.10670  0.53910  0.84480  1.0000 -0.4982091723
C   C245      1.0  0.55570  0.48810  0.34480  1.0000 -0.4982091723
C   C246      1.0  0.46090  0.30570  0.56760  1.0000 -0.4982091723
C   C247      1.0  0.73810  0.89330  0.43240  1.0000 -0.4982091723
C   C248      1.0  0.14330  0.21090  0.65520  1.0000 -0.4982091723
C   C249      1.0  0.68640  0.23160  0.13000  1.0000 0.1998786962
C   C250      1.0  0.80640  0.43640  0.95480  1.0000 0.1998786962
C   C251      1.0  0.48160  0.85160  0.04520  1.0000 0.1998786962
C   C252      1.0  0.10160  0.55640  0.87000  1.0000 0.1998786962
C   C253      1.0  0.56360  0.51840  0.37000  1.0000 0.1998786962
C   C254      1.0  0.44360  0.31360  0.54520  1.0000 0.1998786962
C   C255      1.0  0.76840  0.89840  0.45480  1.0000 0.1998786962
C   C256      1.0  0.14840  0.19360  0.63000  1.0000 0.1998786962
C   C257      1.0  0.69500  0.23930  0.10170  1.0000 -0.1191798451
C   C258      1.0  0.84330  0.44500  0.95570  1.0000 -0.1191798451
C   C259      1.0  0.48930  0.88760  0.04430  1.0000 -0.1191798451
C   C260      1.0  0.13760  0.59330  0.89830  1.0000 -0.1191798451
C   C261      1.0  0.55500  0.51070  0.39830  1.0000 -0.1191798451
C   C262      1.0  0.40670  0.30500  0.54430  1.0000 -0.1191798451
C   C263      1.0  0.76070  0.86240  0.45570  1.0000 -0.1191798451
C   C264      1.0  0.11240  0.15670  0.60170  1.0000 -0.1191798451
C   C265      1.0  0.68180  0.20010  0.08790  1.0000 0.1826575425
C   C266      1.0  0.84390  0.43180  0.98170  1.0000 0.1826575425
C   C267      1.0  0.45010  0.86220  0.01830  1.0000 0.1826575425
C   C268      1.0  0.11220  0.59390  0.91210  1.0000 0.1826575425
C   C269      1.0  0.56820  0.54990  0.41210  1.0000 0.1826575425
C   C270      1.0  0.40610  0.31820  0.51830  1.0000 0.1826575425
C   C271      1.0  0.79990  0.88780  0.48170  1.0000 0.1826575425
C   C272      1.0  0.13780  0.15610  0.58790  1.0000 0.1826575425
C   C273      1.0  0.68180  0.18670  0.05670  1.0000 -0.479671287
C   C274      1.0  0.87510  0.43180  0.99510  1.0000 -0.479671287
C   C275      1.0  0.43670  0.88000  0.00490  1.0000 -0.479671287
C   C276      1.0  0.13000  0.62510  0.94330  1.0000 -0.479671287
C   C277      1.0  0.56820  0.56330  0.44330  1.0000 -0.479671287
C   C278      1.0  0.37490  0.31820  0.50490  1.0000 -0.479671287
C   C279      1.0  0.81330  0.87000  0.49510  1.0000 -0.479671287
C   C280      1.0  0.12000  0.12490  0.55670  1.0000 -0.479671287
C   C281      1.0  0.79660  0.33380  0.07380  1.0000 -0.4899157862
C   C282      1.0  0.97280  0.54660  0.96280  1.0000 -0.4899157862
C   C283      1.0  0.58380  0.01000  0.03720  1.0000 -0.4899157862
C   C284      1.0  0.26000  0.72280  0.92620  1.0000 -0.4899157862
C   C285      1.0  0.45340  0.41620  0.42620  1.0000 -0.4899157862
C   C286      1.0  0.27720  0.20340  0.53720  1.0000 -0.4899157862
C   C287      1.0  0.66620  0.74000  0.46280  1.0000 -0.4899157862
C   C288      1.0  0.99000  0.02720  0.57380  1.0000 -0.4899157862
C   C289      1.0  0.75019  0.31480  0.07459  1.0000 0.1998786962
C   C290      1.0  0.92560  0.50019  0.93539  1.0000 0.1998786962
C   C291      1.0  0.56480  0.99021  0.06461  1.0000 0.1998786962
C   C292      1.0  0.24021  0.67560  0.92541  1.0000 0.1998786962
C   C293      1.0  0.49981  0.43520  0.42541  1.0000 0.1998786962
C   C294      1.0  0.32440  0.24981  0.56461  1.0000 0.1998786962
C   C295      1.0  0.68520  0.75979  0.43539  1.0000 0.1998786962
C   C296      1.0  0.00979  0.07440  0.57459  1.0000 0.1998786962
C   C297      1.0  0.70694  0.27490  0.08684  1.0000 -0.1191798451
C   C298      1.0  0.87010  0.45694  0.93204  1.0000 -0.1191798451
C   C299      1.0  0.52490  0.93806  0.06796  1.0000 -0.1191798451
C   C300      1.0  0.18806  0.62010  0.91316  1.0000 -0.1191798451
C   C301      1.0  0.54306  0.47510  0.41316  1.0000 -0.1191798451
C   C302      1.0  0.37990  0.29306  0.56796  1.0000 -0.1191798451
C   C303      1.0  0.72510  0.81194  0.43204  1.0000 -0.1191798451
C   C304      1.0  0.06194  0.12990  0.58684  1.0000 -0.1191798451
C   C305      1.0  0.67550  0.27390  0.08060  1.0000 0.2096809653
C   C306      1.0  0.84490  0.42550  0.90160  1.0000 0.2096809653
C   C307      1.0  0.52390  0.94330  0.09840  1.0000 0.2096809653
C   C308      1.0  0.19330  0.59490  0.91940  1.0000 0.2096809653
C   C309      1.0  0.57450  0.47610  0.41940  1.0000 0.2096809653
C   C310      1.0  0.40510  0.32450  0.59840  1.0000 0.2096809653
C   C311      1.0  0.72610  0.80670  0.40160  1.0000 0.2096809653
C   C312      1.0  0.05670  0.15510  0.58060  1.0000 0.2096809653
C   C313      1.0  0.62280  0.23680  0.08720  1.0000 -0.5112116662
C   C314      1.0  0.78560  0.37280  0.88600  1.0000 -0.4982091723
C   C315      1.0  0.48680  0.89960  0.11400  1.0000 -0.4982091723
C   C316      1.0  0.14960  0.53560  0.91280  1.0000 -0.4982091723
C   C317      1.0  0.62720  0.51320  0.41280  1.0000 -0.4982091723
C   C318      1.0  0.46440  0.37720  0.61400  1.0000 -0.4982091723
C   C319      1.0  0.76320  0.85040  0.38600  1.0000 -0.5112116662
C   C320      1.0  0.10040  0.21440  0.58720  1.0000 -0.4982091723
C   C321      1.0  0.51970  0.98320  0.21650  1.0000 -0.5112116662
C   C322      1.0  0.55320  0.26970  0.03650  1.0000 -0.5112116662
C   C323      1.0  0.23320  0.51670  0.96350  1.0000 -0.5112116662
C   C324      1.0  0.76670  0.30320  0.78350  1.0000 -0.5112116662
C   C325      1.0  0.73030  0.76680  0.28350  1.0000 -0.5112116662
C   C326      1.0  0.69680  0.48030  0.46350  1.0000 -0.5112116662
C   C327      1.0  0.01680  0.23330  0.53650  1.0000 -0.5112116662
C   C328      1.0  0.48330  0.44680  0.71650  1.0000 -0.5112116662
C   C329      1.0  0.55580  0.03810  0.21610  1.0000 0.1998786962
C   C330      1.0  0.58970  0.30580  0.01770  1.0000 0.1998786962
C   C331      1.0  0.28810  0.57200  0.98230  1.0000 0.1998786962
C   C332      1.0  0.82200  0.33970  0.78390  1.0000 0.1998786962
C   C333      1.0  0.69420  0.71190  0.28390  1.0000 0.1998786962
C   C334      1.0  0.66030  0.44420  0.48230  1.0000 0.1998786962
C   C335      1.0  0.96190  0.17800  0.51770  1.0000 0.1998786962
C   C336      1.0  0.42800  0.41030  0.71610  1.0000 0.1998786962
C   C337      1.0  0.57080  0.07540  0.23840  1.0000 -0.0995316853
C   C338      1.0  0.58240  0.32080  0.99540  1.0000 -0.0995316853
C   C339      1.0  0.32540  0.58700  0.00460  1.0000 -0.0995316853
C   C340      1.0  0.83700  0.33240  0.76160  1.0000 -0.0995316853
C   C341      1.0  0.67920  0.67460  0.26160  1.0000 -0.0995316853
C   C342      1.0  0.66760  0.42920  0.50460  1.0000 -0.0995316853
C   C343      1.0  0.92460  0.16300  0.49540  1.0000 -0.0995316853
C   C344      1.0  0.41300  0.41760  0.73840  1.0000 -0.0995316853
C   C345      1.0  0.60350  0.11960  0.22590  1.0000 0.1998786962
C   C346      1.0  0.62760  0.35350  0.98390  1.0000 0.1998786962
C   C347      1.0  0.36960  0.64370  0.01610  1.0000 0.1998786962
C   C348      1.0  0.89370  0.37760  0.77410  1.0000 0.1998786962
C   C349      1.0  0.64650  0.63040  0.27410  1.0000 0.1998786962
C   C350      1.0  0.62240  0.39650  0.51610  1.0000 0.1998786962
C   C351      1.0  0.88040  0.10630  0.48390  1.0000 0.1998786962
C   C352      1.0  0.35630  0.37240  0.72590  1.0000 0.1998786962
C   C353      1.0  0.62940  0.17040  0.23880  1.0000 -0.479671287
C   C354      1.0  0.64060  0.37940  0.95900  1.0000 -0.479671287
C   C355      1.0  0.42040  0.68160  0.04100  1.0000 -0.479671287
C   C356      1.0  0.93160  0.39060  0.76120  1.0000 -0.479671287
C   C357      1.0  0.62060  0.57960  0.26120  1.0000 -0.479671287
C   C358      1.0  0.60940  0.37060  0.54100  1.0000 -0.479671287
C   C359      1.0  0.82960  0.06840  0.45900  1.0000 -0.479671287
C   C360      1.0  0.31840  0.35940  0.73880  1.0000 -0.479671287
C   C361      1.0  0.10340  0.44540  0.97380  1.0000 -0.479671287
C   C362      1.0  0.37960  0.85340  0.15800  1.0000 -0.4899157862
C   C363      1.0  0.69540  0.22160  0.84200  1.0000 -0.479671287
C   C364      1.0  0.47160  0.12960  0.02620  1.0000 -0.479671287
C   C365      1.0  0.14660  0.30460  0.52620  1.0000 -0.479671287
C   C366      1.0  0.87040  0.89660  0.34200  1.0000 -0.4899157862
C   C367      1.0  0.55460  0.52840  0.65800  1.0000 -0.479671287
C   C368      1.0  0.77840  0.62040  0.47380  1.0000 -0.4899157862
C   C369      1.0  0.05576  0.42324  0.97900  1.0000 0.1998786962
C   C370      1.0  0.32676  0.80576  0.13252  1.0000 0.1998786962
C   C371      1.0  0.67324  0.19424  0.86748  1.0000 0.1998786962
C   C372      1.0  0.44424  0.07676  0.02100  1.0000 0.1998786962
C   C373      1.0  0.19424  0.32676  0.52100  1.0000 0.1998786962
C   C374      1.0  0.92324  0.94424  0.36748  1.0000 0.1998786962
C   C375      1.0  0.57676  0.55576  0.63252  1.0000 0.1998786962
C   C376      1.0  0.80576  0.67324  0.47900  1.0000 0.1998786962
C   C377      1.0  0.05320  0.44060  0.00360  1.0000 -0.1274583789
C   C378      1.0  0.29960  0.80320  0.11260  1.0000 -0.1274583789
C   C379      1.0  0.69060  0.18700  0.88740  1.0000 -0.1274583789
C   C380      1.0  0.43700  0.04960  0.99640  1.0000 -0.1274583789
C   C381      1.0  0.19680  0.30940  0.49640  1.0000 -0.1274583789
C   C382      1.0  0.95040  0.94680  0.38740  1.0000 -0.1274583789
C   C383      1.0  0.55940  0.56300  0.61260  1.0000 -0.1274583789
C   C384      1.0  0.81300  0.70040  0.50360  1.0000 -0.1274583789
C   C385      1.0  0.99920  0.40570  0.99610  1.0000 0.1998786962
C   C386      1.0  0.25310  0.74920  0.09350  1.0000 0.1998786962
C   C387      1.0  0.65570  0.15960  0.90650  1.0000 0.1998786962
C   C388      1.0  0.40960  0.00310  0.00390  1.0000 0.1998786962
C   C389      1.0  0.25080  0.34430  0.50390  1.0000 0.1998786962
C   C390      1.0  0.99690  0.00080  0.40650  1.0000 0.1998786962
C   C391      1.0  0.59430  0.59040  0.59350  1.0000 0.1998786962
C   C392      1.0  0.84040  0.74690  0.49610  1.0000 0.1998786962
C   C393      1.0  0.97170  0.40380  0.01290  1.0000 -0.4899157862
C   C394      1.0  0.20880  0.72170  0.06790  1.0000 -0.4899157862
C   C395      1.0  0.65380  0.14090  0.93210  1.0000 -0.4899157862
C   C396      1.0  0.39090  0.95880  0.98710  1.0000 -0.4899157862
C   C397      1.0  0.27830  0.34620  0.48710  1.0000 -0.4899157862
C   C398      1.0  0.04120  0.02830  0.43210  1.0000 -0.4899157862
C   C399      1.0  0.59620  0.60910  0.56790  1.0000 -0.4899157862
C   C400      1.0  0.85910  0.79120  0.51290  1.0000 -0.4899157862
C   C401      1.0  0.10110  0.54620  0.01910  1.0000 -0.4899157862
C   C402      1.0  0.33200  0.85110  0.05490  1.0000 -0.4899157862
C   C403      1.0  0.79620  0.27710  0.94510  1.0000 -0.4899157862
C   C404      1.0  0.52710  0.08200  0.98090  1.0000 -0.4899157862
C   C405      1.0  0.14890  0.20380  0.48090  1.0000 -0.4899157862
C   C406      1.0  0.91800  0.89890  0.44510  1.0000 -0.4899157862
C   C407      1.0  0.45380  0.47290  0.55490  1.0000 -0.4899157862
C   C408      1.0  0.72290  0.66800  0.51910  1.0000 -0.4899157862
C   C409      1.0  0.11710  0.53370  0.03700  1.0000 0.1998786962
C   C410      1.0  0.33010  0.86710  0.08340  1.0000 0.1998786962
C   C411      1.0  0.78370  0.24670  0.91660  1.0000 0.1998786962
C   C412      1.0  0.49670  0.08010  0.96300  1.0000 0.1998786962
C   C413      1.0  0.13290  0.21630  0.46300  1.0000 0.1998786962
C   C414      1.0  0.91990  0.88290  0.41660  1.0000 0.1998786962
C   C415      1.0  0.46630  0.50330  0.58340  1.0000 0.1998786962
C   C416      1.0  0.75330  0.66990  0.53700  1.0000 0.1998786962
C   C417      1.0  0.09760  0.48830  0.03030  1.0000 -0.1097824624
C   C418      1.0  0.31730  0.84760  0.10930  1.0000 -0.1097824624
C   C419      1.0  0.73830  0.20800  0.89070  1.0000 -0.1097824624
C   C420      1.0  0.45800  0.06730  0.96970  1.0000 -0.1097824624
C   C421      1.0  0.15240  0.26170  0.46970  1.0000 -0.1097824624
C   C422      1.0  0.93270  0.90240  0.39070  1.0000 -0.1097824624
C   C423      1.0  0.51170  0.54200  0.60930  1.0000 -0.1097824624
C   C424      1.0  0.79200  0.68270  0.53030  1.0000 -0.1097824624
C   C425      1.0  0.12960  0.49935  0.05415  1.0000 0.19078331
C   C426      1.0  0.32545  0.87960  0.13025  1.0000 0.19078331
C   C427      1.0  0.74935  0.19520  0.86975  1.0000 0.19078331
C   C428      1.0  0.44520  0.07545  0.94585  1.0000 0.19078331
C   C429      1.0  0.12040  0.25065  0.44585  1.0000 0.19078331
C   C430      1.0  0.92455  0.87040  0.36975  1.0000 0.19078331
C   C431      1.0  0.50065  0.55480  0.63025  1.0000 0.19078331
C   C432      1.0  0.80480  0.67455  0.55415  1.0000 0.19078331
C   C433      1.0  0.12710  0.46620  0.05930  1.0000 -0.4982091723
C   C434      1.0  0.31780  0.87710  0.16090  1.0000 -0.4982091723
C   C435      1.0  0.71620  0.15690  0.83910  1.0000 -0.4982091723
C   C436      1.0  0.40690  0.06780  0.94070  1.0000 -0.4982091723
C   C437      1.0  0.12290  0.28380  0.44070  1.0000 -0.4982091723
C   C438      1.0  0.93220  0.87290  0.33910  1.0000 -0.4982091723
C   C439      1.0  0.53380  0.59310  0.66090  1.0000 -0.4982091723
C   C440      1.0  0.84310  0.68220  0.55930  1.0000 -0.4982091723
C   C441      1.0  0.85790  0.20820  0.79510  1.0000 -0.4899157862
C   C442      1.0  0.31280  0.60790  0.14970  1.0000 -0.4899157862
C   C443      1.0  0.45820  0.16310  0.85030  1.0000 -0.4899157862
C   C444      1.0  0.41310  0.06280  0.20490  1.0000 -0.4899157862
C   C445      1.0  0.39210  0.54180  0.70490  1.0000 -0.4899157862
C   C446      1.0  0.93720  0.14210  0.35030  1.0000 -0.4899157862
C   C447      1.0  0.79180  0.58690  0.64970  1.0000 -0.4899157862
C   C448      1.0  0.83690  0.68720  0.29510  1.0000 -0.4899157862
C   C449      1.0  0.90980  0.25570  0.82010  1.0000 0.19078331
C   C450      1.0  0.33970  0.65980  0.15410  1.0000 0.1998786962
C   C451      1.0  0.50570  0.18560  0.84590  1.0000 0.19078331
C   C452      1.0  0.43560  0.08970  0.17990  1.0000 0.19078331
C   C453      1.0  0.34020  0.49430  0.67990  1.0000 0.19078331
C   C454      1.0  0.91030  0.09020  0.34590  1.0000 0.19078331
C   C455      1.0  0.74430  0.56440  0.65410  1.0000 0.19078331
C   C456      1.0  0.81440  0.66030  0.32010  1.0000 0.19078331
C   C457      1.0  0.96380  0.29250  0.82210  1.0000 -0.1097824624
C   C458      1.0  0.39170  0.71380  0.17130  1.0000 -0.1097824624
C   C459      1.0  0.54250  0.22040  0.82870  1.0000 -0.1097824624
C   C460      1.0  0.47040  0.14170  0.17790  1.0000 -0.1097824624
C   C461      1.0  0.28620  0.45750  0.67790  1.0000 -0.1097824624
C   C462      1.0  0.85830  0.03620  0.32870  1.0000 -0.1097824624
C   C463      1.0  0.70750  0.52960  0.67130  1.0000 -0.1097824624
C   C464      1.0  0.77960  0.60830  0.32210  1.0000 -0.1097824624
C   C465      1.0  0.99250  0.32390  0.85260  1.0000 0.19078331
C   C466      1.0  0.38990  0.74250  0.16860  1.0000 0.19078331
C   C467      1.0  0.57390  0.22130  0.83140  1.0000 0.19078331
C   C468      1.0  0.47130  0.13990  0.14740  1.0000 0.19078331
C   C469      1.0  0.25750  0.42610  0.64740  1.0000 0.19078331
C   C470      1.0  0.86010  0.00750  0.33140  1.0000 0.19078331
C   C471      1.0  0.67610  0.52870  0.66860  1.0000 0.19078331
C   C472      1.0  0.77870  0.61010  0.35260  1.0000 0.19078331
C   C473      1.0  0.05240  0.36900  0.86760  1.0000 -0.4982091723
C   C474      1.0  0.43480  0.80240  0.18340  1.0000 -0.4982091723
C   C475      1.0  0.61900  0.25140  0.81660  1.0000 -0.4982091723
C   C476      1.0  0.50140  0.18480  0.13240  1.0000 -0.4982091723
C   C477      1.0  0.19760  0.38100  0.63240  1.0000 -0.4982091723
C   C478      1.0  0.81520  0.94760  0.31660  1.0000 -0.4982091723
C   C479      1.0  0.63100  0.49860  0.68340  1.0000 -0.4982091723
C   C480      1.0  0.74860  0.56520  0.36760  1.0000 -0.4982091723
C   C481      1.0  0.04060  0.90270  0.38750  1.0000 -0.479671287
C   C482      1.0  0.90310  0.79060  0.63790  1.0000 -0.479671287
C   C483      1.0  0.15270  0.26520  0.36210  1.0000 -0.479671287
C   C484      1.0  0.51520  0.65310  0.61250  1.0000 -0.479671287
C   C485      1.0  0.20940  0.84730  0.11250  1.0000 -0.479671287
C   C486      1.0  0.34690  0.95940  0.86210  1.0000 -0.479671287
C   C487      1.0  0.09730  0.48480  0.13790  1.0000 -0.479671287
C   C488      1.0  0.73480  0.09690  0.88750  1.0000 -0.479671287
C   C489      1.0  0.00360  0.84570  0.38390  1.0000 0.1998786962
C   C490      1.0  0.86970  0.75360  0.65790  1.0000 0.1998786962
C   C491      1.0  0.09570  0.21180  0.34210  1.0000 0.1998786962
C   C492      1.0  0.46180  0.61970  0.61610  1.0000 0.1998786962
C   C493      1.0  0.24640  0.90430  0.11610  1.0000 0.1998786962
C   C494      1.0  0.38030  0.99640  0.84210  1.0000 0.1998786962
C   C495      1.0  0.15430  0.53820  0.15790  1.0000 0.1998786962
C   C496      1.0  0.78820  0.13030  0.88390  1.0000 0.1998786962
C   C497      1.0  0.99420  0.81250  0.36310  1.0000 -0.1097824624
C   C498      1.0  0.88110  0.74420  0.68170  1.0000 -0.1191798451
C   C499      1.0  0.06250  0.19940  0.31830  1.0000 -0.1191798451
C   C500      1.0  0.44940  0.63110  0.63690  1.0000 -0.1191798451
C   C501      1.0  0.25580  0.93750  0.13690  1.0000 -0.1191798451
C   C502      1.0  0.36890  0.00580  0.81830  1.0000 -0.1191798451
C   C503      1.0  0.18750  0.55060  0.18170  1.0000 -0.1191798451
C   C504      1.0  0.80060  0.11890  0.86310  1.0000 -0.1191798451
C   C505      1.0  0.95630  0.76340  0.37090  1.0000 0.1998786962
C   C506      1.0  0.83540  0.70630  0.69290  1.0000 0.1998786962
C   C507      1.0  0.01340  0.14250  0.30710  1.0000 0.1998786962
C   C508      1.0  0.39250  0.58540  0.62910  1.0000 0.1998786962
C   C509      1.0  0.29370  0.98660  0.12910  1.0000 0.1998786962
C   C510      1.0  0.41460  0.04370  0.80710  1.0000 0.1998786962
C   C511      1.0  0.23660  0.60750  0.19290  1.0000 0.1998786962
C   C512      1.0  0.85750  0.16460  0.87090  1.0000 0.1998786962
C   C513      1.0  0.93140  0.71330  0.35770  1.0000 -0.4982091723
C   C514      1.0  0.82370  0.68140  0.71810  1.0000 -0.4982091723
C   C515      1.0  0.96330  0.10560  0.28190  1.0000 -0.4982091723
C   C516      1.0  0.35560  0.57370  0.64230  1.0000 -0.4982091723
C   C517      1.0  0.31860  0.03670  0.14230  1.0000 -0.4982091723
C   C518      1.0  0.42630  0.06860  0.78190  1.0000 -0.4982091723
C   C519      1.0  0.28670  0.64440  0.21810  1.0000 -0.4982091723
C   C520      1.0  0.89440  0.17630  0.85770  1.0000 -0.4982091723
C   C521      1.0  0.89210  0.63320  0.42770  1.0000 -0.4899157862
C   C522      1.0  0.71440  0.64210  0.75890  1.0000 -0.4899157862
C   C523      1.0  0.88320  0.95550  0.24110  1.0000 -0.4899157862
C   C524      1.0  0.20550  0.46440  0.57230  1.0000 -0.4899157862
C   C525      1.0  0.35790  0.11680  0.07230  1.0000 -0.4899157862
C   C526      1.0  0.53560  0.10790  0.74110  1.0000 -0.4899157862
C   C527      1.0  0.36680  0.79450  0.25890  1.0000 -0.4899157862
C   C528      1.0  0.04450  0.28560  0.92770  1.0000 -0.4899157862
C   C529      1.0  0.90450  0.66130  0.45900  1.0000 0.2096809653
C   C530      1.0  0.69550  0.65450  0.74320  1.0000 0.2096809653
C   C531      1.0  0.91130  0.95230  0.25680  1.0000 0.2096809653
C   C532      1.0  0.20230  0.44550  0.54100  1.0000 0.2096809653
C   C533      1.0  0.34550  0.08870  0.04100  1.0000 0.2096809653
C   C534      1.0  0.55450  0.09550  0.75680  1.0000 0.2096809653
C   C535      1.0  0.33870  0.79770  0.24320  1.0000 0.2096809653
C   C536      1.0  0.04770  0.30450  0.95900  1.0000 0.2096809653
C   C537      1.0  0.91580  0.65970  0.48730  1.0000 -0.1191798451
C   C538      1.0  0.67850  0.66580  0.75610  1.0000 -0.1191798451
C   C539      1.0  0.90970  0.92240  0.24390  1.0000 -0.1191798451
C   C540      1.0  0.17240  0.42850  0.51270  1.0000 -0.1191798451
C   C541      1.0  0.33420  0.09030  0.01270  1.0000 -0.1191798451
C   C542      1.0  0.57150  0.08420  0.74390  1.0000 -0.1191798451
C   C543      1.0  0.34030  0.82760  0.25610  1.0000 -0.1191798451
C   C544      1.0  0.07760  0.32150  0.98730  1.0000 -0.1191798451
C   C545      1.0  0.92582  0.69361  0.50803  1.0000 0.19078331
C   C546      1.0  0.66779  0.67582  0.73221  1.0000 0.19078331
C   C547      1.0  0.94361  0.93558  0.26779  1.0000 0.19078331
C   C548      1.0  0.18558  0.41779  0.49197  1.0000 0.19078331
C   C549      1.0  0.32418  0.05639  0.99197  1.0000 0.19078331
C   C550      1.0  0.58221  0.07418  0.76779  1.0000 0.19078331
C   C551      1.0  0.30639  0.81442  0.23221  1.0000 0.19078331
C   C552      1.0  0.06442  0.33221  0.00803  1.0000 0.19078331
C   C553      1.0  0.94150  0.70940  0.54210  1.0000 -0.4982091723
C   C554      1.0  0.64940  0.69150  0.73210  1.0000 -0.4982091723
C   C555      1.0  0.95940  0.91730  0.26790  1.0000 -0.4982091723
C   C556      1.0  0.16730  0.39940  0.45790  1.0000 -0.4899157862
C   C557      1.0  0.30850  0.04060  0.95790  1.0000 -0.4899157862
C   C558      1.0  0.60060  0.05850  0.76790  1.0000 -0.4899157862
C   C559      1.0  0.29060  0.83270  0.23210  1.0000 -0.4982091723
C   C560      1.0  0.08270  0.35060  0.04210  1.0000 -0.4899157862
C   C561      1.0  0.99490  0.86580  0.56850  1.0000 -0.4899157862
C   C562      1.0  0.67640  0.74490  0.62910  1.0000 -0.4899157862
C   C563      1.0  0.11580  0.04730  0.37090  1.0000 -0.4899157862
C   C564      1.0  0.29730  0.42640  0.43150  1.0000 -0.4899157862
C   C565      1.0  0.25510  0.88420  0.93150  1.0000 -0.4899157862
C   C566      1.0  0.57360  0.00510  0.87090  1.0000 -0.4899157862
C   C567      1.0  0.13420  0.70270  0.12910  1.0000 -0.4899157862
C   C568      1.0  0.95270  0.32360  0.06850  1.0000 -0.4899157862
C   C569      1.0  0.00270  0.88200  0.53970  1.0000 0.2096809653
C   C570      1.0  0.71300  0.75270  0.62070  1.0000 0.2096809653
C   C571      1.0  0.13200  0.09230  0.37930  1.0000 0.2096809653
C   C572      1.0  0.34230  0.46300  0.46030  1.0000 0.2096809653
C   C573      1.0  0.24730  0.86800  0.96030  1.0000 0.2096809653
C   C574      1.0  0.53700  0.99730  0.87930  1.0000 0.2096809653
C   C575      1.0  0.11800  0.65770  0.12070  1.0000 0.2096809653
C   C576      1.0  0.90770  0.28700  0.03970  1.0000 0.2096809653
C   C577      1.0  0.03246  0.93108  0.53414  1.0000 -0.0995316853
C   C578      1.0  0.74832  0.78246  0.60138  1.0000 -0.0995316853
C   C579      1.0  0.18108  0.14694  0.39862  1.0000 -0.0995316853
C   C580      1.0  0.39694  0.49832  0.46586  1.0000 -0.0995316853
C   C581      1.0  0.21754  0.81892  0.96586  1.0000 -0.0995316853
C   C582      1.0  0.50168  0.96754  0.89862  1.0000 -0.0995316853
C   C583      1.0  0.06892  0.60306  0.10138  1.0000 -0.0995316853
C   C584      1.0  0.85306  0.25168  0.03414  1.0000 -0.0995316853
C   C585      1.0  0.02280  0.92110  0.50310  1.0000 0.19078331
C   C586      1.0  0.76970  0.77280  0.60170  1.0000 0.1826575425
C   C587      1.0  0.17110  0.16800  0.39830  1.0000 0.1826575425
C   C588      1.0  0.41800  0.51970  0.49690  1.0000 0.1826575425
C   C589      1.0  0.22720  0.82890  0.99690  1.0000 0.19078331
C   C590      1.0  0.48030  0.97720  0.89830  1.0000 0.1826575425
C   C591      1.0  0.07890  0.58200  0.10170  1.0000 0.19078331
C   C592      1.0  0.83200  0.23030  0.00310  1.0000 0.1826575425
C   C593      1.0  0.04460  0.95840  0.48380  1.0000 -0.4899157862
C   C594      1.0  0.81080  0.79460  0.58620  1.0000 -0.4899157862
C   C595      1.0  0.20840  0.22460  0.41380  1.0000 -0.4899157862
C   C596      1.0  0.47460  0.56080  0.51620  1.0000 -0.4899157862
C   C597      1.0  0.20540  0.79160  0.01620  1.0000 -0.4899157862
C   C598      1.0  0.43920  0.95540  0.91380  1.0000 -0.4899157862
C   C599      1.0  0.04160  0.52540  0.08620  1.0000 -0.4899157862
C   C600      1.0  0.77540  0.18920  0.98380  1.0000 -0.4899157862
C   C601      1.0  0.58240  0.80850  0.41350  1.0000 -0.4982091723
C   C602      1.0  0.41890  0.33240  0.27390  1.0000 -0.4982091723
C   C603      1.0  0.05850  0.14500  0.72610  1.0000 -0.4982091723
C   C604      1.0  0.39500  0.16890  0.58650  1.0000 -0.4982091723
C   C605      1.0  0.66760  0.94150  0.08650  1.0000 -0.4982091723
C   C606      1.0  0.83110  0.41760  0.22610  1.0000 -0.4982091723
C   C607      1.0  0.19150  0.60500  0.77390  1.0000 -0.4982091723
C   C608      1.0  0.85500  0.58110  0.91350  1.0000 -0.4982091723
C   C609      1.0  0.57790  0.82540  0.43970  1.0000 0.1826575425
C   C610      1.0  0.38820  0.32790  0.25250  1.0000 0.1826575425
C   C611      1.0  0.07540  0.13570  0.74750  1.0000 0.1826575425
C   C612      1.0  0.38570  0.13820  0.56030  1.0000 0.1826575425
C   C613      1.0  0.67210  0.92460  0.06030  1.0000 0.1826575425
C   C614      1.0  0.86180  0.42210  0.24750  1.0000 0.1826575425
C   C615      1.0  0.17460  0.61430  0.75250  1.0000 0.1826575425
C   C616      1.0  0.86430  0.61180  0.93970  1.0000 0.1826575425
C   C617      1.0  0.60940  0.85420  0.47040  1.0000 -0.0995316853
C   C618      1.0  0.38900  0.35940  0.25520  1.0000 -0.0995316853
C   C619      1.0  0.10420  0.13380  0.74480  1.0000 -0.0995316853
C   C620      1.0  0.38380  0.13900  0.52960  1.0000 -0.0995316853
C   C621      1.0  0.64060  0.89580  0.02960  1.0000 -0.0995316853
C   C622      1.0  0.86100  0.39060  0.24480  1.0000 -0.0995316853
C   C623      1.0  0.14580  0.61620  0.75520  1.0000 -0.0995316853
C   C624      1.0  0.86620  0.61100  0.97040  1.0000 -0.0995316853
C   C625      1.0  0.58710  0.85910  0.48420  1.0000 0.1998786962
C   C626      1.0  0.35290  0.33710  0.22800  1.0000 0.1998786962
C   C627      1.0  0.10910  0.12490  0.77200  1.0000 0.19078331
C   C628      1.0  0.37490  0.10290  0.51580  1.0000 0.1998786962
C   C629      1.0  0.66290  0.89090  0.01580  1.0000 0.19078331
C   C630      1.0  0.89710  0.41290  0.27200  1.0000 0.19078331
C   C631      1.0  0.14090  0.62510  0.72800  1.0000 0.1998786962
C   C632      1.0  0.87510  0.64710  0.98420  1.0000 0.19078331
C   C633      1.0  0.60210  0.88390  0.51720  1.0000 -0.479671287
C   C634      1.0  0.33490  0.35210  0.21820  1.0000 -0.479671287
C   C635      1.0  0.13390  0.11670  0.78180  1.0000 -0.479671287
C   C636      1.0  0.36670  0.08490  0.48280  1.0000 -0.479671287
C   C637      1.0  0.64790  0.86610  0.98280  1.0000 -0.479671287
C   C638      1.0  0.91510  0.39790  0.28180  1.0000 -0.479671287
C   C639      1.0  0.11610  0.63330  0.71820  1.0000 -0.479671287
C   C640      1.0  0.88330  0.66510  0.01720  1.0000 -0.479671287
C   C641      1.0  0.45660  0.80060  0.54360  1.0000 -0.4982091723
C   C642      1.0  0.16300  0.20660  0.15600  1.0000 -0.4982091723
C   C643      1.0  0.05060  0.00700  0.84400  1.0000 -0.4982091723
C   C644      1.0  0.25700  0.91300  0.45640  1.0000 -0.4982091723
C   C645      1.0  0.79340  0.94940  0.95640  1.0000 -0.4982091723
C   C646      1.0  0.08700  0.54340  0.34400  1.0000 -0.4982091723
C   C647      1.0  0.19940  0.74300  0.65600  1.0000 -0.4982091723
C   C648      1.0  0.99300  0.83700  0.04360  1.0000 -0.4982091723
C   C649      1.0  0.40611  0.75895  0.51586  1.0000 0.1998786962
C   C650      1.0  0.14025  0.15611  0.14716  1.0000 0.1998786962
C   C651      1.0  0.00895  0.99309  0.85284  1.0000 0.1998786962
C   C652      1.0  0.24309  0.89025  0.48414  1.0000 0.1998786962
C   C653      1.0  0.84389  0.99105  0.98414  1.0000 0.1998786962
C   C654      1.0  0.10975  0.59389  0.35284  1.0000 0.1998786962
C   C655      1.0  0.24105  0.75691  0.64716  1.0000 0.1998786962
C   C656      1.0  0.00691  0.85975  0.01586  1.0000 0.1998786962
C   C657      1.0  0.35240  0.71860  0.51460  1.0000 -0.1097824624
C   C658      1.0  0.08780  0.10240  0.13380  1.0000 -0.1097824624
C   C659      1.0  0.96860  0.95400  0.86620  1.0000 -0.1097824624
C   C660      1.0  0.20400  0.83780  0.48540  1.0000 -0.1097824624
C   C661      1.0  0.89760  0.03140  0.98540  1.0000 -0.1097824624
C   C662      1.0  0.16220  0.64760  0.36620  1.0000 -0.1097824624
C   C663      1.0  0.28140  0.79600  0.63380  1.0000 -0.1097824624
C   C664      1.0  0.04600  0.91220  0.01460  1.0000 -0.1097824624
C   C665      1.0  0.32550  0.69390  0.48300  1.0000 0.19078331
C   C666      1.0  0.09250  0.07550  0.13160  1.0000 0.19078331
C   C667      1.0  0.94390  0.96090  0.86840  1.0000 0.19078331
C   C668      1.0  0.21090  0.84250  0.51700  1.0000 0.19078331
C   C669      1.0  0.92450  0.05610  0.01700  1.0000 0.19078331
C   C670      1.0  0.15750  0.67450  0.36840  1.0000 0.19078331
C   C671      1.0  0.30610  0.78910  0.63160  1.0000 0.19078331
C   C672      1.0  0.03910  0.90750  0.98300  1.0000 0.19078331
C   C673      1.0  0.26650  0.64720  0.46750  1.0000 -0.4899157862
C   C674      1.0  0.04900  0.01650  0.11930  1.0000 -0.4899157862
C   C675      1.0  0.89720  0.92970  0.88070  1.0000 -0.479671287
C   C676      1.0  0.17970  0.79900  0.53250  1.0000 -0.4899157862
C   C677      1.0  0.98350  0.10280  0.03250  1.0000 -0.4899157862
C   C678      1.0  0.20100  0.73350  0.38070  1.0000 -0.4899157862
C   C679      1.0  0.35280  0.82030  0.61930  1.0000 -0.4899157862
C   C680      1.0  0.07030  0.95100  0.96750  1.0000 -0.4899157862
C   C681      1.0  0.24160  0.58410  0.36170  1.0000 -0.4899157862
C   C682      1.0  0.12990  0.99160  0.15750  1.0000 -0.4899157862
C   C683      1.0  0.83410  0.97240  0.84250  1.0000 -0.4899157862
C   C684      1.0  0.22240  0.87990  0.63830  1.0000 -0.4899157862
C   C685      1.0  0.00840  0.16590  0.13830  1.0000 -0.4899157862
C   C686      1.0  0.12010  0.75840  0.34250  1.0000 -0.4899157862
C   C687      1.0  0.41590  0.77760  0.65750  1.0000 -0.4899157862
C   C688      1.0  0.02760  0.87010  0.86170  1.0000 -0.4899157862
C   C689      1.0  0.29480  0.61500  0.36040  1.0000 0.1998786962
C   C690      1.0  0.18440  0.04480  0.17980  1.0000 0.1998786962
C   C691      1.0  0.86500  0.00460  0.82020  1.0000 0.19078331
C   C692      1.0  0.25460  0.93440  0.63960  1.0000 0.1998786962
C   C693      1.0  0.95520  0.13500  0.13960  1.0000 0.1998786962
C   C694      1.0  0.06560  0.70520  0.32020  1.0000 0.1998786962
C   C695      1.0  0.38500  0.74540  0.67980  1.0000 0.19078331
C   C696      1.0  0.99540  0.81560  0.86040  1.0000 0.1998786962
C   C697      1.0  0.30650  0.60180  0.34170  1.0000 -0.1274583789
C   C698      1.0  0.21480  0.05650  0.20470  1.0000 -0.1274583789
C   C699      1.0  0.85180  0.01010  0.79530  1.0000 -0.1274583789
C   C700      1.0  0.26010  0.96480  0.65830  1.0000 -0.1274583789
C   C701      1.0  0.94350  0.14820  0.15830  1.0000 -0.1274583789
C   C702      1.0  0.03520  0.69350  0.29530  1.0000 -0.1274583789
C   C703      1.0  0.39820  0.73990  0.70470  1.0000 -0.1274583789
C   C704      1.0  0.98990  0.78520  0.84170  1.0000 -0.1274583789
C   C705      1.0  0.36250  0.64600  0.35090  1.0000 0.2208049901
C   C706      1.0  0.26160  0.11250  0.21650  1.0000 0.2208049901
C   C707      1.0  0.89600  0.04510  0.78350  1.0000 0.2208049901
C   C708      1.0  0.29510  0.01160  0.64910  1.0000 0.2208049901
C   C709      1.0  0.88750  0.10400  0.14910  1.0000 0.2208049901
C   C710      1.0  0.98840  0.63750  0.28350  1.0000 0.2208049901
C   C711      1.0  0.35400  0.70490  0.71650  1.0000 0.2208049901
C   C712      1.0  0.95490  0.73840  0.85090  1.0000 0.2208049901
C   C713      1.0  0.39930  0.65590  0.33900  1.0000 -0.4899157862
C   C714      1.0  0.31030  0.14930  0.24340  1.0000 -0.4899157862
C   C715      1.0  0.90590  0.06690  0.75660  1.0000 -0.4899157862
C   C716      1.0  0.31690  0.06030  0.66100  1.0000 -0.4899157862
C   C717      1.0  0.85070  0.09410  0.16100  1.0000 -0.4899157862
C   C718      1.0  0.93970  0.60070  0.25660  1.0000 -0.4899157862
C   C719      1.0  0.34410  0.68310  0.74340  1.0000 -0.4899157862
C   C720      1.0  0.93310  0.68970  0.83900  1.0000 -0.4899157862
C   C721      1.0  0.04980  0.53960  0.63080  1.0000 -0.479671287
C   C722      1.0  0.66900  0.79980  0.01020  1.0000 -0.479671287
C   C723      1.0  0.78960  0.65880  0.98980  1.0000 -0.479671287
C   C724      1.0  0.90880  0.41900  0.36920  1.0000 -0.479671287
C   C725      1.0  0.20020  0.21040  0.86920  1.0000 -0.479671287
C   C726      1.0  0.58100  0.95020  0.48980  1.0000 -0.479671287
C   C727      1.0  0.46040  0.09120  0.51020  1.0000 -0.479671287
C   C728      1.0  0.34120  0.33100  0.13080  1.0000 -0.479671287
C   C729      1.0  0.08530  0.57450  0.61160  1.0000 0.1826575425
C   C730      1.0  0.72370  0.83530  0.01080  1.0000 0.1826575425
C   C731      1.0  0.82450  0.71290  0.98920  1.0000 0.1826575425
C   C732      1.0  0.96290  0.47370  0.38840  1.0000 0.1826575425
C   C733      1.0  0.16470  0.17550  0.88840  1.0000 0.1826575425
C   C734      1.0  0.52630  0.91470  0.48920  1.0000 0.1826575425
C   C735      1.0  0.42550  0.03710  0.51080  1.0000 0.1826575425
C   C736      1.0  0.28710  0.27630  0.11160  1.0000 0.1826575425
C   C737      1.0  0.07990  0.58860  0.58830  1.0000 -0.0926367631
C   C738      1.0  0.74160  0.82990  0.99130  1.0000 -0.0926367631
C   C739      1.0  0.83860  0.75030  0.00870  1.0000 -0.0926367631
C   C740      1.0  0.00030  0.49160  0.41170  1.0000 -0.0926367631
C   C741      1.0  0.17010  0.16140  0.91170  1.0000 -0.0926367631
C   C742      1.0  0.50840  0.92010  0.50870  1.0000 -0.0926367631
C   C743      1.0  0.41140  0.99970  0.49130  1.0000 -0.0926367631
C   C744      1.0  0.24970  0.25840  0.08830  1.0000 -0.0926367631
C   C745      1.0  0.12560  0.62060  0.57760  1.0000 0.2096809653
C   C746      1.0  0.79800  0.87560  0.00500  1.0000 0.2096809653
C   C747      1.0  0.87060  0.79300  0.99500  1.0000 0.2096809653
C   C748      1.0  0.04300  0.54800  0.42240  1.0000 0.2096809653
C   C749      1.0  0.12440  0.12940  0.92240  1.0000 0.2096809653
C   C750      1.0  0.45200  0.87440  0.49500  1.0000 0.2096809653
C   C751      1.0  0.37940  0.95700  0.50500  1.0000 0.2096809653
C   C752      1.0  0.20700  0.20200  0.07760  1.0000 0.2096809653
C   C753      1.0  0.14020  0.64540  0.55140  1.0000 -0.4982091723
C   C754      1.0  0.83880  0.89020  0.99480  1.0000 -0.4982091723
C   C755      1.0  0.89540  0.84400  0.00520  1.0000 -0.4982091723
C   C756      1.0  0.09400  0.58880  0.44860  1.0000 -0.4982091723
C   C757      1.0  0.10980  0.10460  0.94860  1.0000 -0.4982091723
C   C758      1.0  0.41120  0.85980  0.50520  1.0000 -0.4982091723
C   C759      1.0  0.35460  0.90600  0.49480  1.0000 -0.4982091723
C   C760      1.0  0.15600  0.16120  0.05140  1.0000 -0.4982091723
C   C761      1.0  0.28810  0.72280  0.53090  1.0000 -0.4899157862
C   C762      1.0  0.00720  0.03810  0.06530  1.0000 -0.4899157862
C   C763      1.0  0.97280  0.94190  0.93470  1.0000 -0.4899157862
C   C764      1.0  0.19190  0.75720  0.46910  1.0000 -0.4899157862
C   C765      1.0  0.96190  0.02720  0.96910  1.0000 -0.4899157862
C   C766      1.0  0.24280  0.71190  0.43470  1.0000 -0.4899157862
C   C767      1.0  0.27720  0.80810  0.56530  1.0000 -0.4899157862
C   C768      1.0  0.05810  0.99280  0.03090  1.0000 -0.4899157862
C   C769      1.0  0.30160  0.70660  0.54720  1.0000 0.19078331
C   C770      1.0  0.00440  0.05160  0.09500  1.0000 0.19078331
C   C771      1.0  0.95660  0.90940  0.90500  1.0000 0.19078331
C   C772      1.0  0.15940  0.75440  0.45280  1.0000 0.19078331
C   C773      1.0  0.94840  0.04340  0.95280  1.0000 0.19078331
C   C774      1.0  0.24560  0.69840  0.40500  1.0000 0.19078331
C   C775      1.0  0.29340  0.84060  0.59500  1.0000 0.19078331
C   C776      1.0  0.09060  0.99560  0.04720  1.0000 0.19078331
C   C777      1.0  0.32940  0.70596  0.54056  1.0000 -0.1097824624
C   C778      1.0  0.03884  0.07940  0.12344  1.0000 -0.1097824624
C   C779      1.0  0.95596  0.91540  0.87656  1.0000 -0.1097824624
C   C780      1.0  0.16540  0.78884  0.45944  1.0000 -0.1097824624
C   C781      1.0  0.92060  0.04404  0.95944  1.0000 -0.1097824624
C   C782      1.0  0.21116  0.67060  0.37656  1.0000 -0.1097824624
C   C783      1.0  0.29404  0.83460  0.62344  1.0000 -0.1097824624
C   C784      1.0  0.08460  0.96116  0.04056  1.0000 -0.1097824624
C   C785      1.0  0.32950  0.68750  0.56400  1.0000 0.2096809653
C   C786      1.0  0.01550  0.07950  0.14200  1.0000 0.2096809653
C   C787      1.0  0.93750  0.87350  0.85800  1.0000 0.2096809653
C   C788      1.0  0.12350  0.76550  0.43600  1.0000 0.2096809653
C   C789      1.0  0.92050  0.06250  0.93600  1.0000 0.2096809653
C   C790      1.0  0.23450  0.67050  0.35800  1.0000 0.2096809653
C   C791      1.0  0.31250  0.87650  0.64200  1.0000 0.2096809653
C   C792      1.0  0.12650  0.98450  0.06400  1.0000 0.2096809653
C   C793      1.0  0.35180  0.67610  0.56830  1.0000 -0.479671287
C   C794      1.0  0.03350  0.10180  0.17570  1.0000 -0.479671287
C   C795      1.0  0.92610  0.85780  0.82430  1.0000 -0.479671287
C   C796      1.0  0.10780  0.78350  0.43170  1.0000 -0.479671287
C   C797      1.0  0.89820  0.07390  0.93170  1.0000 -0.479671287
C   C798      1.0  0.21650  0.64820  0.32430  1.0000 -0.479671287
C   C799      1.0  0.32390  0.89220  0.67570  1.0000 -0.479671287
C   C800      1.0  0.14220  0.96650  0.06830  1.0000 -0.479671287
C   C801      1.0  0.27780  0.57910  0.65390  1.0000 -0.4982091723
C   C802      1.0  0.87390  0.02780  0.19870  1.0000 -0.4982091723
C   C803      1.0  0.82910  0.67520  0.80130  1.0000 -0.4982091723
C   C804      1.0  0.92520  0.62390  0.34610  1.0000 -0.4982091723
C   C805      1.0  0.97220  0.17090  0.84610  1.0000 -0.4982091723
C   C806      1.0  0.37610  0.72220  0.30130  1.0000 -0.4982091723
C   C807      1.0  0.42090  0.07480  0.69870  1.0000 -0.4982091723
C   C808      1.0  0.32480  0.12610  0.15390  1.0000 -0.4982091723
C   C809      1.0  0.23233  0.56170  0.65583  1.0000 0.19078331
C   C810      1.0  0.82650  0.98233  0.17063  1.0000 0.19078331
C   C811      1.0  0.81170  0.65587  0.82937  1.0000 0.19078331
C   C812      1.0  0.90587  0.57650  0.34417  1.0000 0.19078331
C   C813      1.0  0.01767  0.18830  0.84417  1.0000 0.19078331
C   C814      1.0  0.42350  0.76767  0.32937  1.0000 0.19078331
C   C815      1.0  0.43830  0.09413  0.67063  1.0000 0.19078331
C   C816      1.0  0.34413  0.17350  0.15583  1.0000 0.19078331
C   C817      1.0  0.19254  0.52577  0.67031  1.0000 -0.1097824624
C   C818      1.0  0.77223  0.94254  0.16677  1.0000 -0.1097824624
C   C819      1.0  0.77577  0.60546  0.83323  1.0000 -0.1097824624
C   C820      1.0  0.85546  0.52223  0.32969  1.0000 -0.1097824624
C   C821      1.0  0.05746  0.22423  0.82969  1.0000 -0.1097824624
C   C822      1.0  0.47777  0.80746  0.33323  1.0000 -0.1097824624
C   C823      1.0  0.47423  0.14454  0.66677  1.0000 -0.1097824624
C   C824      1.0  0.39454  0.22777  0.17031  1.0000 -0.1097824624
C   C825      1.0  0.16350  0.52799  0.66589  1.0000 0.1998786962
C   C826      1.0  0.74761  0.91350  0.13551  1.0000 0.1998786962
C   C827      1.0  0.77799  0.61210  0.86449  1.0000 0.1998786962
C   C828      1.0  0.86210  0.49761  0.33411  1.0000 0.1998786962
C   C829      1.0  0.08650  0.22201  0.83411  1.0000 0.1998786962
C   C830      1.0  0.50239  0.83650  0.36449  1.0000 0.1998786962
C   C831      1.0  0.47201  0.13790  0.63551  1.0000 0.1998786962
C   C832      1.0  0.38790  0.25239  0.16589  1.0000 0.1998786962
C   C833      1.0  0.11350  0.49730  0.67480  1.0000 -0.4618917433
C   C834      1.0  0.68870  0.86350  0.11620  1.0000 -0.4618917433
C   C835      1.0  0.74730  0.57250  0.88380  1.0000 -0.4618917433
C   C836      1.0  0.82250  0.43870  0.32520  1.0000 -0.4618917433
C   C837      1.0  0.13650  0.25270  0.82520  1.0000 -0.4618917433
C   C838      1.0  0.56130  0.88650  0.38380  1.0000 -0.4618917433
C   C839      1.0  0.50270  0.17750  0.61620  1.0000 -0.4618917433
C   C840      1.0  0.42750  0.31130  0.17480  1.0000 -0.4618917433
C   C841      1.0  0.70090  0.34490  0.43220  1.0000 -0.4719944868
C   C842      1.0  0.51870  0.45090  0.85600  1.0000 -0.4719944868
C   C843      1.0  0.59490  0.66270  0.14400  1.0000 -0.4719944868
C   C844      1.0  0.91270  0.26870  0.56780  1.0000 -0.4719944868
C   C845      1.0  0.54910  0.40510  0.06780  1.0000 -0.4719944868
C   C846      1.0  0.73130  0.29910  0.64400  1.0000 -0.4719944868
C   C847      1.0  0.65510  0.08730  0.35600  1.0000 -0.4719944868
C   C848      1.0  0.33730  0.48130  0.93220  1.0000 -0.4719944868
C   C849      1.0  0.73480  0.35100  0.45220  1.0000 0.19078331
C   C850      1.0  0.53260  0.48480  0.88380  1.0000 0.19078331
C   C851      1.0  0.60100  0.64880  0.11620  1.0000 0.19078331
C   C852      1.0  0.89880  0.28260  0.54780  1.0000 0.19078331
C   C853      1.0  0.51520  0.39900  0.04780  1.0000 0.19078331
C   C854      1.0  0.71740  0.26520  0.61620  1.0000 0.19078331
C   C855      1.0  0.64900  0.10120  0.38380  1.0000 0.19078331
C   C856      1.0  0.35120  0.46740  0.95220  1.0000 0.19078331
C   C857      1.0  0.72100  0.30980  0.45420  1.0000 -0.0995316853
C   C858      1.0  0.51680  0.47100  0.91120  1.0000 -0.0995316853
C   C859      1.0  0.55980  0.60560  0.08880  1.0000 -0.0995316853
C   C860      1.0  0.85560  0.26680  0.54580  1.0000 -0.0995316853
C   C861      1.0  0.52900  0.44020  0.04580  1.0000 -0.0995316853
C   C862      1.0  0.73320  0.27900  0.58880  1.0000 -0.0995316853
C   C863      1.0  0.69020  0.14440  0.41120  1.0000 -0.0995316853
C   C864      1.0  0.39440  0.48320  0.95420  1.0000 -0.0995316853
C   C865      1.0  0.76770  0.33900  0.47590  1.0000 0.19078331
C   C866      1.0  0.54180  0.51770  0.92870  1.0000 0.19078331
C   C867      1.0  0.58900  0.61310  0.07130  1.0000 0.19078331
C   C868      1.0  0.86310  0.29180  0.52410  1.0000 0.19078331
C   C869      1.0  0.48230  0.41100  0.02410  1.0000 0.19078331
C   C870      1.0  0.70820  0.23230  0.57130  1.0000 0.19078331
C   C871      1.0  0.66100  0.13690  0.42870  1.0000 0.19078331
C   C872      1.0  0.38690  0.45820  0.97590  1.0000 0.19078331
C   C873      1.0  0.77900  0.31900  0.48780  1.0000 -0.4982091723
C   C874      1.0  0.54120  0.52900  0.96000  1.0000 -0.4982091723
C   C875      1.0  0.56900  0.58120  0.04000  1.0000 -0.4982091723
C   C876      1.0  0.83120  0.29120  0.51220  1.0000 -0.4982091723
C   C877      1.0  0.47100  0.43100  0.01220  1.0000 -0.4982091723
C   C878      1.0  0.70880  0.22100  0.54000  1.0000 -0.4982091723
C   C879      1.0  0.68100  0.16880  0.46000  1.0000 -0.4982091723
C   C880      1.0  0.41880  0.45880  0.98780  1.0000 -0.4982091723
C   C881      1.0  0.95530  0.46550  0.55520  1.0000 -0.479671287
C   C882      1.0  0.65010  0.70530  0.98980  1.0000 -0.479671287
C   C883      1.0  0.71550  0.66030  0.01020  1.0000 -0.479671287
C   C884      1.0  0.91030  0.40010  0.44480  1.0000 -0.479671287
C   C885      1.0  0.29470  0.28450  0.94480  1.0000 -0.479671287
C   C886      1.0  0.59990  0.04470  0.51020  1.0000 -0.479671287
C   C887      1.0  0.53450  0.08970  0.48980  1.0000 -0.479671287
C   C888      1.0  0.33970  0.34990  0.05520  1.0000 -0.479671287
C   C889      1.0  0.98240  0.51820  0.56000  1.0000 0.1998786962
C   C890      1.0  0.67240  0.73240  0.96420  1.0000 0.1998786962
C   C891      1.0  0.76820  0.70820  0.03580  1.0000 0.1998786962
C   C892      1.0  0.95820  0.42240  0.44000  1.0000 0.1998786962
C   C893      1.0  0.26760  0.23180  0.94000  1.0000 0.1998786962
C   C894      1.0  0.57760  0.01760  0.53580  1.0000 0.1998786962
C   C895      1.0  0.48180  0.04180  0.46420  1.0000 0.1998786962
C   C896      1.0  0.29180  0.32760  0.06000  1.0000 0.1998786962
C   C897      1.0  0.03560  0.57100  0.57540  1.0000 -0.1191798451
C   C898      1.0  0.71020  0.78560  0.96460  1.0000 -0.1191798451
C   C899      1.0  0.82100  0.74560  0.03540  1.0000 -0.1191798451
C   C900      1.0  0.99560  0.46020  0.42460  1.0000 -0.1191798451
C   C901      1.0  0.21440  0.17900  0.92460  1.0000 -0.1191798451
C   C902      1.0  0.53980  0.96440  0.53540  1.0000 -0.1191798451
C   C903      1.0  0.42900  0.00440  0.46460  1.0000 -0.1191798451
C   C904      1.0  0.25440  0.28980  0.07540  1.0000 -0.1191798451
C   C905      1.0  0.03810  0.60270  0.57100  1.0000 0.1998786962
C   C906      1.0  0.71710  0.78810  0.93540  1.0000 0.1998786962
C   C907      1.0  0.85270  0.78170  0.06460  1.0000 0.1998786962
C   C908      1.0  0.03170  0.46710  0.42900  1.0000 0.1998786962
C   C909      1.0  0.21190  0.14730  0.92900  1.0000 0.1998786962
C   C910      1.0  0.53290  0.96190  0.56460  1.0000 0.1998786962
C   C911      1.0  0.39730  0.96830  0.43540  1.0000 0.1998786962
C   C912      1.0  0.21830  0.28290  0.07100  1.0000 0.1998786962
C   C913      1.0  0.08310  0.66240  0.58250  1.0000 -0.4982091723
C   C914      1.0  0.75060  0.83310  0.92070  1.0000 -0.4982091723
C   C915      1.0  0.91240  0.82990  0.07930  1.0000 -0.4982091723
C   C916      1.0  0.07990  0.50060  0.41750  1.0000 -0.4982091723
C   C917      1.0  0.16690  0.08760  0.91750  1.0000 -0.4982091723
C   C918      1.0  0.49940  0.91690  0.57930  1.0000 -0.4982091723
C   C919      1.0  0.33760  0.92010  0.42070  1.0000 -0.4982091723
C   C920      1.0  0.17010  0.24940  0.08250  1.0000 -0.4982091723
C   C921      1.0  0.01360  0.70000  0.52620  1.0000 -0.479671287
C   C922      1.0  0.73740  0.76360  0.81360  1.0000 -0.479671287
C   C923      1.0  0.95000  0.92380  0.18640  1.0000 -0.479671287
C   C924      1.0  0.17380  0.48740  0.47380  1.0000 -0.479671287
C   C925      1.0  0.23640  0.05000  0.97380  1.0000 -0.479671287
C   C926      1.0  0.51260  0.98640  0.68640  1.0000 -0.479671287
C   C927      1.0  0.30000  0.82620  0.31360  1.0000 -0.479671287
C   C928      1.0  0.07620  0.26260  0.02620  1.0000 -0.479671287
C   C929      1.0  0.95580  0.64480  0.51080  1.0000 0.1826575425
C   C930      1.0  0.69500  0.70580  0.81100  1.0000 0.1826575425
C   C931      1.0  0.89480  0.88400  0.18900  1.0000 0.1826575425
C   C932      1.0  0.13400  0.44500  0.48920  1.0000 0.1826575425
C   C933      1.0  0.29420  0.10520  0.98920  1.0000 0.1826575425
C   C934      1.0  0.55500  0.04420  0.68900  1.0000 0.1826575425
C   C935      1.0  0.35520  0.86600  0.31100  1.0000 0.1826575425
C   C936      1.0  0.11600  0.30500  0.01080  1.0000 0.1826575425
C   C937      1.0  0.91560  0.62860  0.49400  1.0000 -0.0995316853
C   C938      1.0  0.67160  0.66560  0.78700  1.0000 -0.0995316853
C   C939      1.0  0.87860  0.88460  0.21300  1.0000 -0.0995316853
C   C940      1.0  0.13460  0.42160  0.50600  1.0000 -0.0995316853
C   C941      1.0  0.33440  0.12140  0.00600  1.0000 -0.0995316853
C   C942      1.0  0.57840  0.08440  0.71300  1.0000 -0.0995316853
C   C943      1.0  0.37140  0.86540  0.28700  1.0000 -0.0995316853
C   C944      1.0  0.11540  0.32840  0.99400  1.0000 -0.0995316853
C   C945      1.0  0.87046  0.57190  0.48196  1.0000 0.1998786962
C   C946      1.0  0.63850  0.62046  0.79856  1.0000 0.1998786962
C   C947      1.0  0.82190  0.83994  0.20144  1.0000 0.1998786962
C   C948      1.0  0.08994  0.38850  0.51804  1.0000 0.1998786962
C   C949      1.0  0.37954  0.17810  0.01804  1.0000 0.1998786962
C   C950      1.0  0.61150  0.12954  0.70144  1.0000 0.1998786962
C   C951      1.0  0.42810  0.91006  0.29856  1.0000 0.1998786962
C   C952      1.0  0.16006  0.36150  0.98196  1.0000 0.1998786962
C   C953      1.0  0.81340  0.52950  0.46150  1.0000 -0.4982091723
C   C954      1.0  0.60190  0.56340  0.78390  1.0000 -0.4982091723
C   C955      1.0  0.77950  0.81800  0.21610  1.0000 -0.4982091723
C   C956      1.0  0.06800  0.35190  0.53850  1.0000 -0.4982091723
C   C957      1.0  0.43660  0.22050  0.03850  1.0000 -0.4982091723
C   C958      1.0  0.64810  0.18660  0.71610  1.0000 -0.4982091723
C   C959      1.0  0.47050  0.93200  0.28390  1.0000 -0.4982091723
C   C960      1.0  0.18200  0.39810  0.96150  1.0000 -0.4982091723
C   C961      1.0  0.45200  0.98830  0.24890  1.0000 -0.4982091723
C   C962      1.0  0.45310  0.20200  0.96370  1.0000 -0.4982091723
C   C963      1.0  0.23830  0.48940  0.03630  1.0000 -0.4982091723
C   C964      1.0  0.73940  0.20310  0.75110  1.0000 -0.4982091723
C   C965      1.0  0.79800  0.76170  0.25110  1.0000 -0.4982091723
C   C966      1.0  0.79690  0.54800  0.53630  1.0000 -0.4982091723
C   C967      1.0  0.01170  0.26060  0.46370  1.0000 -0.4982091723
C   C968      1.0  0.51060  0.54690  0.74890  1.0000 -0.4982091723
C   C969      1.0  0.50740  0.03360  0.27240  1.0000 0.1998786962
C   C970      1.0  0.48500  0.25740  0.97380  1.0000 0.1998786962
C   C971      1.0  0.28360  0.51120  0.02620  1.0000 0.1998786962
C   C972      1.0  0.76120  0.23500  0.72760  1.0000 0.1998786962
C   C973      1.0  0.74260  0.71640  0.22760  1.0000 0.1998786962
C   C974      1.0  0.76500  0.49260  0.52620  1.0000 0.1998786962
C   C975      1.0  0.96640  0.23880  0.47380  1.0000 0.1998786962
C   C976      1.0  0.48880  0.51500  0.77240  1.0000 0.1998786962
C   C977      1.0  0.55670  0.06900  0.26770  1.0000 -0.1191798451
C   C978      1.0  0.53900  0.30670  0.98770  1.0000 -0.1191798451
C   C979      1.0  0.31900  0.55130  0.01230  1.0000 -0.1191798451
C   C980      1.0  0.80130  0.28900  0.73230  1.0000 -0.1274583789
C   C981      1.0  0.69330  0.68100  0.23230  1.0000 -0.1191798451
C   C982      1.0  0.71100  0.44330  0.51230  1.0000 -0.1274583789
C   C983      1.0  0.93100  0.19870  0.48770  1.0000 -0.1191798451
C   C984      1.0  0.44870  0.46100  0.76770  1.0000 -0.1274583789
C   C985      1.0  0.59420  0.10270  0.29630  1.0000 0.1826575425
C   C986      1.0  0.54790  0.34420  0.99150  1.0000 0.1826575425
C   C987      1.0  0.35270  0.55640  0.00850  1.0000 0.1826575425
C   C988      1.0  0.80640  0.29790  0.70370  1.0000 0.1826575425
C   C989      1.0  0.65580  0.64730  0.20370  1.0000 0.1826575425
C   C990      1.0  0.70210  0.40580  0.50850  1.0000 0.1826575425
C   C991      1.0  0.89730  0.19360  0.49150  1.0000 0.1826575425
C   C992      1.0  0.44360  0.45210  0.79630  1.0000 0.1826575425
C   C993      1.0  0.65460  0.14960  0.30560  1.0000 -0.479671287
C   C994      1.0  0.59900  0.40460  0.00500  1.0000 -0.479671287
C   C995      1.0  0.39960  0.59400  0.99500  1.0000 -0.479671287
C   C996      1.0  0.84400  0.34900  0.69440  1.0000 -0.479671287
C   C997      1.0  0.59540  0.60040  0.19440  1.0000 -0.479671287
C   C998      1.0  0.65100  0.34540  0.49500  1.0000 -0.479671287
C   C999      1.0  0.85040  0.15600  0.50500  1.0000 -0.479671287
C   C1000     1.0  0.40600  0.40100  0.80560  1.0000 -0.479671287
C   C1001     1.0  0.71750  0.25210  0.40660  1.0000 -0.4899157862
C   C1002     1.0  0.56090  0.46750  0.96540  1.0000 -0.4899157862
C   C1003     1.0  0.50210  0.59550  0.03460  1.0000 -0.4899157862
C   C1004     1.0  0.84550  0.31090  0.59340  1.0000 -0.4899157862
C   C1005     1.0  0.53250  0.49790  0.09340  1.0000 -0.4899157862
C   C1006     1.0  0.68910  0.28250  0.53460  1.0000 -0.4899157862
C   C1007     1.0  0.74790  0.15450  0.46540  1.0000 -0.4899157862
C   C1008     1.0  0.40450  0.43910  0.90660  1.0000 -0.4899157862
C   C1009     1.0  0.67280  0.22860  0.41600  1.0000 0.19078331
C   C1010     1.0  0.50680  0.42280  0.94420  1.0000 0.19078331
C   C1011     1.0  0.47860  0.56260  0.05580  1.0000 0.19078331
C   C1012     1.0  0.81260  0.25680  0.58400  1.0000 0.19078331
C   C1013     1.0  0.57720  0.52140  0.08400  1.0000 0.19078331
C   C1014     1.0  0.74320  0.32720  0.55580  1.0000 0.19078331
C   C1015     1.0  0.77140  0.18740  0.44420  1.0000 0.19078331
C   C1016     1.0  0.43740  0.49320  0.91600  1.0000 0.19078331
C   C1017     1.0  0.67250  0.25220  0.43710  1.0000 -0.1274583789
C   C1018     1.0  0.48540  0.42250  0.92030  1.0000 -0.1274583789
C   C1019     1.0  0.50220  0.56510  0.07970  1.0000 -0.1274583789
C   C1020     1.0  0.81510  0.23540  0.56290  1.0000 -0.1274583789
C   C1021     1.0  0.57750  0.49780  0.06290  1.0000 -0.1274583789
C   C1022     1.0  0.76460  0.32750  0.57970  1.0000 -0.1274583789
C   C1023     1.0  0.74780  0.18490  0.42030  1.0000 -0.1274583789
C   C1024     1.0  0.43490  0.51460  0.93710  1.0000 -0.1274583789
C   C1025     1.0  0.61800  0.21080  0.43640  1.0000 0.1998786962
C   C1026     1.0  0.43160  0.36800  0.90720  1.0000 0.1998786962
C   C1027     1.0  0.46080  0.52440  0.09280  1.0000 0.1998786962
C   C1028     1.0  0.77440  0.18160  0.56360  1.0000 0.1998786962
C   C1029     1.0  0.63200  0.53920  0.06360  1.0000 0.1998786962
C   C1030     1.0  0.81840  0.38200  0.59280  1.0000 0.1998786962
C   C1031     1.0  0.78920  0.22560  0.40720  1.0000 0.1998786962
C   C1032     1.0  0.47560  0.56840  0.93640  1.0000 0.1998786962
C   C1033     1.0  0.59340  0.21280  0.45400  1.0000 -0.479671287
C   C1034     1.0  0.38940  0.34340  0.88060  1.0000 -0.479671287
C   C1035     1.0  0.46280  0.50880  0.11940  1.0000 -0.479671287
C   C1036     1.0  0.75880  0.13940  0.54600  1.0000 -0.479671287
C   C1037     1.0  0.65660  0.53720  0.04600  1.0000 -0.479671287
C   C1038     1.0  0.86060  0.40660  0.61940  1.0000 -0.479671287
C   C1039     1.0  0.78720  0.24120  0.38060  1.0000 -0.479671287
C   C1040     1.0  0.49120  0.61060  0.95400  1.0000 -0.479671287
C   C1041     1.0  0.39430  0.05090  0.39280  1.0000 -0.479671287
C   C1042     1.0  0.25150  0.14430  0.84340  1.0000 -0.479671287
C   C1043     1.0  0.30090  0.40810  0.15660  1.0000 -0.479671287
C   C1044     1.0  0.65810  0.00150  0.60720  1.0000 -0.479671287
C   C1045     1.0  0.85570  0.69910  0.10720  1.0000 -0.479671287
C   C1046     1.0  0.99850  0.60570  0.65660  1.0000 -0.479671287
C   C1047     1.0  0.94910  0.34190  0.34340  1.0000 -0.479671287
C   C1048     1.0  0.59190  0.74850  0.89280  1.0000 -0.479671287
C   C1049     1.0  0.38680  0.02030  0.36770  1.0000 0.2096809653
C   C1050     1.0  0.26910  0.13680  0.86650  1.0000 0.2096809653
C   C1051     1.0  0.27030  0.40260  0.13350  1.0000 0.2096809653
C   C1052     1.0  0.65260  0.01910  0.63230  1.0000 0.2096809653
C   C1053     1.0  0.86320  0.72970  0.13230  1.0000 0.2096809653
C   C1054     1.0  0.98090  0.61320  0.63350  1.0000 0.2096809653
C   C1055     1.0  0.97970  0.34740  0.36650  1.0000 0.2096809653
C   C1056     1.0  0.59740  0.73090  0.86770  1.0000 0.2096809653
C   C1057     1.0  0.34620  0.98250  0.33990  1.0000 -0.1097824624
C   C1058     1.0  0.25630  0.09620  0.86370  1.0000 -0.1097824624
C   C1059     1.0  0.23250  0.39260  0.13630  1.0000 -0.1097824624
C   C1060     1.0  0.64260  0.00630  0.66010  1.0000 -0.1097824624
C   C1061     1.0  0.90380  0.76750  0.16010  1.0000 -0.1097824624
C   C1062     1.0  0.99370  0.65380  0.63630  1.0000 -0.1097824624
C   C1063     1.0  0.01750  0.35740  0.36370  1.0000 -0.1097824624
C   C1064     1.0  0.60740  0.74370  0.83990  1.0000 -0.1097824624
C   C1065     1.0  0.36020  0.96840  0.32560  1.0000 0.19078331
C   C1066     1.0  0.28460  0.11020  0.89180  1.0000 0.19078331
C   C1067     1.0  0.21840  0.39280  0.10820  1.0000 0.19078331
C   C1068     1.0  0.64280  0.03460  0.67440  1.0000 0.19078331
C   C1069     1.0  0.88980  0.78160  0.17440  1.0000 0.19078331
C   C1070     1.0  0.96540  0.63980  0.60820  1.0000 0.19078331
C   C1071     1.0  0.03160  0.35720  0.39180  1.0000 0.19078331
C   C1072     1.0  0.60720  0.71540  0.82560  1.0000 0.19078331
C   C1073     1.0  0.33100  0.92830  0.29550  1.0000 -0.4982091723
C   C1074     1.0  0.28550  0.08100  0.90270  1.0000 -0.4982091723
C   C1075     1.0  0.17830  0.38280  0.09730  1.0000 -0.4982091723
C   C1076     1.0  0.63280  0.03550  0.70450  1.0000 -0.4982091723
C   C1077     1.0  0.91900  0.82170  0.20450  1.0000 -0.4982091723
C   C1078     1.0  0.96450  0.66900  0.59730  1.0000 -0.4982091723
C   C1079     1.0  0.07170  0.36720  0.40270  1.0000 -0.4982091723
C   C1080     1.0  0.61720  0.71450  0.79550  1.0000 -0.4982091723
C   C1081     1.0  0.17570  0.51350  0.73880  1.0000 -0.479671287
C   C1082     1.0  0.68690  0.92570  0.16220  1.0000 -0.4899157862
C   C1083     1.0  0.76350  0.52470  0.83780  1.0000 -0.479671287
C   C1084     1.0  0.77470  0.43690  0.26120  1.0000 -0.4899157862
C   C1085     1.0  0.07430  0.23650  0.76120  1.0000 -0.479671287
C   C1086     1.0  0.56310  0.82430  0.33780  1.0000 -0.479671287
C   C1087     1.0  0.48650  0.22530  0.66220  1.0000 -0.479671287
C   C1088     1.0  0.47530  0.31310  0.23880  1.0000 -0.4899157862
C   C1089     1.0  0.16820  0.48240  0.71440  1.0000 0.19078331
C   C1090     1.0  0.70380  0.91820  0.18580  1.0000 0.19078331
C   C1091     1.0  0.73240  0.51800  0.81420  1.0000 0.19078331
C   C1092     1.0  0.76800  0.45380  0.28560  1.0000 0.19078331
C   C1093     1.0  0.08180  0.26760  0.78560  1.0000 0.19078331
C   C1094     1.0  0.54620  0.83180  0.31420  1.0000 0.19078331
C   C1095     1.0  0.51760  0.23200  0.68580  1.0000 0.19078331
C   C1096     1.0  0.48200  0.29620  0.21440  1.0000 0.19078331
C   C1097     1.0  0.17891  0.49008  0.68579  1.0000 -0.1097824624
C   C1098     1.0  0.74312  0.92891  0.18883  1.0000 -0.1097824624
C   C1099     1.0  0.74008  0.55429  0.81117  1.0000 -0.1097824624
C   C1100     1.0  0.80429  0.49312  0.31421  1.0000 -0.1097824624
C   C1101     1.0  0.07109  0.25992  0.81421  1.0000 -0.1097824624
C   C1102     1.0  0.50688  0.82109  0.31117  1.0000 -0.1097824624
C   C1103     1.0  0.50992  0.19571  0.68883  1.0000 -0.1097824624
C   C1104     1.0  0.44571  0.25688  0.18579  1.0000 -0.1097824624
C   C1105     1.0  0.16546  0.45050  0.67336  1.0000 0.2096809653
C   C1106     1.0  0.74210  0.91546  0.21496  1.0000 0.2096809653
C   C1107     1.0  0.70050  0.52714  0.78504  1.0000 0.2096809653
C   C1108     1.0  0.77714  0.49210  0.32664  1.0000 0.2096809653
C   C1109     1.0  0.08454  0.29950  0.82664  1.0000 0.2096809653
C   C1110     1.0  0.50790  0.83454  0.28504  1.0000 0.2096809653
C   C1111     1.0  0.54950  0.22286  0.71496  1.0000 0.2096809653
C   C1112     1.0  0.47286  0.25790  0.17336  1.0000 0.2096809653
C   C1113     1.0  0.16720  0.43710  0.64290  1.0000 -0.4982091723
C   C1114     1.0  0.77430  0.91720  0.23010  1.0000 -0.4982091723
C   C1115     1.0  0.68710  0.54420  0.76990  1.0000 -0.4982091723
C   C1116     1.0  0.79420  0.52430  0.35710  1.0000 -0.4982091723
C   C1117     1.0  0.08280  0.31290  0.85710  1.0000 -0.4982091723
C   C1118     1.0  0.47570  0.83280  0.26990  1.0000 -0.4982091723
C   C1119     1.0  0.56290  0.20580  0.73010  1.0000 -0.4982091723
C   C1120     1.0  0.45580  0.22570  0.14290  1.0000 -0.4982091723
C   C1121     1.0  0.05160  0.25150  0.62050  1.0000 -0.4982091723
C   C1122     1.0  0.68110  0.80160  0.30010  1.0000 -0.4982091723
C   C1123     1.0  0.50150  0.38100  0.69990  1.0000 -0.4982091723
C   C1124     1.0  0.63100  0.43110  0.37950  1.0000 -0.4982091723
C   C1125     1.0  0.19840  0.49850  0.87950  1.0000 -0.4982091723
C   C1126     1.0  0.56890  0.94840  0.19990  1.0000 -0.4982091723
C   C1127     1.0  0.74850  0.36900  0.80010  1.0000 -0.4982091723
C   C1128     1.0  0.61900  0.31890  0.12050  1.0000 -0.4982091723
C   C1129     1.0  0.02810  0.23020  0.64690  1.0000 0.1998786962
C   C1130     1.0  0.63120  0.77810  0.29790  1.0000 0.1998786962
C   C1131     1.0  0.48020  0.33333  0.70210  1.0000 0.1998786962
C   C1132     1.0  0.58330  0.38120  0.35310  1.0000 0.1998786962
C   C1133     1.0  0.22190  0.51980  0.85310  1.0000 0.1998786962
C   C1134     1.0  0.61880  0.97190  0.20210  1.0000 0.1998786962
C   C1135     1.0  0.76980  0.41670  0.79790  1.0000 0.1998786962
C   C1136     1.0  0.66667  0.36880  0.14690  1.0000 0.1998786962
C   C1137     1.0  0.98416  0.17576  0.64892  1.0000 -0.1191798451
C   C1138     1.0  0.58524  0.73416  0.30840  1.0000 -0.1191798451
C   C1139     1.0  0.42576  0.27684  0.69160  1.0000 -0.1191798451
C   C1140     1.0  0.52684  0.33524  0.35108  1.0000 -0.1191798451
C   C1141     1.0  0.26584  0.57424  0.85108  1.0000 -0.1191798451
C   C1142     1.0  0.66476  0.01584  0.19160  1.0000 -0.1191798451
C   C1143     1.0  0.82424  0.47316  0.80840  1.0000 -0.1191798451
C   C1144     1.0  0.72316  0.41476  0.14892  1.0000 -0.1191798451
C   C1145     1.0  0.98000  0.17960  0.67820  1.0000 0.1998786962
C   C1146     1.0  0.55180  0.73000  0.30040  1.0000 0.1998786962
C   C1147     1.0  0.42960  0.25140  0.69960  1.0000 0.1998786962
C   C1148     1.0  0.50140  0.30180  0.32180  1.0000 0.1998786962
C   C1149     1.0  0.27000  0.57040  0.82180  1.0000 0.1998786962
C   C1150     1.0  0.69820  0.02000  0.19960  1.0000 0.1998786962
C   C1151     1.0  0.82040  0.49860  0.80040  1.0000 0.1998786962
C   C1152     1.0  0.74860  0.44820  0.17820  1.0000 0.1998786962
C   C1153     1.0  0.93940  0.13460  0.69320  1.0000 -0.479671287
C   C1154     1.0  0.49620  0.68940  0.30480  1.0000 -0.479671287
C   C1155     1.0  0.38460  0.19140  0.69520  1.0000 -0.479671287
C   C1156     1.0  0.44140  0.24620  0.30680  1.0000 -0.479671287
C   C1157     1.0  0.31060  0.61540  0.80680  1.0000 -0.479671287
C   C1158     1.0  0.75380  0.06060  0.19520  1.0000 -0.479671287
C   C1159     1.0  0.86540  0.55860  0.80480  1.0000 -0.479671287
C   C1160     1.0  0.80860  0.50380  0.19320  1.0000 -0.479671287
C   C1161     1.0  0.93530  0.20530  0.78020  1.0000 -0.4982091723
C   C1162     1.0  0.40510  0.68530  0.23000  1.0000 -0.4982091723
C   C1163     1.0  0.45530  0.17510  0.77000  1.0000 -0.4982091723
C   C1164     1.0  0.42510  0.15510  0.21980  1.0000 -0.4982091723
C   C1165     1.0  0.31470  0.54470  0.71980  1.0000 -0.4982091723
C   C1166     1.0  0.84490  0.06470  0.27000  1.0000 -0.4982091723
C   C1167     1.0  0.79470  0.57490  0.73000  1.0000 -0.4982091723
C   C1168     1.0  0.82490  0.59490  0.28020  1.0000 -0.4982091723
C   C1169     1.0  0.97430  0.26160  0.77990  1.0000 0.19078331
C   C1170     1.0  0.44440  0.72430  0.21270  1.0000 0.19078331
C   C1171     1.0  0.51160  0.23170  0.78730  1.0000 0.19078331
C   C1172     1.0  0.48170  0.19440  0.22010  1.0000 0.19078331
C   C1173     1.0  0.27570  0.48840  0.72010  1.0000 0.19078331
C   C1174     1.0  0.80560  0.02570  0.28730  1.0000 0.19078331
C   C1175     1.0  0.73840  0.51830  0.71270  1.0000 0.19078331
C   C1176     1.0  0.76830  0.55560  0.27990  1.0000 0.19078331
C   C1177     1.0  0.98690  0.29900  0.79790  1.0000 -0.1191798451
C   C1178     1.0  0.43900  0.73690  0.18790  1.0000 -0.1191798451
C   C1179     1.0  0.54900  0.25110  0.81210  1.0000 -0.1191798451
C   C1180     1.0  0.50110  0.18900  0.20210  1.0000 -0.1097824624
C   C1181     1.0  0.26310  0.45100  0.70210  1.0000 -0.1191798451
C   C1182     1.0  0.81100  0.01310  0.31210  1.0000 -0.1097824624
C   C1183     1.0  0.70100  0.49890  0.68790  1.0000 -0.1191798451
C   C1184     1.0  0.74890  0.56100  0.29790  1.0000 -0.1097824624
C   C1185     1.0  0.02865  0.34540  0.78925  1.0000 0.19078331
C   C1186     1.0  0.48940  0.77865  0.18325  1.0000 0.19078331
C   C1187     1.0  0.59540  0.30615  0.81675  1.0000 0.19078331
C   C1188     1.0  0.55615  0.23940  0.21075  1.0000 0.19078331
C   C1189     1.0  0.22135  0.40460  0.71075  1.0000 0.19078331
C   C1190     1.0  0.76060  0.97135  0.31675  1.0000 0.19078331
C   C1191     1.0  0.65460  0.44385  0.68325  1.0000 0.19078331
C   C1192     1.0  0.69385  0.51060  0.28925  1.0000 0.19078331
C   C1193     1.0  0.05840  0.39960  0.79900  1.0000 -0.479671287
C   C1194     1.0  0.50940  0.80840  0.15880  1.0000 -0.479671287
C   C1195     1.0  0.64960  0.35060  0.84120  1.0000 -0.479671287
C   C1196     1.0  0.60060  0.25940  0.20100  1.0000 -0.479671287
C   C1197     1.0  0.19160  0.35040  0.70100  1.0000 -0.479671287
C   C1198     1.0  0.74060  0.94160  0.34120  1.0000 -0.479671287
C   C1199     1.0  0.60040  0.39940  0.65880  1.0000 -0.479671287
C   C1200     1.0  0.64940  0.49060  0.29900  1.0000 -0.479671287
N   N1        1.0  0.08200  0.85048  0.32028  1.0000 -0.200475583
N   N2        1.0  0.01172  0.83200  0.73152  1.0000 -0.200475583
N   N3        1.0  0.10048  0.28020  0.26848  1.0000 -0.200475583
N   N4        1.0  0.53020  0.76172  0.67972  1.0000 -0.200475583
N   N5        1.0  0.16800  0.89952  0.17972  1.0000 -0.200475583
N   N6        1.0  0.23828  0.91800  0.76848  1.0000 -0.200475583
N   N7        1.0  0.14952  0.46980  0.23152  1.0000 -0.200475583
N   N8        1.0  0.71980  0.98828  0.82028  1.0000 -0.200475583
N   N9        1.0  0.06750  0.86280  0.30430  1.0000 -0.2186915233
N   N10       1.0  0.01320  0.81750  0.70470  1.0000 -0.2186915233
N   N11       1.0  0.11280  0.30850  0.29530  1.0000 -0.2186915233
N   N12       1.0  0.55850  0.76320  0.69570  1.0000 -0.2186915233
N   N13       1.0  0.18250  0.88720  0.19570  1.0000 -0.209746648
N   N14       1.0  0.23680  0.93250  0.79530  1.0000 -0.2186915233
N   N15       1.0  0.13720  0.44150  0.20470  1.0000 -0.2186915233
N   N16       1.0  0.69150  0.98680  0.80430  1.0000 -0.209746648
N   N17       1.0  0.20270  0.45930  0.30160  1.0000 -0.209746648
N   N18       1.0  0.15110  0.95270  0.24340  1.0000 -0.209746648
N   N19       1.0  0.70930  0.90770  0.75660  1.0000 -0.209746648
N   N20       1.0  0.15770  0.90110  0.69840  1.0000 -0.209746648
N   N21       1.0  0.04730  0.29070  0.19840  1.0000 -0.209746648
N   N22       1.0  0.09890  0.79730  0.25660  1.0000 -0.209746648
N   N23       1.0  0.54070  0.84230  0.74340  1.0000 -0.209746648
N   N24       1.0  0.09230  0.84890  0.80160  1.0000 -0.209746648
N   N25       1.0  0.22538  0.48337  0.27835  1.0000 -0.209746648
N   N26       1.0  0.19703  0.97538  0.24201  1.0000 -0.2186915233
N   N27       1.0  0.73337  0.95502  0.75799  1.0000 -0.2186915233
N   N28       1.0  0.20502  0.94703  0.72165  1.0000 -0.2186915233
N   N29       1.0  0.02462  0.26663  0.22165  1.0000 -0.209746648
N   N30       1.0  0.05297  0.77462  0.25799  1.0000 -0.209746648
N   N31       1.0  0.51663  0.79498  0.74201  1.0000 -0.209746648
N   N32       1.0  0.04498  0.80297  0.77835  1.0000 -0.2186915233
N   N33       1.0  0.24510  0.94576  0.29406  1.0000 -0.2186915233
N   N34       1.0  0.20104  0.99510  0.79934  1.0000 -0.2186915233
N   N35       1.0  0.19576  0.40170  0.20066  1.0000 -0.2186915233
N   N36       1.0  0.65170  0.95104  0.70594  1.0000 -0.2186915233
N   N37       1.0  0.00490  0.80424  0.20594  1.0000 -0.2186915233
N   N38       1.0  0.04896  0.75490  0.70066  1.0000 -0.2186915233
N   N39       1.0  0.05424  0.34830  0.29934  1.0000 -0.2186915233
N   N40       1.0  0.59830  0.79896  0.79406  1.0000 -0.2186915233
N   N41       1.0  0.22220  0.92272  0.31752  1.0000 -0.200475583
N   N42       1.0  0.15468  0.97220  0.79948  1.0000 -0.200475583
N   N43       1.0  0.17272  0.35520  0.20052  1.0000 -0.200475583
N   N44       1.0  0.60520  0.90468  0.68248  1.0000 -0.200475583
N   N45       1.0  0.02780  0.82728  0.18248  1.0000 -0.200475583
N   N46       1.0  0.09532  0.77780  0.70052  1.0000 -0.200475583
N   N47       1.0  0.07728  0.39480  0.29948  1.0000 -0.200475583
N   N48       1.0  0.64480  0.84532  0.81752  1.0000 -0.200475583
N   N49       1.0  0.90038  0.04700  0.59838  1.0000 -0.1922353361
N   N50       1.0  0.55200  0.65038  0.35338  1.0000 -0.1922353361
N   N51       1.0  0.29700  0.19862  0.64662  1.0000 -0.1922353361
N   N52       1.0  0.44862  0.30200  0.40162  1.0000 -0.1922353361
N   N53       1.0  0.34962  0.70300  0.90162  1.0000 -0.1922353361
N   N54       1.0  0.69800  0.09962  0.14662  1.0000 -0.1922353361
N   N55       1.0  0.95300  0.55138  0.85338  1.0000 -0.1922353361
N   N56       1.0  0.80138  0.44800  0.09838  1.0000 -0.1922353361
N   N57       1.0  0.88405  0.05676  0.58141  1.0000 -0.2186915233
N   N58       1.0  0.55264  0.63405  0.32729  1.0000 -0.2186915233
N   N59       1.0  0.30676  0.22535  0.67271  1.0000 -0.2186915233
N   N60       1.0  0.47535  0.30264  0.41859  1.0000 -0.2186915233
N   N61       1.0  0.36595  0.69324  0.91859  1.0000 -0.2186915233
N   N62       1.0  0.69736  0.11595  0.17271  1.0000 -0.2186915233
N   N63       1.0  0.94324  0.52465  0.82729  1.0000 -0.2186915233
N   N64       1.0  0.77465  0.44736  0.08141  1.0000 -0.2186915233
N   N65       1.0  0.73656  0.92971  0.51467  1.0000 -0.200475583
N   N66       1.0  0.47189  0.48656  0.30685  1.0000 -0.200475583
N   N67       1.0  0.17971  0.16504  0.69315  1.0000 -0.200475583
N   N68       1.0  0.41504  0.22189  0.48533  1.0000 -0.200475583
N   N69       1.0  0.51344  0.82029  0.98533  1.0000 -0.200475583
N   N70       1.0  0.77811  0.26344  0.19315  1.0000 -0.200475583
N   N71       1.0  0.07029  0.58496  0.80685  1.0000 -0.200475583
N   N72       1.0  0.83496  0.52811  0.01467  1.0000 -0.200475583
N   N73       1.0  0.70524  0.87888  0.50572  1.0000 -0.1922353361
N   N74       1.0  0.44952  0.45524  0.32636  1.0000 -0.1922353361
N   N75       1.0  0.12888  0.12316  0.67364  1.0000 -0.1922353361
N   N76       1.0  0.37316  0.19952  0.49428  1.0000 -0.1922353361
N   N77       1.0  0.54476  0.87112  0.99428  1.0000 -0.1922353361
N   N78       1.0  0.80048  0.29476  0.17364  1.0000 -0.1922353361
N   N79       1.0  0.12112  0.62684  0.82636  1.0000 -0.1922353361
N   N80       1.0  0.87684  0.55048  0.00572  1.0000 -0.1922353361
N   N81       1.0  0.10149  0.04432  0.59501  1.0000 -0.200475583
N   N82       1.0  0.75648  0.85149  0.55717  1.0000 -0.200475583
N   N83       1.0  0.29432  0.19931  0.44283  1.0000 -0.200475583
N   N84       1.0  0.44931  0.50648  0.40499  1.0000 -0.200475583
N   N85       1.0  0.14851  0.70568  0.90499  1.0000 -0.200475583
N   N86       1.0  0.49352  0.89851  0.94283  1.0000 -0.200475583
N   N87       1.0  0.95568  0.55069  0.05717  1.0000 -0.1922353361
N   N88       1.0  0.80069  0.24352  0.09501  1.0000 -0.1922353361
N   N89       1.0  0.14525  0.07029  0.58534  1.0000 -0.2186915233
N   N90       1.0  0.80991  0.89525  0.57496  1.0000 -0.2186915233
N   N91       1.0  0.32029  0.23495  0.42504  1.0000 -0.2186915233
N   N92       1.0  0.48495  0.55991  0.41466  1.0000 -0.2186915233
N   N93       1.0  0.10475  0.67971  0.91466  1.0000 -0.2186915233
N   N94       1.0  0.44009  0.85475  0.92504  1.0000 -0.209746648
N   N95       1.0  0.92971  0.51505  0.07496  1.0000 -0.2186915233
N   N96       1.0  0.76505  0.19009  0.08534  1.0000 -0.209746648
N   N97       1.0  0.67095  0.19229  0.13384  1.0000 -0.1922353361
N   N98       1.0  0.78711  0.42095  0.97866  1.0000 -0.1922353361
N   N99       1.0  0.44229  0.80845  0.02134  1.0000 -0.1922353361
N   N100      1.0  0.05845  0.53711  0.86616  1.0000 -0.1922353361
N   N101      1.0  0.57905  0.55771  0.36616  1.0000 -0.1922353361
N   N102      1.0  0.46289  0.32905  0.52134  1.0000 -0.1922353361
N   N103      1.0  0.80771  0.94155  0.47866  1.0000 -0.1922353361
N   N104      1.0  0.19155  0.21289  0.63384  1.0000 -0.1922353361
N   N105      1.0  0.66697  0.17103  0.10760  1.0000 -0.2186915233
N   N106      1.0  0.80937  0.41697  0.99594  1.0000 -0.2186915233
N   N107      1.0  0.42103  0.81343  0.00406  1.0000 -0.2186915233
N   N108      1.0  0.06343  0.55937  0.89240  1.0000 -0.2186915233
N   N109      1.0  0.58303  0.57897  0.39240  1.0000 -0.2186915233
N   N110      1.0  0.44063  0.33303  0.50406  1.0000 -0.2186915233
N   N111      1.0  0.82897  0.93657  0.49594  1.0000 -0.2186915233
N   N112      1.0  0.18657  0.19063  0.60760  1.0000 -0.2186915233
N   N113      1.0  0.74375  0.33459  0.06174  1.0000 -0.200475583
N   N114      1.0  0.93201  0.49375  0.90916  1.0000 -0.200475583
N   N115      1.0  0.58459  0.02285  0.09084  1.0000 -0.200475583
N   N116      1.0  0.27285  0.68201  0.93826  1.0000 -0.200475583
N   N117      1.0  0.50625  0.41541  0.43826  1.0000 -0.200475583
N   N118      1.0  0.31799  0.25625  0.59084  1.0000 -0.200475583
N   N119      1.0  0.66541  0.72715  0.40916  1.0000 -0.200475583
N   N120      1.0  0.97715  0.06799  0.56174  1.0000 -0.200475583
N   N121      1.0  0.69753  0.30950  0.06523  1.0000 -0.200475583
N   N122      1.0  0.88230  0.44753  0.88803  1.0000 -0.200475583
N   N123      1.0  0.55950  0.99427  0.11197  1.0000 -0.200475583
N   N124      1.0  0.24427  0.63230  0.93477  1.0000 -0.200475583
N   N125      1.0  0.55247  0.44050  0.43477  1.0000 -0.200475583
N   N126      1.0  0.36770  0.30247  0.61197  1.0000 -0.200475583
N   N127      1.0  0.69050  0.75573  0.38803  1.0000 -0.200475583
N   N128      1.0  0.00573  0.11770  0.56523  1.0000 -0.200475583
N   N129      1.0  0.57717  0.05860  0.19317  1.0000 -0.200475583
N   N130      1.0  0.63400  0.32717  0.01857  1.0000 -0.200475583
N   N131      1.0  0.30860  0.61543  0.98143  1.0000 -0.200475583
N   N132      1.0  0.86543  0.38400  0.80683  1.0000 -0.200475583
N   N133      1.0  0.67283  0.69140  0.30683  1.0000 -0.200475583
N   N134      1.0  0.61600  0.42283  0.48143  1.0000 -0.200475583
N   N135      1.0  0.94140  0.13457  0.51857  1.0000 -0.200475583
N   N136      1.0  0.38457  0.36600  0.69317  1.0000 -0.200475583
N   N137      1.0  0.60620  0.10860  0.19900  1.0000 -0.2186915233
N   N138      1.0  0.65720  0.35620  0.99760  1.0000 -0.2186915233
N   N139      1.0  0.35860  0.65960  0.00240  1.0000 -0.2186915233
N   N140      1.0  0.90960  0.40720  0.80100  1.0000 -0.2186915233
N   N141      1.0  0.64380  0.64140  0.30100  1.0000 -0.2186915233
N   N142      1.0  0.59280  0.39380  0.50240  1.0000 -0.2186915233
N   N143      1.0  0.89140  0.09040  0.49760  1.0000 -0.2186915233
N   N144      1.0  0.34040  0.34280  0.69900  1.0000 -0.2186915233
N   N145      1.0  0.00768  0.38145  0.95793  1.0000 -0.2271358398
N   N146      1.0  0.29975  0.75768  0.12623  1.0000 -0.2271358398
N   N147      1.0  0.63145  0.17352  0.87377  1.0000 -0.2271358398
N   N148      1.0  0.42352  0.04975  0.04207  1.0000 -0.2271358398
N   N149      1.0  0.24232  0.36855  0.54207  1.0000 -0.2271358398
N   N150      1.0  0.95025  0.99232  0.37377  1.0000 -0.2271358398
N   N151      1.0  0.61855  0.57648  0.62623  1.0000 -0.2271358398
N   N152      1.0  0.82648  0.70025  0.45793  1.0000 -0.2271358398
N   N153      1.0  0.97275  0.37098  0.96853  1.0000 -0.209746648
N   N154      1.0  0.25422  0.72275  0.10177  1.0000 -0.209746648
N   N155      1.0  0.62098  0.15245  0.89823  1.0000 -0.209746648
N   N156      1.0  0.40245  0.00422  0.03147  1.0000 -0.200475583
N   N157      1.0  0.27725  0.37902  0.53147  1.0000 -0.209746648
N   N158      1.0  0.99578  0.02725  0.39823  1.0000 -0.209746648
N   N159      1.0  0.62902  0.59755  0.60177  1.0000 -0.200475583
N   N160      1.0  0.84755  0.74578  0.46853  1.0000 -0.209746648
N   N161      1.0  0.15917  0.57046  0.06303  1.0000 -0.2186915233
N   N162      1.0  0.34614  0.90917  0.08871  1.0000 -0.2186915233
N   N163      1.0  0.82046  0.25743  0.91129  1.0000 -0.2186915233
N   N164      1.0  0.50743  0.09614  0.93697  1.0000 -0.2186915233
N   N165      1.0  0.09083  0.17954  0.43697  1.0000 -0.2186915233
N   N166      1.0  0.90386  0.84083  0.41129  1.0000 -0.2186915233
N   N167      1.0  0.42954  0.49257  0.58871  1.0000 -0.2186915233
N   N168      1.0  0.74257  0.65386  0.56303  1.0000 -0.2186915233
N   N169      1.0  0.16676  0.54933  0.07369  1.0000 -0.209746648
N   N170      1.0  0.34307  0.91676  0.11743  1.0000 -0.209746648
N   N171      1.0  0.79933  0.22564  0.88257  1.0000 -0.209746648
N   N172      1.0  0.47564  0.09307  0.92631  1.0000 -0.209746648
N   N173      1.0  0.08324  0.20067  0.42631  1.0000 -0.209746648
N   N174      1.0  0.90693  0.83324  0.38257  1.0000 -0.209746648
N   N175      1.0  0.45067  0.52436  0.61743  1.0000 -0.209746648
N   N176      1.0  0.77436  0.65693  0.57369  1.0000 -0.209746648
N   N177      1.0  0.90945  0.26847  0.84812  1.0000 -0.1827102551
N   N178      1.0  0.31133  0.65945  0.14098  1.0000 -0.1827102551
N   N179      1.0  0.51847  0.17035  0.85902  1.0000 -0.1827102551
N   N180      1.0  0.42035  0.06133  0.15188  1.0000 -0.1827102551
N   N181      1.0  0.34055  0.48153  0.65188  1.0000 -0.1827102551
N   N182      1.0  0.93867  0.09055  0.35902  1.0000 -0.1827102551
N   N183      1.0  0.73153  0.57965  0.64098  1.0000 -0.1827102551
N   N184      1.0  0.82965  0.68867  0.34812  1.0000 -0.1827102551
N   N185      1.0  0.95950  0.30955  0.86765  1.0000 -0.1922353361
N   N186      1.0  0.34185  0.70950  0.14995  1.0000 -0.1922353361
N   N187      1.0  0.55955  0.19190  0.85005  1.0000 -0.1922353361
N   N188      1.0  0.44190  0.09185  0.13235  1.0000 -0.1922353361
N   N189      1.0  0.29050  0.44045  0.63235  1.0000 -0.1922353361
N   N190      1.0  0.90815  0.04050  0.35005  1.0000 -0.1922353361
N   N191      1.0  0.69045  0.55810  0.64995  1.0000 -0.1922353361
N   N192      1.0  0.80810  0.65815  0.36765  1.0000 -0.1922353361
N   N193      1.0  0.97176  0.81628  0.40284  1.0000 -0.2186915233
N   N194      1.0  0.81892  0.72176  0.65548  1.0000 -0.2186915233
N   N195      1.0  0.06628  0.16344  0.34452  1.0000 -0.2186915233
N   N196      1.0  0.41344  0.56892  0.59716  1.0000 -0.2186915233
N   N197      1.0  0.27824  0.93372  0.09716  1.0000 -0.2186915233
N   N198      1.0  0.43108  0.02824  0.84452  1.0000 -0.209746648
N   N199      1.0  0.18372  0.58656  0.15548  1.0000 -0.209746648
N   N200      1.0  0.83656  0.18108  0.90284  1.0000 -0.2186915233
N   N201      1.0  0.94361  0.76680  0.39501  1.0000 -0.209746648
N   N202      1.0  0.79860  0.69361  0.67681  1.0000 -0.209746648
N   N203      1.0  0.01680  0.12179  0.32319  1.0000 -0.209746648
N   N204      1.0  0.37179  0.54860  0.60499  1.0000 -0.209746648
N   N205      1.0  0.30639  0.98320  0.10499  1.0000 -0.209746648
N   N206      1.0  0.45140  0.05639  0.82319  1.0000 -0.209746648
N   N207      1.0  0.23320  0.62821  0.17681  1.0000 -0.209746648
N   N208      1.0  0.87821  0.20140  0.89501  1.0000 -0.209746648
N   N209      1.0  0.90576  0.69128  0.46084  1.0000 -0.2186915233
N   N210      1.0  0.69492  0.65576  0.71448  1.0000 -0.2186915233
N   N211      1.0  0.94128  0.98044  0.28552  1.0000 -0.2186915233
N   N212      1.0  0.23044  0.44492  0.53916  1.0000 -0.2186915233
N   N213      1.0  0.34424  0.05872  0.03916  1.0000 -0.2186915233
N   N214      1.0  0.55508  0.09424  0.78552  1.0000 -0.2186915233
N   N215      1.0  0.30872  0.76956  0.21448  1.0000 -0.2186915233
N   N216      1.0  0.01956  0.30508  0.96084  1.0000 -0.2186915233
N   N217      1.0  0.91859  0.71176  0.49175  1.0000 -0.209746648
N   N218      1.0  0.67684  0.66859  0.70683  1.0000 -0.209746648
N   N219      1.0  0.96176  0.97001  0.29317  1.0000 -0.209746648
N   N220      1.0  0.22001  0.42684  0.50825  1.0000 -0.209746648
N   N221      1.0  0.33141  0.03824  0.00825  1.0000 -0.209746648
N   N222      1.0  0.57316  0.08141  0.79317  1.0000 -0.209746648
N   N223      1.0  0.28824  0.77999  0.20683  1.0000 -0.209746648
N   N224      1.0  0.02999  0.32316  0.99175  1.0000 -0.209746648
N   N225      1.0  0.97807  0.84677  0.51264  1.0000 -0.209746648
N   N226      1.0  0.71543  0.72807  0.63130  1.0000 -0.209746648
N   N227      1.0  0.09677  0.08413  0.36870  1.0000 -0.209746648
N   N228      1.0  0.33413  0.46543  0.48736  1.0000 -0.209746648
N   N229      1.0  0.27193  0.90323  0.98736  1.0000 -0.209746648
N   N230      1.0  0.53457  0.02193  0.86870  1.0000 -0.209746648
N   N231      1.0  0.15323  0.66587  0.13130  1.0000 -0.209746648
N   N232      1.0  0.91587  0.28457  0.01264  1.0000 -0.209746648
N   N233      1.0  0.99051  0.87109  0.48940  1.0000 -0.2186915233
N   N234      1.0  0.75111  0.74051  0.61942  1.0000 -0.2186915233
N   N235      1.0  0.12109  0.13169  0.38058  1.0000 -0.2186915233
N   N236      1.0  0.38169  0.50111  0.51060  1.0000 -0.2186915233
N   N237      1.0  0.25949  0.87891  0.01060  1.0000 -0.2186915233
N   N238      1.0  0.49889  0.00949  0.88058  1.0000 -0.2186915233
N   N239      1.0  0.12891  0.61831  0.11942  1.0000 -0.2186915233
N   N240      1.0  0.86831  0.24889  0.98940  1.0000 -0.2186915233
N   N241      1.0  0.53736  0.81222  0.43618  1.0000 -0.200475583
N   N242      1.0  0.35118  0.28736  0.22514  1.0000 -0.200475583
N   N243      1.0  0.06222  0.12604  0.77486  1.0000 -0.200475583
N   N244      1.0  0.37604  0.10118  0.56382  1.0000 -0.200475583
N   N245      1.0  0.71264  0.93778  0.06382  1.0000 -0.200475583
N   N246      1.0  0.89882  0.46264  0.27486  1.0000 -0.200475583
N   N247      1.0  0.18778  0.62396  0.72514  1.0000 -0.209746648
N   N248      1.0  0.87396  0.64882  0.93618  1.0000 -0.209746648
N   N249      1.0  0.54389  0.83361  0.46370  1.0000 -0.209746648
N   N250      1.0  0.33019  0.29389  0.21028  1.0000 -0.209746648
N   N251      1.0  0.08361  0.11991  0.78972  1.0000 -0.209746648
N   N252      1.0  0.36991  0.08019  0.53630  1.0000 -0.209746648
N   N253      1.0  0.70611  0.91639  0.03630  1.0000 -0.209746648
N   N254      1.0  0.91981  0.45611  0.28972  1.0000 -0.209746648
N   N255      1.0  0.16639  0.63009  0.71028  1.0000 -0.209746648
N   N256      1.0  0.88009  0.66981  0.96370  1.0000 -0.209746648
N   N257      1.0  0.41278  0.76052  0.48850  1.0000 -0.1827102551
N   N258      1.0  0.17428  0.16278  0.15226  1.0000 -0.1827102551
N   N259      1.0  0.01052  0.02202  0.84774  1.0000 -0.1827102551
N   N260      1.0  0.27202  0.92428  0.51150  1.0000 -0.1827102551
N   N261      1.0  0.83722  0.98948  0.01150  1.0000 -0.1827102551
N   N262      1.0  0.07572  0.58722  0.34774  1.0000 -0.1827102551
N   N263      1.0  0.23948  0.72798  0.65226  1.0000 -0.1827102551
N   N264      1.0  0.97798  0.82572  0.98850  1.0000 -0.1922353361
N   N265      1.0  0.36300  0.72040  0.46760  1.0000 -0.209746648
N   N266      1.0  0.14540  0.11300  0.14260  1.0000 -0.209746648
N   N267      1.0  0.97040  0.00280  0.85740  1.0000 -0.209746648
N   N268      1.0  0.25280  0.89540  0.53240  1.0000 -0.209746648
N   N269      1.0  0.88700  0.02960  0.03240  1.0000 -0.209746648
N   N270      1.0  0.10460  0.63700  0.35740  1.0000 -0.209746648
N   N271      1.0  0.27960  0.74720  0.64260  1.0000 -0.209746648
N   N272      1.0  0.99720  0.85460  0.96760  1.0000 -0.209746648
N   N273      1.0  0.34195  0.66494  0.37949  1.0000 -0.2186915233
N   N274      1.0  0.21246  0.09195  0.17701  1.0000 -0.2186915233
N   N275      1.0  0.91494  0.03545  0.82299  1.0000 -0.2186915233
N   N276      1.0  0.28545  0.96246  0.62051  1.0000 -0.2186915233
N   N277      1.0  0.90805  0.08506  0.12051  1.0000 -0.2186915233
N   N278      1.0  0.03754  0.65805  0.32299  1.0000 -0.2186915233
N   N279      1.0  0.33506  0.71455  0.67701  1.0000 -0.2186915233
N   N280      1.0  0.96455  0.78754  0.87949  1.0000 -0.2186915233
N   N281      1.0  0.38448  0.68380  0.37348  1.0000 -0.1922353361
N   N282      1.0  0.26100  0.13448  0.20068  1.0000 -0.1922353361
N   N283      1.0  0.93380  0.06032  0.79932  1.0000 -0.1922353361
N   N284      1.0  0.31032  0.01100  0.62652  1.0000 -0.1922353361
N   N285      1.0  0.86552  0.06620  0.12652  1.0000 -0.1922353361
N   N286      1.0  0.98900  0.61552  0.29932  1.0000 -0.1922353361
N   N287      1.0  0.31620  0.68968  0.70068  1.0000 -0.1922353361
N   N288      1.0  0.93968  0.73900  0.87348  1.0000 -0.1922353361
N   N289      1.0  0.13094  0.59574  0.61328  1.0000 -0.2186915233
N   N290      1.0  0.76766  0.88094  0.03520  1.0000 -0.2186915233
N   N291      1.0  0.84574  0.73246  0.96480  1.0000 -0.2186915233
N   N292      1.0  0.98246  0.51766  0.38672  1.0000 -0.2186915233
N   N293      1.0  0.11906  0.15426  0.88672  1.0000 -0.2186915233
N   N294      1.0  0.48234  0.86906  0.46480  1.0000 -0.2186915233
N   N295      1.0  0.40426  0.01754  0.53520  1.0000 -0.2186915233
N   N296      1.0  0.26754  0.23234  0.11328  1.0000 -0.2186915233
N   N297      1.0  0.15602  0.62520  0.59202  1.0000 -0.200475583
N   N298      1.0  0.81400  0.90602  0.03082  1.0000 -0.200475583
N   N299      1.0  0.87520  0.78318  0.96918  1.0000 -0.200475583
N   N300      1.0  0.03318  0.56400  0.40798  1.0000 -0.200475583
N   N301      1.0  0.09398  0.12480  0.90798  1.0000 -0.200475583
N   N302      1.0  0.43600  0.84398  0.46918  1.0000 -0.200475583
N   N303      1.0  0.37480  0.96682  0.53082  1.0000 -0.200475583
N   N304      1.0  0.21682  0.18600  0.09202  1.0000 -0.200475583
N   N305      1.0  0.28555  0.69111  0.57206  1.0000 -0.209746648
N   N306      1.0  0.96349  0.03555  0.09444  1.0000 -0.209746648
N   N307      1.0  0.94111  0.86905  0.90556  1.0000 -0.209746648
N   N308      1.0  0.11905  0.71349  0.42794  1.0000 -0.209746648
N   N309      1.0  0.96445  0.05889  0.92794  1.0000 -0.209746648
N   N310      1.0  0.28651  0.71445  0.40556  1.0000 -0.209746648
N   N311      1.0  0.30889  0.88095  0.59444  1.0000 -0.209746648
N   N312      1.0  0.13095  0.03651  0.07206  1.0000 -0.209746648
N   N313      1.0  0.30339  0.67898  0.58257  1.0000 -0.2186915233
N   N314      1.0  0.97082  0.05339  0.12441  1.0000 -0.2186915233
N   N315      1.0  0.92898  0.84641  0.87559  1.0000 -0.2186915233
N   N316      1.0  0.09641  0.72082  0.41743  1.0000 -0.2186915233
N   N317      1.0  0.94661  0.07102  0.91743  1.0000 -0.2186915233
N   N318      1.0  0.27918  0.69661  0.37559  1.0000 -0.2186915233
N   N319      1.0  0.32102  0.90359  0.62441  1.0000 -0.2186915233
N   N320      1.0  0.15359  0.02918  0.08257  1.0000 -0.2186915233
N   N321      1.0  0.22774  0.58316  0.64230  1.0000 -0.200475583
N   N322      1.0  0.83544  0.97774  0.14458  1.0000 -0.200475583
N   N323      1.0  0.83316  0.69086  0.85542  1.0000 -0.200475583
N   N324      1.0  0.94086  0.58544  0.35770  1.0000 -0.200475583
N   N325      1.0  0.02226  0.16684  0.85770  1.0000 -0.200475583
N   N326      1.0  0.41456  0.77226  0.35542  1.0000 -0.200475583
N   N327      1.0  0.41684  0.05914  0.64458  1.0000 -0.200475583
N   N328      1.0  0.30914  0.16456  0.14230  1.0000 -0.200475583
N   N329      1.0  0.18557  0.56351  0.64948  1.0000 -0.2186915233
N   N330      1.0  0.78609  0.93557  0.12206  1.0000 -0.2186915233
N   N331      1.0  0.81351  0.66403  0.87794  1.0000 -0.2186915233
N   N332      1.0  0.91403  0.53609  0.35052  1.0000 -0.2186915233
N   N333      1.0  0.06443  0.18649  0.85052  1.0000 -0.2186915233
N   N334      1.0  0.46391  0.81443  0.37794  1.0000 -0.2186915233
N   N335      1.0  0.43649  0.08597  0.62206  1.0000 -0.2186915233
N   N336      1.0  0.33597  0.21391  0.14948  1.0000 -0.2186915233
N   N337      1.0  0.78460  0.39900  0.47080  1.0000 -0.209746648
N   N338      1.0  0.56380  0.53460  0.88560  1.0000 -0.209746648
N   N339      1.0  0.64900  0.67820  0.11440  1.0000 -0.209746648
N   N340      1.0  0.92820  0.31380  0.52920  1.0000 -0.209746648
N   N341      1.0  0.46540  0.35100  0.02920  1.0000 -0.209746648
N   N342      1.0  0.68620  0.21540  0.61440  1.0000 -0.209746648
N   N343      1.0  0.60100  0.07180  0.38560  1.0000 -0.209746648
N   N344      1.0  0.32180  0.43620  0.97080  1.0000 -0.209746648
N   N345      1.0  0.80497  0.39200  0.48517  1.0000 -0.209746648
N   N346      1.0  0.56980  0.55497  0.91297  1.0000 -0.209746648
N   N347      1.0  0.64200  0.65683  0.08703  1.0000 -0.209746648
N   N348      1.0  0.90683  0.31980  0.51483  1.0000 -0.209746648
N   N349      1.0  0.44503  0.35800  0.01483  1.0000 -0.209746648
N   N350      1.0  0.68020  0.19503  0.58703  1.0000 -0.209746648
N   N351      1.0  0.60800  0.09317  0.41297  1.0000 -0.209746648
N   N352      1.0  0.34317  0.43020  0.98517  1.0000 -0.209746648
N   N353      1.0  0.95523  0.51847  0.54730  1.0000 -0.2186915233
N   N354      1.0  0.65793  0.70523  0.93676  1.0000 -0.2186915233
N   N355      1.0  0.76847  0.72117  0.06324  1.0000 -0.2186915233
N   N356      1.0  0.97117  0.40793  0.45270  1.0000 -0.2186915233
N   N357      1.0  0.29477  0.23153  0.95270  1.0000 -0.2186915233
N   N358      1.0  0.59207  0.04477  0.56324  1.0000 -0.2186915233
N   N359      1.0  0.48153  0.02883  0.43676  1.0000 -0.2186915233
N   N360      1.0  0.27883  0.34207  0.04730  1.0000 -0.2186915233
N   N361      1.0  0.98998  0.57140  0.55418  1.0000 -0.200475583
N   N362      1.0  0.68580  0.73998  0.91858  1.0000 -0.200475583
N   N363      1.0  0.82140  0.76722  0.08142  1.0000 -0.200475583
N   N364      1.0  0.01722  0.43580  0.44582  1.0000 -0.200475583
N   N365      1.0  0.26002  0.17860  0.94582  1.0000 -0.200475583
N   N366      1.0  0.56420  0.01002  0.58142  1.0000 -0.200475583
N   N367      1.0  0.42860  0.98278  0.41858  1.0000 -0.200475583
N   N368      1.0  0.23278  0.31420  0.05418  1.0000 -0.200475583
N   N369      1.0  0.93610  0.60061  0.50911  1.0000 -0.209746648
N   N370      1.0  0.67699  0.68610  0.83549  1.0000 -0.209746648
N   N371      1.0  0.85061  0.84150  0.16451  1.0000 -0.209746648
N   N372      1.0  0.09150  0.42699  0.49089  1.0000 -0.209746648
N   N373      1.0  0.31390  0.14939  0.99089  1.0000 -0.209746648
N   N374      1.0  0.57301  0.06390  0.66451  1.0000 -0.209746648
N   N375      1.0  0.39939  0.90850  0.33549  1.0000 -0.209746648
N   N376      1.0  0.15850  0.32301  0.00911  1.0000 -0.209746648
N   N377      1.0  0.88353  0.55597  0.49150  1.0000 -0.209746648
N   N378      1.0  0.64203  0.63353  0.82756  1.0000 -0.209746648
N   N379      1.0  0.80597  0.81447  0.17244  1.0000 -0.209746648
N   N380      1.0  0.06447  0.39203  0.50850  1.0000 -0.209746648
N   N381      1.0  0.36647  0.19403  0.00850  1.0000 -0.209746648
N   N382      1.0  0.60797  0.11647  0.67244  1.0000 -0.209746648
N   N383      1.0  0.44403  0.93553  0.32756  1.0000 -0.209746648
N   N384      1.0  0.18553  0.35797  0.99150  1.0000 -0.209746648
N   N385      1.0  0.51337  0.04446  0.30243  1.0000 -0.200475583
N   N386      1.0  0.46094  0.26337  0.96891  1.0000 -0.200475583
N   N387      1.0  0.29446  0.49203  0.03109  1.0000 -0.200475583
N   N388      1.0  0.74203  0.21094  0.69757  1.0000 -0.200475583
N   N389      1.0  0.73663  0.70554  0.19757  1.0000 -0.200475583
N   N390      1.0  0.78906  0.48663  0.53109  1.0000 -0.200475583
N   N391      1.0  0.95554  0.25797  0.46891  1.0000 -0.200475583
N   N392      1.0  0.50797  0.53906  0.80243  1.0000 -0.200475583
N   N393      1.0  0.56690  0.08620  0.31750  1.0000 -0.209746648
N   N394      1.0  0.49940  0.31690  0.98070  1.0000 -0.209746648
N   N395      1.0  0.33620  0.51870  0.01930  1.0000 -0.209746648
N   N396      1.0  0.76870  0.24940  0.68250  1.0000 -0.209746648
N   N397      1.0  0.68310  0.66380  0.18250  1.0000 -0.209746648
N   N398      1.0  0.75060  0.43310  0.51930  1.0000 -0.209746648
N   N399      1.0  0.91380  0.23130  0.48070  1.0000 -0.209746648
N   N400      1.0  0.48130  0.50060  0.81750  1.0000 -0.209746648
N   N401      1.0  0.62013  0.17505  0.40258  1.0000 -0.209746648
N   N402      1.0  0.46755  0.37013  0.94508  1.0000 -0.209746648
N   N403      1.0  0.42505  0.52247  0.05492  1.0000 -0.209746648
N   N404      1.0  0.77247  0.21755  0.59742  1.0000 -0.209746648
N   N405      1.0  0.62987  0.57495  0.09742  1.0000 -0.209746648
N   N406      1.0  0.78245  0.37987  0.55492  1.0000 -0.209746648
N   N407      1.0  0.82495  0.22753  0.44508  1.0000 -0.209746648
N   N408      1.0  0.47753  0.53245  0.90258  1.0000 -0.209746648
N   N409      1.0  0.58818  0.16602  0.41600  1.0000 -0.200475583
N   N410      1.0  0.42218  0.33818  0.92216  1.0000 -0.200475583
N   N411      1.0  0.41602  0.50002  0.07784  1.0000 -0.200475583
N   N412      1.0  0.75002  0.17218  0.58400  1.0000 -0.200475583
N   N413      1.0  0.66182  0.58398  0.08400  1.0000 -0.200475583
N   N414      1.0  0.82782  0.41182  0.57784  1.0000 -0.200475583
N   N415      1.0  0.83398  0.24998  0.42216  1.0000 -0.200475583
N   N416      1.0  0.49998  0.57782  0.91600  1.0000 -0.200475583
N   N417      1.0  0.42325  0.03008  0.36933  1.0000 -0.200475583
N   N418      1.0  0.30392  0.17325  0.89317  1.0000 -0.200475583
N   N419      1.0  0.28008  0.41075  0.10683  1.0000 -0.200475583
N   N420      1.0  0.66075  0.05392  0.63067  1.0000 -0.200475583
N   N421      1.0  0.82675  0.71992  0.13067  1.0000 -0.200475583
N   N422      1.0  0.94608  0.57675  0.60683  1.0000 -0.200475583
N   N423      1.0  0.96992  0.33925  0.39317  1.0000 -0.200475583
N   N424      1.0  0.58925  0.69608  0.86933  1.0000 -0.200475583
N   N425      1.0  0.40670  0.99720  0.34350  1.0000 -0.209746648
N   N426      1.0  0.31320  0.15670  0.90950  1.0000 -0.209746648
N   N427      1.0  0.24720  0.40370  0.09050  1.0000 -0.209746648
N   N428      1.0  0.65370  0.06320  0.65650  1.0000 -0.209746648
N   N429      1.0  0.84330  0.75280  0.15650  1.0000 -0.209746648
N   N430      1.0  0.93680  0.59330  0.59050  1.0000 -0.209746648
N   N431      1.0  0.00280  0.34630  0.40950  1.0000 -0.209746648
N   N432      1.0  0.59630  0.68680  0.84350  1.0000 -0.209746648
N   N433      1.0  0.15007  0.44069  0.71856  1.0000 -0.2186915233
N   N434      1.0  0.68151  0.90007  0.20938  1.0000 -0.2186915233
N   N435      1.0  0.69069  0.47213  0.79062  1.0000 -0.2186915233
N   N436      1.0  0.72213  0.43151  0.28144  1.0000 -0.2186915233
N   N437      1.0  0.09993  0.30931  0.78144  1.0000 -0.2186915233
N   N438      1.0  0.56849  0.84993  0.29062  1.0000 -0.2186915233
N   N439      1.0  0.55931  0.27787  0.70938  1.0000 -0.2186915233
N   N440      1.0  0.52787  0.31849  0.21856  1.0000 -0.2186915233
N   N441      1.0  0.14766  0.42024  0.69230  1.0000 -0.1922353361
N   N442      1.0  0.70536  0.89766  0.22742  1.0000 -0.1922353361
N   N443      1.0  0.67024  0.47794  0.77258  1.0000 -0.1922353361
N   N444      1.0  0.72794  0.45536  0.30770  1.0000 -0.1922353361
N   N445      1.0  0.10234  0.32976  0.80770  1.0000 -0.1922353361
N   N446      1.0  0.54464  0.85234  0.27258  1.0000 -0.1922353361
N   N447      1.0  0.57976  0.27206  0.72742  1.0000 -0.1922353361
N   N448      1.0  0.52206  0.29464  0.19230  1.0000 -0.1922353361
N   N449      1.0  0.04752  0.26229  0.67381  1.0000 -0.200475583
N   N450      1.0  0.62371  0.79752  0.28523  1.0000 -0.200475583
N   N451      1.0  0.51229  0.33848  0.71477  1.0000 -0.200475583
N   N452      1.0  0.58848  0.37371  0.32619  1.0000 -0.200475583
N   N453      1.0  0.20248  0.48771  0.82619  1.0000 -0.200475583
N   N454      1.0  0.62629  0.95248  0.21477  1.0000 -0.200475583
N   N455      1.0  0.73771  0.41152  0.78523  1.0000 -0.200475583
N   N456      1.0  0.66152  0.37629  0.17381  1.0000 -0.200475583
N   N457      1.0  0.01727  0.23070  0.69257  1.0000 -0.209746648
N   N458      1.0  0.57470  0.76727  0.28657  1.0000 -0.209746648
N   N459      1.0  0.48070  0.28813  0.71343  1.0000 -0.209746648
N   N460      1.0  0.53813  0.32470  0.30743  1.0000 -0.209746648
N   N461      1.0  0.23273  0.51930  0.80743  1.0000 -0.209746648
N   N462      1.0  0.67530  0.98273  0.21343  1.0000 -0.209746648
N   N463      1.0  0.76930  0.46187  0.78657  1.0000 -0.209746648
N   N464      1.0  0.71187  0.42530  0.19257  1.0000 -0.209746648
N   N465      1.0  0.00782  0.28605  0.76167  1.0000 -0.1827102551
N   N466      1.0  0.49615  0.75782  0.22177  1.0000 -0.1827102551
N   N467      1.0  0.53605  0.27438  0.77823  1.0000 -0.1827102551
N   N468      1.0  0.52438  0.24615  0.23833  1.0000 -0.1827102551
N   N469      1.0  0.24218  0.46395  0.73833  1.0000 -0.1827102551
N   N470      1.0  0.75385  0.99218  0.27823  1.0000 -0.1827102551
N   N471      1.0  0.71395  0.47562  0.72177  1.0000 -0.1827102551
N   N472      1.0  0.72562  0.50385  0.26167  1.0000 -0.1827102551
N   N473      1.0  0.04077  0.33756  0.76733  1.0000 -0.200475583
N   N474      1.0  0.52344  0.79077  0.20321  1.0000 -0.200475583
N   N475      1.0  0.58756  0.32023  0.79679  1.0000 -0.200475583
N   N476      1.0  0.57023  0.27344  0.23267  1.0000 -0.200475583
N   N477      1.0  0.20923  0.41244  0.73267  1.0000 -0.200475583
N   N478      1.0  0.72656  0.95923  0.29679  1.0000 -0.200475583
N   N479      1.0  0.66244  0.42977  0.70321  1.0000 -0.200475583
N   N480      1.0  0.67977  0.47656  0.26733  1.0000 -0.200475583
