# DDEC6 charges by PACMAN v1.1 (https://github.com/mtap-research/PACMAN-charge/)
data_2006[Pr][crs]3[FSR]1
_chemical_formula_sum              "Pr16 H208 C192 N128"
_cell_length_a       23.292
_cell_length_b       14.004
_cell_length_c       27.6533
_cell_angle_alpha    90
_cell_angle_beta     125.933
_cell_angle_gamma    90

_symmetry_space_group_name_H-M    "P 1"
_symmetry_Int_Tables_number       1

loop_
  _symmetry_equiv_pos_as_xyz
  'x, y, z'

loop_
  _atom_site_type_symbol
  _atom_site_label
  _atom_site_symmetry_multiplicity
  _atom_site_fract_x
  _atom_site_fract_y
  _atom_site_fract_z
  _atom_site_occupancy
  _atom_site_charge
Pr  Pr1       1.0  0.26265  0.79654  0.77365  1.0000 1.6221242628
Pr  Pr2       1.0  0.73735  0.29654  0.72635  1.0000 1.6268721304
Pr  Pr3       1.0  0.73735  0.20346  0.22635  1.0000 1.6221242628
Pr  Pr4       1.0  0.26265  0.70346  0.27365  1.0000 1.6268721304
Pr  Pr5       1.0  0.04742  0.14154  0.79005  1.0000 1.6524199925
Pr  Pr6       1.0  0.95258  0.64154  0.70995  1.0000 1.6524199925
Pr  Pr7       1.0  0.95258  0.85846  0.20995  1.0000 1.6524199925
Pr  Pr8       1.0  0.04742  0.35846  0.29005  1.0000 1.6524199925
Pr  Pr9       1.0  0.45563  0.05789  0.70812  1.0000 1.6221242628
Pr  Pr10      1.0  0.54437  0.55789  0.79188  1.0000 1.6221242628
Pr  Pr11      1.0  0.54437  0.94211  0.29188  1.0000 1.6221242628
Pr  Pr12      1.0  0.45563  0.44211  0.20812  1.0000 1.6221242628
Pr  Pr13      1.0  0.22707  0.70063  0.50359  1.0000 1.6429206512
Pr  Pr14      1.0  0.77293  0.20063  0.99641  1.0000 1.6429206512
Pr  Pr15      1.0  0.77293  0.29937  0.49641  1.0000 1.6429206512
Pr  Pr16      1.0  0.22707  0.79937  0.00359  1.0000 1.6429206512
H   H1        1.0  0.19260  0.96900  0.83280  1.0000 0.0808275699
H   H2        1.0  0.80740  0.46900  0.66720  1.0000 0.0808275699
H   H3        1.0  0.80740  0.03100  0.16720  1.0000 0.0808275699
H   H4        1.0  0.19260  0.53100  0.33280  1.0000 0.0808275699
H   H5        1.0  0.11910  0.94470  0.66360  1.0000 0.1096099535
H   H6        1.0  0.88090  0.44470  0.83640  1.0000 0.1096099535
H   H7        1.0  0.88090  0.05530  0.33640  1.0000 0.1096099535
H   H8        1.0  0.11910  0.55530  0.16360  1.0000 0.1096099535
H   H9        1.0  0.06480  0.08700  0.67370  1.0000 0.1003705624
H   H10       1.0  0.93520  0.58700  0.82630  1.0000 0.1003705624
H   H11       1.0  0.93520  0.91300  0.32630  1.0000 0.1003705624
H   H12       1.0  0.06480  0.41300  0.17370  1.0000 0.1003705624
H   H13       1.0  0.10230  0.76800  0.74730  1.0000 0.0718073153
H   H14       1.0  0.89770  0.26800  0.75270  1.0000 0.0718073153
H   H15       1.0  0.89770  0.23200  0.25270  1.0000 0.0718073153
H   H16       1.0  0.10230  0.73200  0.24730  1.0000 0.0718073153
H   H17       1.0  0.12180  0.65720  0.62810  1.0000 0.1003705624
H   H18       1.0  0.87820  0.15720  0.87190  1.0000 0.1003705624
H   H19       1.0  0.87820  0.34280  0.37190  1.0000 0.1003705624
H   H20       1.0  0.12180  0.84280  0.12810  1.0000 0.1003705624
H   H21       1.0  0.00940  0.59820  0.60590  1.0000 0.1003705624
H   H22       1.0  0.99060  0.09820  0.89410  1.0000 0.1003705624
H   H23       1.0  0.99060  0.40180  0.39410  1.0000 0.1003705624
H   H24       1.0  0.00940  0.90180  0.10590  1.0000 0.1003705624
H   H25       1.0  0.40070  0.89130  0.77170  1.0000 0.0808275699
H   H26       1.0  0.59930  0.39130  0.72830  1.0000 0.0808275699
H   H27       1.0  0.59930  0.10870  0.22830  1.0000 0.0808275699
H   H28       1.0  0.40070  0.60870  0.27170  1.0000 0.0808275699
H   H29       1.0  0.26930  0.06500  0.77360  1.0000 0.1096099535
H   H30       1.0  0.73070  0.56500  0.72640  1.0000 0.1003705624
H   H31       1.0  0.73070  0.93500  0.22640  1.0000 0.1003705624
H   H32       1.0  0.26930  0.43500  0.27360  1.0000 0.1003705624
H   H33       1.0  0.32620  0.15430  0.73470  1.0000 0.1003705624
H   H34       1.0  0.67380  0.65430  0.76530  1.0000 0.1003705624
H   H35       1.0  0.67380  0.84570  0.26530  1.0000 0.1003705624
H   H36       1.0  0.32620  0.34570  0.23470  1.0000 0.1003705624
H   H37       1.0  0.36810  0.63320  0.74480  1.0000 0.0808275699
H   H38       1.0  0.63190  0.13320  0.75520  1.0000 0.0808275699
H   H39       1.0  0.63190  0.36680  0.25520  1.0000 0.0808275699
H   H40       1.0  0.36810  0.86680  0.24480  1.0000 0.0808275699
H   H41       1.0  0.44890  0.77760  0.89400  1.0000 0.1096099535
H   H42       1.0  0.55110  0.27760  0.60600  1.0000 0.1096099535
H   H43       1.0  0.55110  0.22240  0.10600  1.0000 0.1096099535
H   H44       1.0  0.44890  0.72240  0.39400  1.0000 0.1096099535
H   H45       1.0  0.54080  0.66900  0.90860  1.0000 0.0905626252
H   H46       1.0  0.45920  0.16900  0.59140  1.0000 0.0905626252
H   H47       1.0  0.45920  0.33100  0.09140  1.0000 0.0905626252
H   H48       1.0  0.54080  0.83100  0.40860  1.0000 0.0905626252
H   H49       1.0  0.25690  0.68090  0.65180  1.0000 0.0808275699
H   H50       1.0  0.74310  0.18090  0.84820  1.0000 0.0808275699
H   H51       1.0  0.74310  0.31910  0.34820  1.0000 0.0808275699
H   H52       1.0  0.25690  0.81910  0.15180  1.0000 0.0808275699
H   H53       1.0  0.19740  0.44240  0.82370  1.0000 0.2826775841
H   H54       1.0  0.80260  0.94240  0.67630  1.0000 0.2826775841
H   H55       1.0  0.80260  0.55760  0.17630  1.0000 0.2826775841
H   H56       1.0  0.19740  0.05760  0.32370  1.0000 0.2826775841
H   H57       1.0  0.21140  0.95200  0.64850  1.0000 0.1003705624
H   H58       1.0  0.78860  0.45200  0.85150  1.0000 0.1003705624
H   H59       1.0  0.78860  0.04800  0.35150  1.0000 0.1003705624
H   H60       1.0  0.21140  0.54800  0.14850  1.0000 0.1003705624
H   H61       1.0  0.18260  0.90810  0.54960  1.0000 0.0808275699
H   H62       1.0  0.81740  0.40810  0.95040  1.0000 0.0808275699
H   H63       1.0  0.81740  0.09190  0.45040  1.0000 0.0808275699
H   H64       1.0  0.18260  0.59190  0.04960  1.0000 0.0808275699
H   H65       1.0  0.25120  0.73070  0.88940  1.0000 0.0808275699
H   H66       1.0  0.74880  0.23070  0.61060  1.0000 0.0808275699
H   H67       1.0  0.74880  0.26930  0.11060  1.0000 0.0808275699
H   H68       1.0  0.25120  0.76930  0.38940  1.0000 0.0808275699
H   H69       1.0  0.36100  0.95690  0.90840  1.0000 0.1003705624
H   H70       1.0  0.63900  0.45690  0.59160  1.0000 0.1003705624
H   H71       1.0  0.63900  0.04310  0.09160  1.0000 0.1003705624
H   H72       1.0  0.36100  0.54310  0.40840  1.0000 0.1003705624
H   H73       1.0  0.33700  0.96260  0.98470  1.0000 0.1003705624
H   H74       1.0  0.66300  0.46260  0.51530  1.0000 0.1003705624
H   H75       1.0  0.66300  0.03740  0.01530  1.0000 0.1003705624
H   H76       1.0  0.33700  0.53740  0.48470  1.0000 0.1003705624
H   H77       1.0  0.16030  0.58540  0.76220  1.0000 0.0905626252
H   H78       1.0  0.83970  0.08540  0.73780  1.0000 0.0905626252
H   H79       1.0  0.83970  0.41460  0.23780  1.0000 0.0905626252
H   H80       1.0  0.16030  0.91460  0.26220  1.0000 0.0905626252
H   H81       1.0  0.36760  0.59810  0.88090  1.0000 0.1202792063
H   H82       1.0  0.63240  0.09810  0.61910  1.0000 0.1202792063
H   H83       1.0  0.63240  0.40190  0.11910  1.0000 0.1202792063
H   H84       1.0  0.36760  0.90190  0.38090  1.0000 0.1202792063
H   H85       1.0  0.32710  0.44550  0.89910  1.0000 0.1096099535
H   H86       1.0  0.67290  0.94550  0.60090  1.0000 0.1096099535
H   H87       1.0  0.67290  0.55450  0.10090  1.0000 0.1096099535
H   H88       1.0  0.32710  0.05450  0.39910  1.0000 0.1096099535
H   H89       1.0  0.27110  0.36850  0.96170  1.0000 0.1096099535
H   H90       1.0  0.72890  0.86850  0.53830  1.0000 0.1096099535
H   H91       1.0  0.72890  0.63150  0.03830  1.0000 0.1096099535
H   H92       1.0  0.27110  0.13150  0.46170  1.0000 0.1096099535
H   H93       1.0  0.96480  0.40440  0.76970  1.0000 0.0808275699
H   H94       1.0  0.03520  0.90440  0.73030  1.0000 0.0808275699
H   H95       1.0  0.03520  0.59560  0.23030  1.0000 0.0808275699
H   H96       1.0  0.96480  0.09560  0.26970  1.0000 0.0808275699
H   H97       1.0  0.08960  0.29960  0.72840  1.0000 0.0808275699
H   H98       1.0  0.91040  0.79960  0.77160  1.0000 0.0808275699
H   H99       1.0  0.91040  0.70040  0.27160  1.0000 0.0808275699
H   H100      1.0  0.08960  0.20040  0.22840  1.0000 0.0905626252
H   H101      1.0  0.06290  0.46720  0.69540  1.0000 0.1003705624
H   H102      1.0  0.93710  0.96720  0.80460  1.0000 0.1003705624
H   H103      1.0  0.93710  0.53280  0.30460  1.0000 0.1003705624
H   H104      1.0  0.06290  0.03280  0.19540  1.0000 0.1003705624
H   H105      1.0  0.89650  0.27110  0.66100  1.0000 0.0808275699
H   H106      1.0  0.10350  0.77110  0.83900  1.0000 0.0808275699
H   H107      1.0  0.10350  0.72890  0.33900  1.0000 0.0808275699
H   H108      1.0  0.89650  0.22890  0.16100  1.0000 0.0808275699
H   H109      1.0  0.93790  0.00430  0.64520  1.0000 0.1003705624
H   H110      1.0  0.06210  0.50430  0.85480  1.0000 0.1003705624
H   H111      1.0  0.06210  0.99570  0.35480  1.0000 0.1003705624
H   H112      1.0  0.93790  0.49570  0.14520  1.0000 0.1003705624
H   H113      1.0  0.83380  0.05490  0.54680  1.0000 0.0905626252
H   H114      1.0  0.16620  0.55490  0.95320  1.0000 0.0905626252
H   H115      1.0  0.16620  0.94510  0.45320  1.0000 0.0905626252
H   H116      1.0  0.83380  0.44510  0.04680  1.0000 0.0905626252
H   H117      1.0  0.11740  0.92820  0.88400  1.0000 0.0718073153
H   H118      1.0  0.88260  0.42820  0.61600  1.0000 0.0718073153
H   H119      1.0  0.88260  0.07180  0.11600  1.0000 0.0718073153
H   H120      1.0  0.11740  0.57180  0.38400  1.0000 0.0718073153
H   H121      1.0  0.15270  0.18910  0.94980  1.0000 0.0905626252
H   H122      1.0  0.84730  0.68910  0.55020  1.0000 0.0905626252
H   H123      1.0  0.84730  0.81090  0.05020  1.0000 0.0905626252
H   H124      1.0  0.15270  0.31090  0.44980  1.0000 0.0905626252
H   H125      1.0  0.17740  0.15150  0.54150  1.0000 0.2726897232
H   H126      1.0  0.82260  0.65150  0.95850  1.0000 0.2726897232
H   H127      1.0  0.82260  0.84850  0.45850  1.0000 0.2726897232
H   H128      1.0  0.17740  0.34850  0.04150  1.0000 0.2726897232
H   H129      1.0  0.23400  0.07780  0.03140  1.0000 0.0905626252
H   H130      1.0  0.76600  0.57780  0.46860  1.0000 0.0905626252
H   H131      1.0  0.76600  0.92220  0.96860  1.0000 0.0905626252
H   H132      1.0  0.23400  0.42220  0.53140  1.0000 0.0905626252
H   H133      1.0  0.14740  0.36430  0.87440  1.0000 0.1202792063
H   H134      1.0  0.85260  0.86430  0.62560  1.0000 0.1202792063
H   H135      1.0  0.85260  0.63570  0.12560  1.0000 0.1202792063
H   H136      1.0  0.14740  0.13570  0.37440  1.0000 0.1202792063
H   H137      1.0  0.93550  0.67700  0.39150  1.0000 0.2726897232
H   H138      1.0  0.06450  0.17700  0.10850  1.0000 0.2726897232
H   H139      1.0  0.06450  0.32300  0.60850  1.0000 0.2726897232
H   H140      1.0  0.93550  0.82300  0.89150  1.0000 0.2726897232
H   H141      1.0  0.24020  0.12880  0.87120  1.0000 0.1096099535
H   H142      1.0  0.75980  0.62880  0.62880  1.0000 0.1096099535
H   H143      1.0  0.75980  0.87120  0.12880  1.0000 0.1096099535
H   H144      1.0  0.24020  0.37120  0.37120  1.0000 0.1096099535
H   H145      1.0  0.32720  0.22590  0.95780  1.0000 0.2826775841
H   H146      1.0  0.67280  0.72590  0.54220  1.0000 0.2826775841
H   H147      1.0  0.67280  0.77410  0.04220  1.0000 0.2826775841
H   H148      1.0  0.32720  0.27410  0.45780  1.0000 0.2826775841
H   H149      1.0  0.51830  0.29670  0.71420  1.0000 0.0808275699
H   H150      1.0  0.48170  0.79670  0.78580  1.0000 0.0808275699
H   H151      1.0  0.48170  0.70330  0.28580  1.0000 0.0808275699
H   H152      1.0  0.51830  0.20330  0.21420  1.0000 0.0808275699
H   H153      1.0  0.43620  0.23190  0.80010  1.0000 0.1096099535
H   H154      1.0  0.56380  0.73190  0.69990  1.0000 0.1096099535
H   H155      1.0  0.56380  0.76810  0.19990  1.0000 0.1096099535
H   H156      1.0  0.43620  0.26810  0.30010  1.0000 0.1096099535
H   H157      1.0  0.46610  0.40170  0.81670  1.0000 0.1003705624
H   H158      1.0  0.53390  0.90170  0.68330  1.0000 0.1003705624
H   H159      1.0  0.53390  0.59830  0.18330  1.0000 0.1003705624
H   H160      1.0  0.46610  0.09830  0.31670  1.0000 0.1003705624
H   H161      1.0  0.57880  0.17060  0.86250  1.0000 0.0905626252
H   H162      1.0  0.42120  0.67060  0.63750  1.0000 0.0905626252
H   H163      1.0  0.42120  0.82940  0.13750  1.0000 0.0905626252
H   H164      1.0  0.57880  0.32940  0.36250  1.0000 0.0905626252
H   H165      1.0  0.63140  0.95480  0.80300  1.0000 0.1096099535
H   H166      1.0  0.36860  0.45480  0.69700  1.0000 0.1096099535
H   H167      1.0  0.36860  0.04520  0.19700  1.0000 0.1096099535
H   H168      1.0  0.63140  0.54520  0.30300  1.0000 0.1096099535
H   H169      1.0  0.74030  0.01400  0.89670  1.0000 0.0905626252
H   H170      1.0  0.25970  0.51400  0.60330  1.0000 0.0905626252
H   H171      1.0  0.25970  0.98600  0.10330  1.0000 0.0905626252
H   H172      1.0  0.74030  0.48600  0.39670  1.0000 0.0905626252
H   H173      1.0  0.35900  0.84880  0.63300  1.0000 0.0808275699
H   H174      1.0  0.64100  0.34880  0.86700  1.0000 0.0808275699
H   H175      1.0  0.64100  0.15120  0.36700  1.0000 0.0808275699
H   H176      1.0  0.35900  0.65120  0.13300  1.0000 0.0808275699
H   H177      1.0  0.38610  0.03410  0.54150  1.0000 0.0905626252
H   H178      1.0  0.61390  0.53410  0.95850  1.0000 0.0905626252
H   H179      1.0  0.61390  0.96590  0.45850  1.0000 0.0905626252
H   H180      1.0  0.38610  0.46590  0.04150  1.0000 0.0905626252
H   H181      1.0  0.30430  0.90850  0.47060  1.0000 0.1003705624
H   H182      1.0  0.69570  0.40850  0.02940  1.0000 0.1003705624
H   H183      1.0  0.69570  0.09150  0.52940  1.0000 0.1003705624
H   H184      1.0  0.30430  0.59150  0.97060  1.0000 0.1003705624
H   H185      1.0  0.27340  0.04510  0.57770  1.0000 0.0905626252
H   H186      1.0  0.72660  0.54510  0.92230  1.0000 0.0905626252
H   H187      1.0  0.72660  0.95490  0.42230  1.0000 0.0905626252
H   H188      1.0  0.27340  0.45490  0.07770  1.0000 0.0905626252
H   H189      1.0  0.35060  0.29260  0.65760  1.0000 0.1202792063
H   H190      1.0  0.64940  0.79260  0.84240  1.0000 0.1202792063
H   H191      1.0  0.64940  0.70740  0.34240  1.0000 0.1202792063
H   H192      1.0  0.35060  0.20740  0.15760  1.0000 0.1202792063
H   H193      1.0  0.22090  0.30520  0.59320  1.0000 0.1096099535
H   H194      1.0  0.77910  0.80520  0.90680  1.0000 0.1096099535
H   H195      1.0  0.77910  0.69480  0.40680  1.0000 0.1096099535
H   H196      1.0  0.22090  0.19480  0.09320  1.0000 0.1096099535
H   H197      1.0  0.02960  0.74990  0.39140  1.0000 0.1096099535
H   H198      1.0  0.97040  0.24990  0.10860  1.0000 0.1096099535
H   H199      1.0  0.97040  0.25010  0.60860  1.0000 0.1096099535
H   H200      1.0  0.02960  0.75010  0.89140  1.0000 0.1096099535
H   H201      1.0  0.11170  0.58580  0.53740  1.0000 0.1096099535
H   H202      1.0  0.88830  0.08580  0.96260  1.0000 0.1096099535
H   H203      1.0  0.88830  0.41420  0.46260  1.0000 0.1096099535
H   H204      1.0  0.11170  0.91420  0.03740  1.0000 0.1096099535
H   H205      1.0  0.98070  0.58730  0.47990  1.0000 0.1003705624
H   H206      1.0  0.01930  0.08730  0.02010  1.0000 0.1096099535
H   H207      1.0  0.01930  0.41270  0.52010  1.0000 0.1003705624
H   H208      1.0  0.98070  0.91270  0.97990  1.0000 0.1096099535
C   C1        1.0  0.16770  0.98140  0.79130  1.0000 0.1202792063
C   C2        1.0  0.83230  0.48140  0.70870  1.0000 0.1202792063
C   C3        1.0  0.83230  0.01860  0.20870  1.0000 0.1202792063
C   C4        1.0  0.16770  0.51860  0.29130  1.0000 0.1202792063
C   C5        1.0  0.12840  0.96800  0.69980  1.0000 -0.0599940189
C   C6        1.0  0.87160  0.46800  0.80020  1.0000 -0.0599940189
C   C7        1.0  0.87160  0.03200  0.30020  1.0000 -0.0599940189
C   C8        1.0  0.12840  0.53200  0.19980  1.0000 -0.0599940189
C   C9        1.0  0.09760  0.04560  0.70550  1.0000 -0.0599940189
C   C10       1.0  0.90240  0.54560  0.79450  1.0000 -0.0599940189
C   C11       1.0  0.90240  0.95440  0.29450  1.0000 -0.0599940189
C   C12       1.0  0.09760  0.45440  0.20550  1.0000 -0.0599940189
C   C13       1.0  0.09300  0.73230  0.71420  1.0000 0.13883577
C   C14       1.0  0.90700  0.23230  0.78580  1.0000 0.13883577
C   C15       1.0  0.90700  0.26770  0.28580  1.0000 0.13883577
C   C16       1.0  0.09300  0.76770  0.21420  1.0000 0.13883577
C   C17       1.0  0.10400  0.67290  0.65040  1.0000 -0.0502909518
C   C18       1.0  0.89600  0.17290  0.84960  1.0000 -0.0502909518
C   C19       1.0  0.89600  0.32710  0.34960  1.0000 -0.0502909518
C   C20       1.0  0.10400  0.82710  0.15040  1.0000 -0.0502909518
C   C21       1.0  0.04170  0.64010  0.63750  1.0000 -0.0700451669
C   C22       1.0  0.95830  0.14010  0.86250  1.0000 -0.0700451669
C   C23       1.0  0.95830  0.35990  0.36250  1.0000 -0.0700451669
C   C24       1.0  0.04170  0.85990  0.13750  1.0000 -0.0700451669
C   C25       1.0  0.37520  0.94710  0.76800  1.0000 0.1507176493
C   C26       1.0  0.62480  0.44710  0.73200  1.0000 0.1507176493
C   C27       1.0  0.62480  0.05290  0.23200  1.0000 0.1507176493
C   C28       1.0  0.37520  0.55290  0.26800  1.0000 0.1507176493
C   C29       1.0  0.30360  0.03990  0.76890  1.0000 -0.0502909518
C   C30       1.0  0.69640  0.53990  0.73110  1.0000 -0.0502909518
C   C31       1.0  0.69640  0.96010  0.23110  1.0000 -0.0502909518
C   C32       1.0  0.30360  0.46010  0.26890  1.0000 -0.0502909518
C   C33       1.0  0.33520  0.08960  0.74760  1.0000 -0.0599940189
C   C34       1.0  0.66480  0.58960  0.75240  1.0000 -0.0599940189
C   C35       1.0  0.66480  0.91040  0.25240  1.0000 -0.0599940189
C   C36       1.0  0.33520  0.41040  0.24760  1.0000 -0.0599940189
C   C37       1.0  0.39960  0.65470  0.78480  1.0000 0.13883577
C   C38       1.0  0.60040  0.15470  0.71520  1.0000 0.13883577
C   C39       1.0  0.60040  0.34530  0.21520  1.0000 0.13883577
C   C40       1.0  0.39960  0.84530  0.28480  1.0000 0.13883577
C   C41       1.0  0.44270  0.73340  0.86520  1.0000 -0.0700451669
C   C42       1.0  0.55730  0.23340  0.63480  1.0000 -0.0700451669
C   C43       1.0  0.55730  0.26660  0.13480  1.0000 -0.0700451669
C   C44       1.0  0.44270  0.76660  0.36520  1.0000 -0.0700451669
C   C45       1.0  0.49390  0.67400  0.87310  1.0000 -0.0599940189
C   C46       1.0  0.50610  0.17400  0.62690  1.0000 -0.0599940189
C   C47       1.0  0.50610  0.32600  0.12690  1.0000 -0.0599940189
C   C48       1.0  0.49390  0.82600  0.37310  1.0000 -0.0599940189
C   C49       1.0  0.24290  0.74510  0.63910  1.0000 0.1323314563
C   C50       1.0  0.75710  0.24510  0.86090  1.0000 0.1323314563
C   C51       1.0  0.75710  0.25490  0.36090  1.0000 0.1323314563
C   C52       1.0  0.24290  0.75490  0.13910  1.0000 0.1323314563
C   C53       1.0  0.21810  0.89060  0.63790  1.0000 -0.0502909518
C   C54       1.0  0.78190  0.39060  0.86210  1.0000 -0.0502909518
C   C55       1.0  0.78190  0.10940  0.36210  1.0000 -0.0502909518
C   C56       1.0  0.21810  0.60940  0.13790  1.0000 -0.0502909518
C   C57       1.0  0.20270  0.86630  0.58290  1.0000 -0.0401527307
C   C58       1.0  0.79730  0.36630  0.91710  1.0000 -0.0401527307
C   C59       1.0  0.79730  0.13370  0.41710  1.0000 -0.0401527307
C   C60       1.0  0.20270  0.63370  0.08290  1.0000 -0.0401527307
C   C61       1.0  0.27620  0.78950  0.90410  1.0000 0.13883577
C   C62       1.0  0.72380  0.28950  0.59590  1.0000 0.13883577
C   C63       1.0  0.72380  0.21050  0.09590  1.0000 0.1323314563
C   C64       1.0  0.27620  0.71050  0.40410  1.0000 0.13883577
C   C65       1.0  0.33490  0.91050  0.91320  1.0000 -0.0401527307
C   C66       1.0  0.66510  0.41050  0.58680  1.0000 -0.0401527307
C   C67       1.0  0.66510  0.08950  0.08680  1.0000 -0.0401527307
C   C68       1.0  0.33490  0.58950  0.41320  1.0000 -0.0401527307
C   C69       1.0  0.32200  0.91340  0.95590  1.0000 -0.0502909518
C   C70       1.0  0.67800  0.41340  0.54410  1.0000 -0.0502909518
C   C71       1.0  0.67800  0.08660  0.04410  1.0000 -0.0502909518
C   C72       1.0  0.32200  0.58660  0.45590  1.0000 -0.0502909518
C   C73       1.0  0.20750  0.56980  0.79460  1.0000 0.13883577
C   C74       1.0  0.79250  0.06980  0.70540  1.0000 0.13883577
C   C75       1.0  0.79250  0.43020  0.20540  1.0000 0.13883577
C   C76       1.0  0.20750  0.93020  0.29460  1.0000 0.13883577
C   C77       1.0  0.31990  0.57630  0.85900  1.0000 -0.0304990655
C   C78       1.0  0.68010  0.07630  0.64100  1.0000 -0.0304990655
C   C79       1.0  0.68010  0.42370  0.14100  1.0000 -0.0304990655
C   C80       1.0  0.31990  0.92370  0.35900  1.0000 -0.0304990655
C   C81       1.0  0.29800  0.49180  0.86930  1.0000 -0.0700451669
C   C82       1.0  0.70200  0.99180  0.63070  1.0000 -0.0700451669
C   C83       1.0  0.70200  0.50820  0.13070  1.0000 -0.0700451669
C   C84       1.0  0.29800  0.00820  0.36930  1.0000 -0.0700451669
C   C85       1.0  0.24960  0.31920  0.93260  1.0000 -0.0700451669
C   C86       1.0  0.75040  0.81920  0.56740  1.0000 -0.0700451669
C   C87       1.0  0.75040  0.68080  0.06740  1.0000 -0.0700451669
C   C88       1.0  0.24960  0.18080  0.43260  1.0000 -0.0700451669
C   C89       1.0  0.99250  0.39930  0.75490  1.0000 0.1323314563
C   C90       1.0  0.00750  0.89930  0.74510  1.0000 0.1323314563
C   C91       1.0  0.00750  0.60070  0.24510  1.0000 0.1323314563
C   C92       1.0  0.99250  0.10070  0.25490  1.0000 0.1323314563
C   C93       1.0  0.06060  0.34090  0.73290  1.0000 -0.0802466484
C   C94       1.0  0.93940  0.84090  0.76710  1.0000 -0.0802466484
C   C95       1.0  0.93940  0.65910  0.26710  1.0000 -0.0802466484
C   C96       1.0  0.06060  0.15910  0.23290  1.0000 -0.0802466484
C   C97       1.0  0.04600  0.43330  0.71450  1.0000 -0.095684144
C   C98       1.0  0.95400  0.93330  0.78550  1.0000 -0.095684144
C   C99       1.0  0.95400  0.56670  0.28550  1.0000 -0.095684144
C   C100      1.0  0.04600  0.06670  0.21450  1.0000 -0.095684144
C   C101      1.0  0.89440  0.21050  0.64470  1.0000 0.1003705624
C   C102      1.0  0.10560  0.71050  0.85530  1.0000 0.1003705624
C   C103      1.0  0.10560  0.78950  0.35530  1.0000 0.1003705624
C   C104      1.0  0.89440  0.28950  0.14470  1.0000 0.1003705624
C   C105      1.0  0.91690  0.06590  0.63640  1.0000 -0.0700451669
C   C106      1.0  0.08310  0.56590  0.86360  1.0000 -0.0700451669
C   C107      1.0  0.08310  0.93410  0.36360  1.0000 -0.0700451669
C   C108      1.0  0.91690  0.43410  0.13640  1.0000 -0.0700451669
C   C109      1.0  0.85910  0.09360  0.58160  1.0000 -0.0700451669
C   C110      1.0  0.14090  0.59360  0.91840  1.0000 -0.0700451669
C   C111      1.0  0.14090  0.90640  0.41840  1.0000 -0.0700451669
C   C112      1.0  0.85910  0.40640  0.08160  1.0000 -0.0700451669
C   C113      1.0  0.13750  0.98050  0.91100  1.0000 0.1323314563
C   C114      1.0  0.86250  0.48050  0.58900  1.0000 0.1323314563
C   C115      1.0  0.86250  0.01950  0.08900  1.0000 0.1323314563
C   C116      1.0  0.13750  0.51950  0.41100  1.0000 0.1323314563
C   C117      1.0  0.15510  0.12220  0.94560  1.0000 -0.0502909518
C   C118      1.0  0.84490  0.62220  0.55440  1.0000 -0.0502909518
C   C119      1.0  0.84490  0.87780  0.05440  1.0000 -0.0502909518
C   C120      1.0  0.15510  0.37780  0.44560  1.0000 -0.0502909518
C   C121      1.0  0.20050  0.06070  0.99070  1.0000 -0.0700451669
C   C122      1.0  0.79950  0.56070  0.50930  1.0000 -0.0700451669
C   C123      1.0  0.79950  0.93930  0.00930  1.0000 -0.0700451669
C   C124      1.0  0.20050  0.43930  0.49070  1.0000 -0.0700451669
C   C125      1.0  0.18170  0.31610  0.88520  1.0000 -0.0802466484
C   C126      1.0  0.81830  0.81610  0.61480  1.0000 -0.0802466484
C   C127      1.0  0.81830  0.68390  0.11480  1.0000 -0.0802466484
C   C128      1.0  0.18170  0.18390  0.38520  1.0000 -0.0802466484
C   C129      1.0  0.23170  0.18780  0.88290  1.0000 0.1202792063
C   C130      1.0  0.76830  0.68780  0.61710  1.0000 0.1202792063
C   C131      1.0  0.76830  0.81220  0.11710  1.0000 0.1202792063
C   C132      1.0  0.23170  0.31220  0.38290  1.0000 0.1202792063
C   C133      1.0  0.50120  0.30110  0.73800  1.0000 0.1507176493
C   C134      1.0  0.49880  0.80110  0.76200  1.0000 0.1507176493
C   C135      1.0  0.49880  0.69890  0.26200  1.0000 0.1507176493
C   C136      1.0  0.50120  0.19890  0.23800  1.0000 0.1507176493
C   C137      1.0  0.45660  0.26620  0.78400  1.0000 -0.0502909518
C   C138      1.0  0.54340  0.76620  0.71600  1.0000 -0.0502909518
C   C139      1.0  0.54340  0.73380  0.21600  1.0000 -0.0502909518
C   C140      1.0  0.45660  0.23380  0.28400  1.0000 -0.0502909518
C   C141      1.0  0.47370  0.35980  0.79390  1.0000 -0.0700451669
C   C142      1.0  0.52630  0.85980  0.70610  1.0000 -0.0700451669
C   C143      1.0  0.52630  0.64020  0.20610  1.0000 -0.0700451669
C   C144      1.0  0.47370  0.14020  0.29390  1.0000 -0.0700451669
C   C145      1.0  0.60590  0.12280  0.85990  1.0000 0.1747421256
C   C146      1.0  0.39410  0.62280  0.64010  1.0000 0.1747421256
C   C147      1.0  0.39410  0.87720  0.14010  1.0000 0.1747421256
C   C148      1.0  0.60590  0.37720  0.35990  1.0000 0.1747421256
C   C149      1.0  0.63390  0.00590  0.82680  1.0000 -0.0700451669
C   C150      1.0  0.36610  0.50590  0.67320  1.0000 -0.0700451669
C   C151      1.0  0.36610  0.99410  0.17320  1.0000 -0.0700451669
C   C152      1.0  0.63390  0.49410  0.32680  1.0000 -0.0700451669
C   C153      1.0  0.69390  0.03830  0.87880  1.0000 -0.0802466484
C   C154      1.0  0.30610  0.53830  0.62120  1.0000 -0.0802466484
C   C155      1.0  0.30610  0.96170  0.12120  1.0000 -0.0802466484
C   C156      1.0  0.69390  0.46170  0.37880  1.0000 -0.0802466484
C   C157      1.0  0.35510  0.87970  0.60060  1.0000 0.1507176493
C   C158      1.0  0.64490  0.37970  0.89940  1.0000 0.1507176493
C   C159      1.0  0.64490  0.12030  0.39940  1.0000 0.1507176493
C   C160      1.0  0.35510  0.62030  0.10060  1.0000 0.1507176493
C   C161      1.0  0.37020  0.98010  0.55140  1.0000 -0.0599940189
C   C162      1.0  0.62980  0.48010  0.94860  1.0000 -0.0599940189
C   C163      1.0  0.62980  0.01990  0.44860  1.0000 -0.0599940189
C   C164      1.0  0.37020  0.51990  0.05140  1.0000 -0.0599940189
C   C165      1.0  0.32470  0.91100  0.51200  1.0000 -0.0599940189
C   C166      1.0  0.67530  0.41100  0.98800  1.0000 -0.0599940189
C   C167      1.0  0.67530  0.08900  0.48800  1.0000 -0.0599940189
C   C168      1.0  0.32470  0.58900  0.01200  1.0000 -0.0599940189
C   C169      1.0  0.27750  0.10990  0.58950  1.0000 0.13883577
C   C170      1.0  0.72250  0.60990  0.91050  1.0000 0.13883577
C   C171      1.0  0.72250  0.89010  0.41050  1.0000 0.13883577
C   C172      1.0  0.27750  0.39010  0.08950  1.0000 0.13883577
C   C173      1.0  0.31880  0.24310  0.63290  1.0000 -0.0401527307
C   C174      1.0  0.68120  0.74310  0.86710  1.0000 -0.0401527307
C   C175      1.0  0.68120  0.75690  0.36710  1.0000 -0.0401527307
C   C176      1.0  0.31880  0.25690  0.13290  1.0000 -0.0401527307
C   C177      1.0  0.24790  0.25080  0.59740  1.0000 -0.0700451669
C   C178      1.0  0.75210  0.75080  0.90260  1.0000 -0.0700451669
C   C179      1.0  0.75210  0.74920  0.40260  1.0000 -0.0700451669
C   C180      1.0  0.24790  0.24920  0.09740  1.0000 -0.0700451669
C   C181      1.0  0.03520  0.70870  0.42120  1.0000 0.1507176493
C   C182      1.0  0.96480  0.20870  0.07880  1.0000 0.1507176493
C   C183      1.0  0.96480  0.29130  0.57880  1.0000 0.1507176493
C   C184      1.0  0.03520  0.79130  0.92120  1.0000 0.1507176493
C   C185      1.0  0.07930  0.61930  0.50120  1.0000 -0.0700451669
C   C186      1.0  0.92070  0.11930  0.99880  1.0000 -0.0700451669
C   C187      1.0  0.92070  0.38070  0.49880  1.0000 -0.0700451669
C   C188      1.0  0.07930  0.88070  0.00120  1.0000 -0.0700451669
C   C189      1.0  0.00750  0.61900  0.46890  1.0000 -0.0502909518
C   C190      1.0  0.99250  0.11900  0.03110  1.0000 -0.0502909518
C   C191      1.0  0.99250  0.38100  0.53110  1.0000 -0.0502909518
C   C192      1.0  0.00750  0.88100  0.96890  1.0000 -0.0502909518
N   N1        1.0  0.17540  0.92890  0.75580  1.0000 -0.4085515875
N   N2        1.0  0.82460  0.42890  0.74420  1.0000 -0.4085515875
N   N3        1.0  0.82460  0.07110  0.24420  1.0000 -0.4019933228
N   N4        1.0  0.17540  0.57110  0.25580  1.0000 -0.4085515875
N   N5        1.0  0.12050  0.05540  0.76300  1.0000 -0.4474897657
N   N6        1.0  0.87950  0.55540  0.73700  1.0000 -0.4474897657
N   N7        1.0  0.87950  0.94460  0.23700  1.0000 -0.4474897657
N   N8        1.0  0.12050  0.44460  0.26300  1.0000 -0.4474897657
N   N9        1.0  0.13890  0.73270  0.70040  1.0000 -0.439597533
N   N10       1.0  0.86110  0.23270  0.79960  1.0000 -0.439597533
N   N11       1.0  0.86110  0.26730  0.29960  1.0000 -0.4321032085
N   N12       1.0  0.13890  0.76730  0.20040  1.0000 -0.439597533
N   N13       1.0  0.03430  0.68140  0.68120  1.0000 -0.439597533
N   N14       1.0  0.96570  0.18140  0.81880  1.0000 -0.439597533
N   N15       1.0  0.96570  0.31860  0.31880  1.0000 -0.439597533
N   N16       1.0  0.03430  0.81860  0.18120  1.0000 -0.439597533
N   N17       1.0  0.32950  0.94770  0.78250  1.0000 -0.4202448806
N   N18       1.0  0.67050  0.44770  0.71750  1.0000 -0.4202448806
N   N19       1.0  0.67050  0.05230  0.21750  1.0000 -0.4202448806
N   N20       1.0  0.32950  0.55230  0.28250  1.0000 -0.4202448806
N   N21       1.0  0.38290  0.02870  0.74820  1.0000 -0.4321032085
N   N22       1.0  0.61710  0.52870  0.75180  1.0000 -0.4321032085
N   N23       1.0  0.61710  0.97130  0.25180  1.0000 -0.4321032085
N   N24       1.0  0.38290  0.47130  0.24820  1.0000 -0.4321032085
N   N25       1.0  0.38030  0.71950  0.80900  1.0000 -0.4321032085
N   N26       1.0  0.61970  0.21950  0.69100  1.0000 -0.4321032085
N   N27       1.0  0.61970  0.28050  0.19100  1.0000 -0.4321032085
N   N28       1.0  0.38030  0.78050  0.30900  1.0000 -0.4321032085
N   N29       1.0  0.46700  0.62280  0.82170  1.0000 -0.4202448806
N   N30       1.0  0.53300  0.12280  0.67830  1.0000 -0.4202448806
N   N31       1.0  0.53300  0.37720  0.17830  1.0000 -0.4202448806
N   N32       1.0  0.46700  0.87720  0.32170  1.0000 -0.4202448806
N   N33       1.0  0.24440  0.81200  0.67460  1.0000 -0.4202448806
N   N34       1.0  0.75560  0.31200  0.82540  1.0000 -0.4202448806
N   N35       1.0  0.75560  0.18800  0.32540  1.0000 -0.4202448806
N   N36       1.0  0.24440  0.68800  0.17460  1.0000 -0.4202448806
N   N37       1.0  0.21990  0.77590  0.58350  1.0000 -0.4202448806
N   N38       1.0  0.78010  0.27590  0.91650  1.0000 -0.4202448806
N   N39       1.0  0.78010  0.22410  0.41650  1.0000 -0.4202448806
N   N40       1.0  0.21990  0.72410  0.08350  1.0000 -0.4202448806
N   N41       1.0  0.30500  0.83190  0.87980  1.0000 -0.4085515875
N   N42       1.0  0.69500  0.33190  0.62020  1.0000 -0.4085515875
N   N43       1.0  0.69500  0.16810  0.12020  1.0000 -0.4085515875
N   N44       1.0  0.30500  0.66810  0.37980  1.0000 -0.4085515875
N   N45       1.0  0.28450  0.83510  0.95030  1.0000 -0.4019933228
N   N46       1.0  0.71550  0.33510  0.54970  1.0000 -0.4019933228
N   N47       1.0  0.71550  0.16490  0.04970  1.0000 -0.4019933228
N   N48       1.0  0.28450  0.66490  0.45030  1.0000 -0.4019933228
N   N49       1.0  0.26230  0.62340  0.81260  1.0000 -0.3795595087
N   N50       1.0  0.73770  0.12340  0.68740  1.0000 -0.3795595087
N   N51       1.0  0.73770  0.37660  0.18740  1.0000 -0.3795595087
N   N52       1.0  0.26230  0.87660  0.31260  1.0000 -0.3795595087
N   N53       1.0  0.22600  0.48800  0.82800  1.0000 -0.2006150142
N   N54       1.0  0.77400  0.98800  0.67200  1.0000 -0.2006150142
N   N55       1.0  0.77400  0.51200  0.17200  1.0000 -0.2006150142
N   N56       1.0  0.22600  0.01200  0.32800  1.0000 -0.2006150142
N   N57       1.0  0.02780  0.31600  0.75860  1.0000 -0.4474897657
N   N58       1.0  0.97220  0.81600  0.74140  1.0000 -0.4474897657
N   N59       1.0  0.97220  0.68400  0.24140  1.0000 -0.4474897657
N   N60       1.0  0.02780  0.18400  0.25860  1.0000 -0.4474897657
N   N61       1.0  0.00160  0.46990  0.72870  1.0000 -0.4085515875
N   N62       1.0  0.99840  0.96990  0.77130  1.0000 -0.4085515875
N   N63       1.0  0.99840  0.53010  0.27130  1.0000 -0.4085515875
N   N64       1.0  0.00160  0.03010  0.22870  1.0000 -0.4085515875
N   N65       1.0  0.94060  0.13950  0.67710  1.0000 -0.4321032085
N   N66       1.0  0.05940  0.63950  0.82290  1.0000 -0.4321032085
N   N67       1.0  0.05940  0.86050  0.32290  1.0000 -0.4321032085
N   N68       1.0  0.94060  0.36050  0.17710  1.0000 -0.4321032085
N   N69       1.0  0.84370  0.18700  0.58540  1.0000 -0.4474897657
N   N70       1.0  0.15630  0.68700  0.91460  1.0000 -0.4474897657
N   N71       1.0  0.15630  0.81300  0.41460  1.0000 -0.4474897657
N   N72       1.0  0.84370  0.31300  0.08540  1.0000 -0.4474897657
N   N73       1.0  0.11390  0.07170  0.89350  1.0000 -0.439597533
N   N74       1.0  0.88610  0.57170  0.60650  1.0000 -0.439597533
N   N75       1.0  0.88610  0.92830  0.10650  1.0000 -0.439597533
N   N76       1.0  0.11390  0.42830  0.39350  1.0000 -0.439597533
N   N77       1.0  0.19000  0.96970  0.96780  1.0000 -0.4202448806
N   N78       1.0  0.81000  0.46970  0.53220  1.0000 -0.4202448806
N   N79       1.0  0.81000  0.03030  0.03220  1.0000 -0.4202448806
N   N80       1.0  0.19000  0.53030  0.46780  1.0000 -0.4202448806
N   N81       1.0  0.16920  0.23130  0.85440  1.0000 -0.3795595087
N   N82       1.0  0.83080  0.73130  0.64560  1.0000 -0.3795595087
N   N83       1.0  0.83080  0.76870  0.14560  1.0000 -0.3795595087
N   N84       1.0  0.16920  0.26870  0.35440  1.0000 -0.3795595087
N   N85       1.0  0.47250  0.22630  0.74690  1.0000 -0.439597533
N   N86       1.0  0.52750  0.72630  0.75310  1.0000 -0.439597533
N   N87       1.0  0.52750  0.77370  0.25310  1.0000 -0.439597533
N   N88       1.0  0.47250  0.27370  0.24690  1.0000 -0.439597533
N   N89       1.0  0.50420  0.38420  0.76560  1.0000 -0.4321032085
N   N90       1.0  0.49580  0.88420  0.73440  1.0000 -0.4321032085
N   N91       1.0  0.49580  0.61580  0.23440  1.0000 -0.4321032085
N   N92       1.0  0.50420  0.11580  0.26560  1.0000 -0.4321032085
N   N93       1.0  0.57660  0.06150  0.81480  1.0000 -0.4085515875
N   N94       1.0  0.42340  0.56150  0.68520  1.0000 -0.4085515875
N   N95       1.0  0.42340  0.93850  0.18520  1.0000 -0.4085515875
N   N96       1.0  0.57660  0.43850  0.31480  1.0000 -0.4085515875
N   N97       1.0  0.67620  0.11330  0.90170  1.0000 -0.4474897657
N   N98       1.0  0.32380  0.61330  0.59830  1.0000 -0.4474897657
N   N99       1.0  0.32380  0.88670  0.09830  1.0000 -0.4474897657
N   N100      1.0  0.67620  0.38670  0.40170  1.0000 -0.4474897657
N   N101      1.0  0.38880  0.95820  0.60720  1.0000 -0.4019933228
N   N102      1.0  0.61120  0.45820  0.89280  1.0000 -0.4019933228
N   N103      1.0  0.61120  0.04180  0.39280  1.0000 -0.4019933228
N   N104      1.0  0.38880  0.54180  0.10720  1.0000 -0.4019933228
N   N105      1.0  0.31410  0.84500  0.54410  1.0000 -0.4202448806
N   N106      1.0  0.68590  0.34500  0.95590  1.0000 -0.4202448806
N   N107      1.0  0.68590  0.15500  0.45590  1.0000 -0.4202448806
N   N108      1.0  0.31410  0.65500  0.04410  1.0000 -0.4202448806
N   N109      1.0  0.33890  0.15190  0.62820  1.0000 -0.3856407993
N   N110      1.0  0.66110  0.65190  0.87180  1.0000 -0.3856407993
N   N111      1.0  0.66110  0.84810  0.37180  1.0000 -0.3856407993
N   N112      1.0  0.33890  0.34810  0.12820  1.0000 -0.3856407993
N   N113      1.0  0.22220  0.16610  0.56870  1.0000 -0.1880110439
N   N114      1.0  0.77780  0.66610  0.93130  1.0000 -0.1880110439
N   N115      1.0  0.77780  0.83390  0.43130  1.0000 -0.1880110439
N   N116      1.0  0.22220  0.33390  0.06870  1.0000 -0.1880110439
N   N117      1.0  0.09650  0.68090  0.46940  1.0000 -0.3795595087
N   N118      1.0  0.90350  0.18090  0.03060  1.0000 -0.3795595087
N   N119      1.0  0.90350  0.31910  0.53060  1.0000 -0.3795595087
N   N120      1.0  0.09650  0.81910  0.96940  1.0000 -0.3795595087
N   N121      1.0  0.98100  0.66960  0.42020  1.0000 -0.1759393097
N   N122      1.0  0.01900  0.16960  0.07980  1.0000 -0.1759393097
N   N123      1.0  0.01900  0.33040  0.57980  1.0000 -0.1759393097
N   N124      1.0  0.98100  0.83040  0.92020  1.0000 -0.1759393097
N   N125      1.0  0.28220  0.24070  0.93190  1.0000 -0.1880110439
N   N126      1.0  0.71780  0.74070  0.56810  1.0000 -0.1880110439
N   N127      1.0  0.71780  0.75930  0.06810  1.0000 -0.1880110439
N   N128      1.0  0.28220  0.25930  0.43190  1.0000 -0.1880110439
