# DDEC6 charges by PACMAN v1.1 (https://github.com/mtap-research/PACMAN-charge/)
data_2006[Nd][sqc]3[FSR]1
_chemical_formula_sum              "Nd2 H32 C18 O16"
_cell_length_a       8.6742
_cell_length_b       9.9686
_cell_length_c       11.756
_cell_angle_alpha    105.19
_cell_angle_beta     110.301
_cell_angle_gamma    85.93

_symmetry_space_group_name_H-M    "P 1"
_symmetry_Int_Tables_number       1

loop_
  _symmetry_equiv_pos_as_xyz
  'x, y, z'

loop_
  _atom_site_type_symbol
  _atom_site_label
  _atom_site_symmetry_multiplicity
  _atom_site_fract_x
  _atom_site_fract_y
  _atom_site_fract_z
  _atom_site_occupancy
  _atom_site_charge
Nd  Nd1       1.0  0.25445  0.52242  0.51191  1.0000 2.0482723477
Nd  Nd2       1.0  0.74555  0.47758  0.48809  1.0000 2.0482723477
H   H1        1.0  0.76730  0.70020  0.86250  1.0000 0.1423130955
H   H2        1.0  0.23270  0.29980  0.13750  1.0000 0.1423130955
H   H3        1.0  0.79540  0.53970  0.83730  1.0000 0.1423130955
H   H4        1.0  0.20460  0.46030  0.16270  1.0000 0.1423130955
H   H5        1.0  0.62450  0.52800  0.95690  1.0000 0.0924601381
H   H6        1.0  0.37550  0.47200  0.04310  1.0000 0.0924601381
H   H7        1.0  0.62310  0.69080  0.99250  1.0000 0.0995343241
H   H8        1.0  0.37690  0.30920  0.00750  1.0000 0.0995343241
H   H9        1.0  0.91490  0.53920  0.06070  1.0000 0.0924601381
H   H10       1.0  0.08510  0.46080  0.93930  1.0000 0.0924601381
H   H11       1.0  0.90540  0.70160  0.10280  1.0000 0.0995343241
H   H12       1.0  0.09460  0.29840  0.89720  1.0000 0.0995343241
H   H13       1.0  0.73450  0.52530  0.17130  1.0000 0.1455569926
H   H14       1.0  0.26550  0.47470  0.82870  1.0000 0.1455569926
H   H15       1.0  0.75440  0.68650  0.22440  1.0000 0.1323905203
H   H16       1.0  0.24560  0.31350  0.77560  1.0000 0.1323905203
H   H17       1.0  0.27840  0.03040  0.59910  1.0000 0.1216393176
H   H18       1.0  0.72160  0.96960  0.40090  1.0000 0.1216393176
H   H19       1.0  0.24480  0.01580  0.71790  1.0000 0.1323905203
H   H20       1.0  0.75520  0.98420  0.28210  1.0000 0.1323905203
H   H21       1.0  0.02400  0.12200  0.59950  1.0000 0.0995343241
H   H22       1.0  0.97600  0.87800  0.40050  1.0000 0.0995343241
H   H23       1.0  0.96520  0.97880  0.60340  1.0000 0.0924601381
H   H24       1.0  0.03480  0.02120  0.39660  1.0000 0.0924601381
H   H25       1.0  0.19000  0.23300  0.35200  1.0000 0.313815898
H   H26       1.0  0.81000  0.76700  0.64800  1.0000 0.313815898
H   H27       1.0  0.35700  0.22900  0.53500  1.0000 0.3369806173
H   H28       1.0  0.64300  0.77100  0.46500  1.0000 0.3369806173
H   H29       1.0  0.46100  0.30700  0.64600  1.0000 0.3467742863
H   H30       1.0  0.53900  0.69300  0.35400  1.0000 0.3467742863
H   H31       1.0  0.04100  0.28300  0.35300  1.0000 0.3562926414
H   H32       1.0  0.95900  0.71700  0.64700  1.0000 0.3562926414
C   C1        1.0  0.56490  0.58740  0.73680  1.0000 0.6691089335
C   C2        1.0  0.43510  0.41260  0.26320  1.0000 0.6691089335
C   C3        1.0  0.71750  0.61140  0.85140  1.0000 -0.339115226
C   C4        1.0  0.28250  0.38860  0.14860  1.0000 -0.339115226
C   C5        1.0  0.68800  0.61100  0.97160  1.0000 -0.1275848572
C   C6        1.0  0.31200  0.38900  0.02840  1.0000 -0.1275848572
C   C7        1.0  0.84580  0.61510  0.08300  1.0000 -0.1275848572
C   C8        1.0  0.15420  0.38490  0.91700  1.0000 -0.1275848572
C   C9        1.0  0.81030  0.60330  0.19670  1.0000 -0.339115226
C   C10       1.0  0.18970  0.39670  0.80330  1.0000 -0.339115226
C   C11       1.0  0.95570  0.58430  0.30750  1.0000 0.6691089335
C   C12       1.0  0.04430  0.41570  0.69250  1.0000 0.6691089335
C   C13       1.0  0.23870  0.82920  0.59290  1.0000 0.6390823486
C   C14       1.0  0.76130  0.17080  0.40710  1.0000 0.6390823486
C   C15       1.0  0.21020  0.98310  0.62730  1.0000 -0.3193417129
C   C16       1.0  0.78980  0.01690  0.37270  1.0000 -0.3193417129
C   C17       1.0  0.03300  0.02210  0.57190  1.0000 -0.1370886725
C   C18       1.0  0.96700  0.97790  0.42810  1.0000 -0.1370886725
O   O1        1.0  0.42460  0.60730  0.74640  1.0000 -0.6073344734
O   O2        1.0  0.57540  0.39270  0.25360  1.0000 -0.6073344734
O   O3        1.0  0.57720  0.54430  0.62800  1.0000 -0.7461961147
O   O4        1.0  0.42280  0.45570  0.37200  1.0000 -0.7461961147
O   O5        1.0  0.09900  0.61640  0.31880  1.0000 -0.6073344734
O   O6        1.0  0.90100  0.38360  0.68120  1.0000 -0.6073344734
O   O7        1.0  0.93210  0.53520  0.38950  1.0000 -0.7289046881
O   O8        1.0  0.06790  0.46480  0.61050  1.0000 -0.7289046881
O   O9        1.0  0.13730  0.74710  0.59840  1.0000 -0.6412199574
O   O10       1.0  0.86270  0.25290  0.40160  1.0000 -0.6412199574
O   O11       1.0  0.35760  0.78160  0.55900  1.0000 -0.6412199574
O   O12       1.0  0.64240  0.21840  0.44100  1.0000 -0.6339321968
O   O13       1.0  0.12820  0.29790  0.34700  1.0000 -0.7027049896
O   O14       1.0  0.87180  0.70210  0.65300  1.0000 -0.7027049896
O   O15       1.0  0.37470  0.30300  0.58820  1.0000 -0.7109216091
O   O16       1.0  0.62530  0.69700  0.41180  1.0000 -0.7109216091
