# DDEC6 charges by PACMAN v1.1 (https://github.com/mtap-research/PACMAN-charge/)
data_2006[Er][dia]3[FSR]1
_chemical_formula_sum              "Er4 P4 H28 C20 N4 O36"
_cell_length_a       9.0085
_cell_length_b       9.0085
_cell_length_c       15.799
_cell_angle_alpha    90
_cell_angle_beta     90
_cell_angle_gamma    90

_symmetry_space_group_name_H-M    "P 1"
_symmetry_Int_Tables_number       1

loop_
  _symmetry_equiv_pos_as_xyz
  'x, y, z'

loop_
  _atom_site_type_symbol
  _atom_site_label
  _atom_site_symmetry_multiplicity
  _atom_site_fract_x
  _atom_site_fract_y
  _atom_site_fract_z
  _atom_site_occupancy
  _atom_site_charge
Er  Er1       1.0  0.96788  0.61059  0.60432  1.0000 2.0135244577
Er  Er2       1.0  0.53212  0.38941  0.10432  1.0000 2.0135244577
Er  Er3       1.0  0.03212  0.11059  0.89568  1.0000 2.0135244577
Er  Er4       1.0  0.46788  0.88941  0.39568  1.0000 2.0135244577
P   P1        1.0  0.87333  0.93327  0.70596  1.0000 1.3416791409
P   P2        1.0  0.62667  0.06673  0.20596  1.0000 1.3416791409
P   P3        1.0  0.12667  0.43327  0.79404  1.0000 1.3416791409
P   P4        1.0  0.37333  0.56673  0.29404  1.0000 1.3416791409
H   H1        1.0  0.85710  0.74970  0.81030  1.0000 0.1718756593
H   H2        1.0  0.64290  0.25030  0.31030  1.0000 0.1718756593
H   H3        1.0  0.14290  0.24970  0.68970  1.0000 0.1718756593
H   H4        1.0  0.35710  0.75030  0.18970  1.0000 0.1718756593
H   H5        1.0  0.70060  0.82320  0.79700  1.0000 0.1577878817
H   H6        1.0  0.79940  0.17680  0.29700  1.0000 0.1577878817
H   H7        1.0  0.29940  0.32320  0.70300  1.0000 0.1577878817
H   H8        1.0  0.20060  0.67680  0.20300  1.0000 0.1577878817
H   H9        1.0  0.55940  0.77980  0.68660  1.0000 0.1545101676
H   H10       1.0  0.94060  0.22020  0.18660  1.0000 0.1545101676
H   H11       1.0  0.44060  0.27980  0.81340  1.0000 0.1545101676
H   H12       1.0  0.05940  0.72020  0.31340  1.0000 0.1545101676
H   H13       1.0  0.53980  0.61120  0.66560  1.0000 0.1545101676
H   H14       1.0  0.96020  0.38880  0.16560  1.0000 0.1577878817
H   H15       1.0  0.46020  0.11120  0.83440  1.0000 0.1577878817
H   H16       1.0  0.03980  0.88880  0.33440  1.0000 0.1545101676
H   H17       1.0  0.62230  0.51980  0.78280  1.0000 0.1577878817
H   H18       1.0  0.87770  0.48020  0.28280  1.0000 0.1577878817
H   H19       1.0  0.37770  0.01980  0.71720  1.0000 0.1577878817
H   H20       1.0  0.12230  0.98020  0.21720  1.0000 0.1577878817
H   H21       1.0  0.79300  0.51260  0.80300  1.0000 0.1718756593
H   H22       1.0  0.70700  0.48740  0.30300  1.0000 0.1718756593
H   H23       1.0  0.20700  0.01260  0.69700  1.0000 0.1718756593
H   H24       1.0  0.29300  0.98740  0.19700  1.0000 0.1718756593
H   H25       1.0  0.73090  0.09610  0.67700  1.0000 0.3907359987
H   H26       1.0  0.76910  0.90390  0.17700  1.0000 0.3907359987
H   H27       1.0  0.26910  0.59610  0.82300  1.0000 0.3907359987
H   H28       1.0  0.23090  0.40390  0.32300  1.0000 0.3907359987
C   C1        1.0  0.78760  0.78530  0.76800  1.0000 -0.4521363751
C   C2        1.0  0.71240  0.21470  0.26800  1.0000 -0.4521363751
C   C3        1.0  0.21240  0.28530  0.73200  1.0000 -0.4521363751
C   C4        1.0  0.28760  0.71470  0.23200  1.0000 -0.4521363751
C   C5        1.0  0.60750  0.69460  0.66090  1.0000 -0.2954960317
C   C6        1.0  0.89250  0.30540  0.16090  1.0000 -0.2954960317
C   C7        1.0  0.39250  0.19460  0.83910  1.0000 -0.2954960317
C   C8        1.0  0.10750  0.80540  0.33910  1.0000 -0.2954960317
C   C9        1.0  0.63200  0.72700  0.56880  1.0000 0.6761759966
C   C10       1.0  0.86800  0.27300  0.06880  1.0000 0.6761759966
C   C11       1.0  0.36800  0.22700  0.93120  1.0000 0.6761759966
C   C12       1.0  0.13200  0.77300  0.43120  1.0000 0.6761759966
C   C13       1.0  0.72060  0.52000  0.75780  1.0000 -0.2623258681
C   C14       1.0  0.77940  0.48000  0.25780  1.0000 -0.2623258681
C   C15       1.0  0.27940  0.02000  0.74220  1.0000 -0.2623258681
C   C16       1.0  0.22060  0.98000  0.24220  1.0000 -0.2623258681
C   C17       1.0  0.73690  0.38700  0.69760  1.0000 0.6518775373
C   C18       1.0  0.76310  0.61300  0.19760  1.0000 0.6518775373
C   C19       1.0  0.26310  0.88700  0.80240  1.0000 0.6518775373
C   C20       1.0  0.23690  0.11300  0.30240  1.0000 0.6518775373
N   N1        1.0  0.74380  0.65990  0.71020  1.0000 -0.0860072872
N   N2        1.0  0.75620  0.34010  0.21020  1.0000 -0.0860072872
N   N3        1.0  0.25620  0.15990  0.78980  1.0000 -0.0860072872
N   N4        1.0  0.24380  0.84010  0.28980  1.0000 -0.0848882274
O   O1        1.0  0.75500  0.68640  0.53470  1.0000 -0.6106967032
O   O2        1.0  0.74500  0.31360  0.03470  1.0000 -0.6106967032
O   O3        1.0  0.24500  0.18640  0.96530  1.0000 -0.6106967032
O   O4        1.0  0.25500  0.81360  0.46530  1.0000 -0.6106967032
O   O5        1.0  0.53080  0.79250  0.52890  1.0000 -0.5212882013
O   O6        1.0  0.96920  0.20750  0.02890  1.0000 -0.5212882013
O   O7        1.0  0.46920  0.29250  0.97110  1.0000 -0.5212882013
O   O8        1.0  0.03080  0.70750  0.47110  1.0000 -0.5212882013
O   O9        1.0  0.68390  0.26260  0.72380  1.0000 -0.5212882013
O   O10       1.0  0.81610  0.73740  0.22380  1.0000 -0.5212882013
O   O11       1.0  0.31610  0.76260  0.77620  1.0000 -0.5212882013
O   O12       1.0  0.18390  0.23740  0.27620  1.0000 -0.5212882013
O   O13       1.0  0.81070  0.40340  0.62990  1.0000 -0.6227421612
O   O14       1.0  0.68930  0.59660  0.12990  1.0000 -0.6227421612
O   O15       1.0  0.18930  0.90340  0.87010  1.0000 -0.6227421612
O   O16       1.0  0.31070  0.09660  0.37010  1.0000 -0.6227421612
O   O17       1.0  0.75120  0.01750  0.65350  1.0000 -0.563043967
O   O18       1.0  0.74880  0.98250  0.15350  1.0000 -0.563043967
O   O19       1.0  0.24880  0.51750  0.84650  1.0000 -0.563043967
O   O20       1.0  0.25120  0.48250  0.34650  1.0000 -0.563043967
O   O21       1.0  0.94930  0.03720  0.76670  1.0000 -0.8186648042
O   O22       1.0  0.55070  0.96280  0.26670  1.0000 -0.8186648042
O   O23       1.0  0.05070  0.53720  0.73330  1.0000 -0.8186648042
O   O24       1.0  0.44930  0.46280  0.23330  1.0000 -0.8186648042
O   O25       1.0  0.97430  0.85630  0.64460  1.0000 -0.7914664746
O   O26       1.0  0.52570  0.14370  0.14460  1.0000 -0.7914664746
O   O27       1.0  0.02570  0.35630  0.85540  1.0000 -0.7914664746
O   O28       1.0  0.47430  0.64370  0.35540  1.0000 -0.7914664746
O   O29       1.0  0.05900  0.40730  0.52280  1.0000 -0.3332691541
O   O30       1.0  0.44100  0.59270  0.02280  1.0000 -0.3332691541
O   O31       1.0  0.94100  0.90730  0.97720  1.0000 -0.3375157566
O   O32       1.0  0.55900  0.09270  0.47720  1.0000 -0.3332691541
O   O33       1.0  0.23190  0.65150  0.61100  1.0000 -0.1640726279
O   O34       1.0  0.26810  0.34850  0.11100  1.0000 -0.1640726279
O   O35       1.0  0.76810  0.15150  0.88900  1.0000 -0.1640726279
O   O36       1.0  0.73190  0.84850  0.38900  1.0000 -0.1668712796
