# DDEC6 charges by PACMAN v1.1 (https://github.com/mtap-research/PACMAN-charge/)
data_2006[Cd][nan]3[FSR]5
_chemical_formula_sum              "Cd12 H128 C96 O76"
_cell_length_a       8.1324
_cell_length_b       39.266
_cell_length_c       11.344
_cell_angle_alpha    90
_cell_angle_beta     102.908
_cell_angle_gamma    90

_symmetry_space_group_name_H-M    "P 1"
_symmetry_Int_Tables_number       1

loop_
  _symmetry_equiv_pos_as_xyz
  'x, y, z'

loop_
  _atom_site_type_symbol
  _atom_site_label
  _atom_site_symmetry_multiplicity
  _atom_site_fract_x
  _atom_site_fract_y
  _atom_site_fract_z
  _atom_site_occupancy
  _atom_site_charge
Cd  Cd1       1.0  0.75928  0.94787  0.48146  1.0000 0.9669442931
Cd  Cd2       1.0  0.74072  0.44787  0.51854  1.0000 0.9669442931
Cd  Cd3       1.0  0.24072  0.05213  0.51854  1.0000 0.9669442931
Cd  Cd4       1.0  0.25928  0.55213  0.48146  1.0000 0.9669442931
Cd  Cd5       1.0  0.09504  0.29949  0.59544  1.0000 0.961191223
Cd  Cd6       1.0  0.40496  0.79949  0.40456  1.0000 0.961191223
Cd  Cd7       1.0  0.90496  0.70051  0.40456  1.0000 0.961191223
Cd  Cd8       1.0  0.59504  0.20051  0.59544  1.0000 0.961191223
Cd  Cd9       1.0  0.01126  0.12239  0.80951  1.0000 0.9900589445
Cd  Cd10      1.0  0.48874  0.62239  0.19049  1.0000 0.9900589445
Cd  Cd11      1.0  0.98874  0.87761  0.19049  1.0000 0.9900589445
Cd  Cd12      1.0  0.51126  0.37761  0.80951  1.0000 0.9900589445
H   H1        1.0  0.04240  0.97740  0.60990  1.0000 0.3885076689
H   H2        1.0  0.45760  0.47740  0.39010  1.0000 0.3885076689
H   H3        1.0  0.95760  0.02260  0.39010  1.0000 0.3885076689
H   H4        1.0  0.54240  0.52260  0.60990  1.0000 0.3885076689
H   H5        1.0  0.11190  0.94460  0.57800  1.0000 0.3885076689
H   H6        1.0  0.38810  0.44460  0.42200  1.0000 0.3885076689
H   H7        1.0  0.88810  0.05540  0.42200  1.0000 0.3885076689
H   H8        1.0  0.61190  0.55540  0.57800  1.0000 0.3885076689
H   H9        1.0  0.43500  0.96760  0.37790  1.0000 0.3323914567
H   H10       1.0  0.06500  0.46760  0.62210  1.0000 0.3323914567
H   H11       1.0  0.56500  0.03240  0.62210  1.0000 0.3323914567
H   H12       1.0  0.93500  0.53240  0.37790  1.0000 0.3323914567
H   H13       1.0  0.42930  0.93630  0.33180  1.0000 0.3323914567
H   H14       1.0  0.07070  0.43630  0.66820  1.0000 0.3323914567
H   H15       1.0  0.57070  0.06370  0.66820  1.0000 0.3323914567
H   H16       1.0  0.92930  0.56370  0.33180  1.0000 0.3323914567
H   H17       1.0  0.79270  0.88140  0.53130  1.0000 0.2629512633
H   H18       1.0  0.70730  0.38140  0.46870  1.0000 0.2629512633
H   H19       1.0  0.20730  0.11860  0.46870  1.0000 0.2629512633
H   H20       1.0  0.29270  0.61860  0.53130  1.0000 0.2629512633
H   H21       1.0  0.82380  0.88430  0.43910  1.0000 0.2737029353
H   H22       1.0  0.67620  0.38430  0.56090  1.0000 0.2737029353
H   H23       1.0  0.17620  0.11570  0.56090  1.0000 0.2737029353
H   H24       1.0  0.32380  0.61570  0.43910  1.0000 0.2737029353
H   H25       1.0  0.94900  0.36050  0.60190  1.0000 0.3523512939
H   H26       1.0  0.55100  0.86050  0.39810  1.0000 0.3523512939
H   H27       1.0  0.05100  0.63950  0.39810  1.0000 0.3523512939
H   H28       1.0  0.44900  0.13950  0.60190  1.0000 0.3523512939
H   H29       1.0  0.10560  0.36980  0.66980  1.0000 0.360387641
H   H30       1.0  0.39440  0.86980  0.33020  1.0000 0.360387641
H   H31       1.0  0.89440  0.63020  0.33020  1.0000 0.360387641
H   H32       1.0  0.60560  0.13020  0.66980  1.0000 0.360387641
H   H33       1.0  0.37850  0.29370  0.50320  1.0000 0.3956701616
H   H34       1.0  0.12150  0.79370  0.49680  1.0000 0.3956701616
H   H35       1.0  0.62150  0.70630  0.49680  1.0000 0.3956701616
H   H36       1.0  0.87850  0.20630  0.50320  1.0000 0.3956701616
H   H37       1.0  0.28340  0.32130  0.43570  1.0000 0.366704871
H   H38       1.0  0.21660  0.82130  0.56430  1.0000 0.366704871
H   H39       1.0  0.71660  0.67870  0.56430  1.0000 0.366704871
H   H40       1.0  0.78340  0.17870  0.43570  1.0000 0.366704871
H   H41       1.0  0.83960  0.30940  0.70630  1.0000 0.360387641
H   H42       1.0  0.66040  0.80940  0.29370  1.0000 0.360387641
H   H43       1.0  0.16040  0.69060  0.29370  1.0000 0.360387641
H   H44       1.0  0.33960  0.19060  0.70630  1.0000 0.360387641
H   H45       1.0  0.84190  0.27390  0.69810  1.0000 0.360387641
H   H46       1.0  0.65810  0.77390  0.30190  1.0000 0.360387641
H   H47       1.0  0.15810  0.72610  0.30190  1.0000 0.360387641
H   H48       1.0  0.34190  0.22610  0.69810  1.0000 0.360387641
H   H49       1.0  0.87380  0.11530  0.57460  1.0000 0.360387641
H   H50       1.0  0.62620  0.61530  0.42540  1.0000 0.360387641
H   H51       1.0  0.12620  0.88470  0.42540  1.0000 0.360387641
H   H52       1.0  0.37380  0.38470  0.57460  1.0000 0.360387641
H   H53       1.0  0.93620  0.14980  0.58560  1.0000 0.366704871
H   H54       1.0  0.56380  0.64980  0.41440  1.0000 0.366704871
H   H55       1.0  0.06380  0.85020  0.41440  1.0000 0.366704871
H   H56       1.0  0.43620  0.35020  0.58560  1.0000 0.366704871
H   H57       1.0  0.49960  0.02940  0.82920  1.0000 0.1295693731
H   H58       1.0  0.00040  0.52940  0.17080  1.0000 0.1295693731
H   H59       1.0  0.50040  0.97060  0.17080  1.0000 0.1295693731
H   H60       1.0  0.99960  0.47060  0.82920  1.0000 0.1295693731
H   H61       1.0  0.85800  0.03900  0.13350  1.0000 0.1295693731
H   H62       1.0  0.64200  0.53900  0.86650  1.0000 0.1295693731
H   H63       1.0  0.14200  0.96100  0.86650  1.0000 0.1295693731
H   H64       1.0  0.35800  0.46100  0.13350  1.0000 0.1295693731
H   H65       1.0  0.77290  0.94850  0.96850  1.0000 0.1423013965
H   H66       1.0  0.72710  0.44850  0.03150  1.0000 0.1423013965
H   H67       1.0  0.22710  0.05150  0.03150  1.0000 0.1423013965
H   H68       1.0  0.27290  0.55150  0.96850  1.0000 0.1423013965
H   H69       1.0  0.50610  0.94260  0.80510  1.0000 0.1508214576
H   H70       1.0  0.99390  0.44260  0.19490  1.0000 0.1508214576
H   H71       1.0  0.49390  0.05740  0.19490  1.0000 0.1508214576
H   H72       1.0  0.00610  0.55740  0.80510  1.0000 0.1508214576
H   H73       1.0  0.41980  0.97590  0.74440  1.0000 0.1423013965
H   H74       1.0  0.08020  0.47590  0.25560  1.0000 0.1423013965
H   H75       1.0  0.58020  0.02410  0.25560  1.0000 0.1423013965
H   H76       1.0  0.91980  0.52410  0.74440  1.0000 0.1423013965
H   H77       1.0  0.52090  0.08240  0.94260  1.0000 0.1580359945
H   H78       1.0  0.97910  0.58240  0.05740  1.0000 0.1580359945
H   H79       1.0  0.47910  0.91760  0.05740  1.0000 0.1580359945
H   H80       1.0  0.02090  0.41760  0.94260  1.0000 0.1580359945
H   H81       1.0  0.66430  0.08720  0.06020  1.0000 0.1508214576
H   H82       1.0  0.83570  0.58720  0.93980  1.0000 0.1508214576
H   H83       1.0  0.33570  0.91280  0.93980  1.0000 0.1508214576
H   H84       1.0  0.16430  0.41280  0.06020  1.0000 0.1508214576
H   H85       1.0  0.03070  0.95820  0.13320  1.0000 0.1508214576
H   H86       1.0  0.46930  0.45820  0.86680  1.0000 0.1508214576
H   H87       1.0  0.96930  0.04180  0.86680  1.0000 0.1508214576
H   H88       1.0  0.53070  0.54180  0.13320  1.0000 0.1508214576
H   H89       1.0  0.04710  0.99250  0.20620  1.0000 0.1508214576
H   H90       1.0  0.45290  0.49250  0.79380  1.0000 0.1508214576
H   H91       1.0  0.95290  0.00750  0.79380  1.0000 0.1508214576
H   H92       1.0  0.54710  0.50750  0.20620  1.0000 0.1508214576
H   H93       1.0  0.88710  0.21330  0.11370  1.0000 0.1295693731
H   H94       1.0  0.61290  0.71330  0.88630  1.0000 0.1295693731
H   H95       1.0  0.11290  0.78670  0.88630  1.0000 0.1295693731
H   H96       1.0  0.38710  0.28670  0.11370  1.0000 0.1295693731
H   H97       1.0  0.04450  0.27700  0.88770  1.0000 0.12056058
H   H98       1.0  0.45550  0.77700  0.11230  1.0000 0.12056058
H   H99       1.0  0.95550  0.72300  0.11230  1.0000 0.12056058
H   H100      1.0  0.54450  0.22300  0.88770  1.0000 0.12056058
H   H101      1.0  0.87520  0.31360  0.16700  1.0000 0.1423013965
H   H102      1.0  0.62480  0.81360  0.83300  1.0000 0.1423013965
H   H103      1.0  0.12480  0.68640  0.83300  1.0000 0.1423013965
H   H104      1.0  0.37520  0.18640  0.16700  1.0000 0.1423013965
H   H105      1.0  0.78860  0.23140  0.27760  1.0000 0.1295693731
H   H106      1.0  0.71140  0.73140  0.72240  1.0000 0.1295693731
H   H107      1.0  0.21140  0.76860  0.72240  1.0000 0.1295693731
H   H108      1.0  0.28860  0.26860  0.27760  1.0000 0.1295693731
H   H109      1.0  0.69570  0.26650  0.26110  1.0000 0.1508214576
H   H110      1.0  0.80430  0.76650  0.73890  1.0000 0.1508214576
H   H111      1.0  0.30430  0.73350  0.73890  1.0000 0.1508214576
H   H112      1.0  0.19570  0.23350  0.26110  1.0000 0.1508214576
H   H113      1.0  0.02860  0.19070  0.96380  1.0000 0.1508214576
H   H114      1.0  0.47140  0.69070  0.03620  1.0000 0.1508214576
H   H115      1.0  0.97140  0.80930  0.03620  1.0000 0.1508214576
H   H116      1.0  0.52860  0.30930  0.96380  1.0000 0.1508214576
H   H117      1.0  0.10580  0.21580  0.88350  1.0000 0.1580359945
H   H118      1.0  0.39420  0.71580  0.11650  1.0000 0.1580359945
H   H119      1.0  0.89420  0.78420  0.11650  1.0000 0.1580359945
H   H120      1.0  0.60580  0.28420  0.88350  1.0000 0.1580359945
H   H121      1.0  0.03900  0.35080  0.04680  1.0000 0.1508214576
H   H122      1.0  0.46100  0.85080  0.95320  1.0000 0.1508214576
H   H123      1.0  0.96100  0.64920  0.95320  1.0000 0.1508214576
H   H124      1.0  0.53900  0.14920  0.04680  1.0000 0.1508214576
H   H125      1.0  0.06840  0.33610  0.92440  1.0000 0.1508214576
H   H126      1.0  0.43160  0.83610  0.07560  1.0000 0.1508214576
H   H127      1.0  0.93160  0.66390  0.07560  1.0000 0.1508214576
H   H128      1.0  0.56840  0.16390  0.92440  1.0000 0.1508214576
C   C1        1.0  0.62390  0.98585  0.88210  1.0000 0.171200323
C   C2        1.0  0.87610  0.48585  0.11790  1.0000 0.171200323
C   C3        1.0  0.37610  0.01415  0.11790  1.0000 0.171200323
C   C4        1.0  0.12390  0.51415  0.88210  1.0000 0.171200323
C   C5        1.0  0.58550  0.01995  0.88820  1.0000 -0.2310542455
C   C6        1.0  0.91450  0.51995  0.11180  1.0000 -0.2310542455
C   C7        1.0  0.41450  0.98005  0.11180  1.0000 -0.2310542455
C   C8        1.0  0.08550  0.48005  0.88820  1.0000 -0.2310542455
C   C9        1.0  0.67340  0.04033  0.98120  1.0000 0.171200323
C   C10       1.0  0.82660  0.54033  0.01880  1.0000 0.171200323
C   C11       1.0  0.32660  0.95967  0.01880  1.0000 0.171200323
C   C12       1.0  0.17340  0.45967  0.98120  1.0000 0.171200323
C   C13       1.0  0.79850  0.02561  0.07080  1.0000 -0.2413942283
C   C14       1.0  0.70150  0.52561  0.92920  1.0000 -0.2413942283
C   C15       1.0  0.20150  0.97439  0.92920  1.0000 -0.2413942283
C   C16       1.0  0.29850  0.47439  0.07080  1.0000 -0.2413942283
C   C17       1.0  0.83540  0.99126  0.06770  1.0000 0.1806988391
C   C18       1.0  0.66460  0.49126  0.93230  1.0000 0.1806988391
C   C19       1.0  0.16460  0.00874  0.93230  1.0000 0.1806988391
C   C20       1.0  0.33540  0.50874  0.06770  1.0000 0.1806988391
C   C21       1.0  0.74780  0.97156  0.97200  1.0000 -0.2310542455
C   C22       1.0  0.75220  0.47156  0.02800  1.0000 -0.2310542455
C   C23       1.0  0.25220  0.02844  0.02800  1.0000 -0.2310542455
C   C24       1.0  0.24780  0.52844  0.97200  1.0000 -0.2310542455
C   C25       1.0  0.52780  0.96509  0.77660  1.0000 -0.3994723251
C   C26       1.0  0.97220  0.46509  0.22340  1.0000 -0.3994723251
C   C27       1.0  0.47220  0.03491  0.22340  1.0000 -0.3994723251
C   C28       1.0  0.02780  0.53491  0.77660  1.0000 -0.3994723251
C   C29       1.0  0.62220  0.96151  0.67660  1.0000 0.6384923319
C   C30       1.0  0.87780  0.46151  0.32340  1.0000 0.6384923319
C   C31       1.0  0.37780  0.03849  0.32340  1.0000 0.6384923319
C   C32       1.0  0.12220  0.53849  0.67660  1.0000 0.6384923319
C   C33       1.0  0.63880  0.07804  0.97860  1.0000 -0.3994723251
C   C34       1.0  0.86120  0.57804  0.02140  1.0000 -0.3994723251
C   C35       1.0  0.36120  0.92196  0.02140  1.0000 -0.3994723251
C   C36       1.0  0.13880  0.42196  0.97860  1.0000 -0.3994723251
C   C37       1.0  0.75040  0.09472  0.90380  1.0000 0.6303747256
C   C38       1.0  0.74960  0.59472  0.09620  1.0000 0.6303747256
C   C39       1.0  0.24960  0.90528  0.09620  1.0000 0.6303747256
C   C40       1.0  0.25040  0.40528  0.90380  1.0000 0.6303747256
C   C41       1.0  0.96820  0.97510  0.16800  1.0000 -0.4175862698
C   C42       1.0  0.53180  0.47510  0.83200  1.0000 -0.4175862698
C   C43       1.0  0.03180  0.02490  0.83200  1.0000 -0.4175862698
C   C44       1.0  0.46820  0.52490  0.16800  1.0000 -0.4175862698
C   C45       1.0  0.89040  0.95826  0.26250  1.0000 0.6509134332
C   C46       1.0  0.60960  0.45826  0.73750  1.0000 0.6509134332
C   C47       1.0  0.10960  0.04174  0.73750  1.0000 0.6509134332
C   C48       1.0  0.39040  0.54174  0.26250  1.0000 0.6509134332
C   C49       1.0  0.87230  0.26243  0.15940  1.0000 0.171200323
C   C50       1.0  0.62770  0.76243  0.84060  1.0000 0.171200323
C   C51       1.0  0.12770  0.73757  0.84060  1.0000 0.171200323
C   C52       1.0  0.37230  0.23757  0.15940  1.0000 0.171200323
C   C53       1.0  0.90630  0.23534  0.09030  1.0000 -0.2413942283
C   C54       1.0  0.59370  0.73534  0.90970  1.0000 -0.2413942283
C   C55       1.0  0.09370  0.76466  0.90970  1.0000 -0.2413942283
C   C56       1.0  0.40630  0.26466  0.09030  1.0000 -0.2413942283
C   C57       1.0  0.96820  0.24023  0.98740  1.0000 0.1868485669
C   C58       1.0  0.53180  0.74023  0.01260  1.0000 0.1868485669
C   C59       1.0  0.03180  0.75977  0.01260  1.0000 0.1868485669
C   C60       1.0  0.46820  0.25977  0.98740  1.0000 0.1868485669
C   C61       1.0  0.99880  0.27334  0.95480  1.0000 -0.2471825285
C   C62       1.0  0.50120  0.77334  0.04520  1.0000 -0.2471825285
C   C63       1.0  0.00120  0.72666  0.04520  1.0000 -0.2471825285
C   C64       1.0  0.49880  0.22666  0.95480  1.0000 -0.2471825285
C   C65       1.0  0.96300  0.30092  0.01980  1.0000 0.171200323
C   C66       1.0  0.53700  0.80092  0.98020  1.0000 0.171200323
C   C67       1.0  0.03700  0.69908  0.98020  1.0000 0.171200323
C   C68       1.0  0.46300  0.19908  0.01980  1.0000 0.171200323
C   C69       1.0  0.89960  0.29510  0.12250  1.0000 -0.2310542455
C   C70       1.0  0.60040  0.79510  0.87750  1.0000 -0.2310542455
C   C71       1.0  0.10040  0.70490  0.87750  1.0000 -0.2310542455
C   C72       1.0  0.39960  0.20490  0.12250  1.0000 -0.2310542455
C   C73       1.0  0.80520  0.25569  0.27120  1.0000 -0.3994723251
C   C74       1.0  0.69480  0.75569  0.72880  1.0000 -0.3994723251
C   C75       1.0  0.19480  0.74431  0.72880  1.0000 -0.3994723251
C   C76       1.0  0.30520  0.24431  0.27120  1.0000 -0.3994723251
C   C77       1.0  0.91770  0.26820  0.38910  1.0000 0.6303747256
C   C78       1.0  0.58230  0.76820  0.61090  1.0000 0.6303747256
C   C79       1.0  0.08230  0.73180  0.61090  1.0000 0.6303747256
C   C80       1.0  0.41770  0.23180  0.38910  1.0000 0.6303747256
C   C81       1.0  0.00500  0.21067  0.91240  1.0000 -0.4175862698
C   C82       1.0  0.49500  0.71067  0.08760  1.0000 -0.4175862698
C   C83       1.0  0.99500  0.78933  0.08760  1.0000 -0.4175862698
C   C84       1.0  0.50500  0.28933  0.91240  1.0000 -0.4175862698
C   C85       1.0  0.86440  0.20222  0.80520  1.0000 0.6509134332
C   C86       1.0  0.63560  0.70222  0.19480  1.0000 0.6509134332
C   C87       1.0  0.13560  0.79778  0.19480  1.0000 0.6509134332
C   C88       1.0  0.36440  0.29778  0.80520  1.0000 0.6509134332
C   C89       1.0  0.99020  0.33672  0.97760  1.0000 -0.3994723251
C   C90       1.0  0.50980  0.83672  0.02240  1.0000 -0.3994723251
C   C91       1.0  0.00980  0.66328  0.02240  1.0000 -0.3994723251
C   C92       1.0  0.49020  0.16328  0.97760  1.0000 -0.3994723251
C   C93       1.0  0.82440  0.35196  0.91120  1.0000 0.6303747256
C   C94       1.0  0.67560  0.85196  0.08880  1.0000 0.6303747256
C   C95       1.0  0.17560  0.64804  0.08880  1.0000 0.6303747256
C   C96       1.0  0.32440  0.14804  0.91120  1.0000 0.6303747256
O   O1        1.0  0.65150  0.98688  0.61720  1.0000 -0.5699024899
O   O2        1.0  0.84850  0.48688  0.38280  1.0000 -0.5699024899
O   O3        1.0  0.34850  0.01312  0.38280  1.0000 -0.5699024899
O   O4        1.0  0.15150  0.51312  0.61720  1.0000 -0.5699024899
O   O5        1.0  0.67030  0.93218  0.65350  1.0000 -0.5600620648
O   O6        1.0  0.82970  0.43218  0.34650  1.0000 -0.5600620648
O   O7        1.0  0.32970  0.06782  0.34650  1.0000 -0.5600620648
O   O8        1.0  0.17030  0.56782  0.65350  1.0000 -0.5600620648
O   O9        1.0  0.88860  0.10655  0.95940  1.0000 -0.530867829
O   O10       1.0  0.61140  0.60655  0.04060  1.0000 -0.530867829
O   O11       1.0  0.11140  0.89345  0.04060  1.0000 -0.530867829
O   O12       1.0  0.38860  0.39345  0.95940  1.0000 -0.530867829
O   O13       1.0  0.70770  0.09462  0.79030  1.0000 -0.5947562
O   O14       1.0  0.79230  0.59462  0.20970  1.0000 -0.5947562
O   O15       1.0  0.29230  0.90538  0.20970  1.0000 -0.5947562
O   O16       1.0  0.20770  0.40538  0.79030  1.0000 -0.5947562
O   O17       1.0  0.83640  0.97764  0.33510  1.0000 -0.6009379467
O   O18       1.0  0.66360  0.47764  0.66490  1.0000 -0.6009379467
O   O19       1.0  0.16360  0.02236  0.66490  1.0000 -0.6009379467
O   O20       1.0  0.33640  0.52236  0.33510  1.0000 -0.6009379467
O   O21       1.0  0.87970  0.92685  0.26800  1.0000 -0.5831228039
O   O22       1.0  0.62030  0.42685  0.73200  1.0000 -0.5831228039
O   O23       1.0  0.12030  0.07315  0.73200  1.0000 -0.5831228039
O   O24       1.0  0.37970  0.57315  0.26800  1.0000 -0.5831228039
O   O25       1.0  0.93540  0.30000  0.40280  1.0000 -0.5699024899
O   O26       1.0  0.56460  0.80000  0.59720  1.0000 -0.5699024899
O   O27       1.0  0.06460  0.70000  0.59720  1.0000 -0.5699024899
O   O28       1.0  0.43540  0.20000  0.40280  1.0000 -0.5699024899
O   O29       1.0  0.98800  0.24785  0.46870  1.0000 -0.5699024899
O   O30       1.0  0.51200  0.74785  0.53130  1.0000 -0.5699024899
O   O31       1.0  0.01200  0.75215  0.53130  1.0000 -0.5699024899
O   O32       1.0  0.48800  0.25215  0.46870  1.0000 -0.5699024899
O   O33       1.0  0.77890  0.22589  0.74660  1.0000 -0.5600620648
O   O34       1.0  0.72110  0.72589  0.25340  1.0000 -0.5600620648
O   O35       1.0  0.22110  0.77411  0.25340  1.0000 -0.5600620648
O   O36       1.0  0.27890  0.27411  0.74660  1.0000 -0.5600620648
O   O37       1.0  0.83630  0.17166  0.77680  1.0000 -0.6009379467
O   O38       1.0  0.66370  0.67166  0.22320  1.0000 -0.6009379467
O   O39       1.0  0.16370  0.82834  0.22320  1.0000 -0.6009379467
O   O40       1.0  0.33630  0.32834  0.77680  1.0000 -0.6009379467
O   O41       1.0  0.74920  0.37243  0.96650  1.0000 -0.5427132686
O   O42       1.0  0.75080  0.87243  0.03350  1.0000 -0.5427132686
O   O43       1.0  0.25080  0.62757  0.03350  1.0000 -0.5427132686
O   O44       1.0  0.24920  0.12757  0.96650  1.0000 -0.5427132686
O   O45       1.0  0.75960  0.34363  0.80400  1.0000 -0.5699024899
O   O46       1.0  0.74040  0.84363  0.19600  1.0000 -0.5699024899
O   O47       1.0  0.24040  0.65637  0.19600  1.0000 -0.5699024899
O   O48       1.0  0.25960  0.15637  0.80400  1.0000 -0.5699024899
O   O49       1.0  0.02690  0.95696  0.59860  1.0000 -0.6967045506
O   O50       1.0  0.47310  0.45696  0.40140  1.0000 -0.6967045506
O   O51       1.0  0.97310  0.04304  0.40140  1.0000 -0.6967045506
O   O52       1.0  0.52690  0.54304  0.59860  1.0000 -0.6967045506
O   O53       1.0  0.46760  0.94793  0.39160  1.0000 -0.6694751359
O   O54       1.0  0.03240  0.44793  0.60840  1.0000 -0.6694751359
O   O55       1.0  0.53240  0.05207  0.60840  1.0000 -0.6694751359
O   O56       1.0  0.96760  0.55207  0.39160  1.0000 -0.6694751359
O   O57       1.0  0.76280  0.88991  0.46390  1.0000 -0.5427132686
O   O58       1.0  0.73720  0.38991  0.53610  1.0000 -0.5427132686
O   O59       1.0  0.23720  0.11009  0.53610  1.0000 -0.5427132686
O   O60       1.0  0.26280  0.61009  0.46390  1.0000 -0.5427132686
O   O61       1.0  0.05020  0.35690  0.60990  1.0000 -0.6825354835
O   O62       1.0  0.44980  0.85690  0.39010  1.0000 -0.6825354835
O   O63       1.0  0.94980  0.64310  0.39010  1.0000 -0.6825354835
O   O64       1.0  0.55020  0.14310  0.60990  1.0000 -0.6825354835
O   O65       1.0  0.31890  0.31072  0.49960  1.0000 -0.6533147237
O   O66       1.0  0.18110  0.81072  0.50040  1.0000 -0.6533147237
O   O67       1.0  0.68110  0.68928  0.50040  1.0000 -0.6533147237
O   O68       1.0  0.81890  0.18928  0.49960  1.0000 -0.6533147237
O   O69       1.0  0.85310  0.29268  0.66590  1.0000 -0.6694751359
O   O70       1.0  0.64690  0.79268  0.33410  1.0000 -0.6694751359
O   O71       1.0  0.14690  0.70732  0.33410  1.0000 -0.6694751359
O   O72       1.0  0.35310  0.20732  0.66590  1.0000 -0.6694751359
O   O73       1.0  0.94760  0.12892  0.60500  1.0000 -0.6648654481
O   O74       1.0  0.55240  0.62892  0.39500  1.0000 -0.6694751359
O   O75       1.0  0.05240  0.87108  0.39500  1.0000 -0.6694751359
O   O76       1.0  0.44760  0.37108  0.60500  1.0000 -0.6694751359
