# DDEC6 charges by PACMAN v1.1 (https://github.com/mtap-research/PACMAN-charge/)
data_2006[V][rna]3[FSR]2
_chemical_formula_sum              "V8 P8 H16 C16 O52"
_cell_length_a       7.0465
_cell_length_b       15.646
_cell_length_c       17.396
_cell_angle_alpha    90
_cell_angle_beta     90
_cell_angle_gamma    90

_symmetry_space_group_name_H-M    "P 1"
_symmetry_Int_Tables_number       1

loop_
  _symmetry_equiv_pos_as_xyz
  'x, y, z'

loop_
  _atom_site_type_symbol
  _atom_site_label
  _atom_site_symmetry_multiplicity
  _atom_site_fract_x
  _atom_site_fract_y
  _atom_site_fract_z
  _atom_site_occupancy
  _atom_site_charge
V   V1        1.0  0.24690  0.25000  0.25000  1.0000 1.736915268
V   V2        1.0  0.25310  0.75000  0.25000  1.0000 1.736915268
V   V3        1.0  0.75310  0.75000  0.75000  1.0000 1.736915268
V   V4        1.0  0.74690  0.25000  0.75000  1.0000 1.736915268
V   V5        1.0  0.50000  0.00000  0.50000  1.0000 1.962736316
V   V6        1.0  0.00000  0.00000  0.50000  1.0000 1.962736316
V   V7        1.0  0.00000  0.50000  0.00000  1.0000 1.962736316
V   V8        1.0  0.50000  0.50000  0.00000  1.0000 1.962736316
P   P1        1.0  0.25330  0.13322  0.40057  1.0000 1.4566890374
P   P2        1.0  0.24670  0.86678  0.40057  1.0000 1.4566890374
P   P3        1.0  0.24670  0.63322  0.09943  1.0000 1.4566890374
P   P4        1.0  0.25330  0.36678  0.09943  1.0000 1.4566890374
P   P5        1.0  0.74670  0.86678  0.59943  1.0000 1.4566890374
P   P6        1.0  0.75330  0.13322  0.59943  1.0000 1.4566890374
P   P7        1.0  0.75330  0.36678  0.90057  1.0000 1.4566890374
P   P8        1.0  0.74670  0.63322  0.90057  1.0000 1.4566890374
H   H1        1.0  0.04680  0.24240  0.42750  1.0000 0.2063039886
H   H2        1.0  0.45320  0.75760  0.42750  1.0000 0.2063039886
H   H3        1.0  0.45320  0.74240  0.07250  1.0000 0.2063039886
H   H4        1.0  0.04680  0.25760  0.07250  1.0000 0.2063039886
H   H5        1.0  0.95320  0.75760  0.57250  1.0000 0.2063039886
H   H6        1.0  0.54680  0.24240  0.57250  1.0000 0.2063039886
H   H7        1.0  0.54680  0.25760  0.92750  1.0000 0.2063039886
H   H8        1.0  0.95320  0.74240  0.92750  1.0000 0.2063039886
H   H9        1.0  0.18830  0.23020  0.49580  1.0000 0.2063039886
H   H10       1.0  0.31170  0.76980  0.49580  1.0000 0.2063039886
H   H11       1.0  0.31170  0.73020  0.00420  1.0000 0.2063039886
H   H12       1.0  0.18830  0.26980  0.00420  1.0000 0.2063039886
H   H13       1.0  0.81170  0.76980  0.50420  1.0000 0.2063039886
H   H14       1.0  0.68830  0.23020  0.50420  1.0000 0.2063039886
H   H15       1.0  0.68830  0.26980  0.99580  1.0000 0.2063039886
H   H16       1.0  0.81170  0.73020  0.99580  1.0000 0.2063039886
C   C1        1.0  0.28900  0.31160  0.41430  1.0000 0.6865430996
C   C2        1.0  0.21100  0.68840  0.41430  1.0000 0.6865430996
C   C3        1.0  0.21100  0.81160  0.08570  1.0000 0.6865430996
C   C4        1.0  0.28900  0.18840  0.08570  1.0000 0.6865430996
C   C5        1.0  0.71100  0.68840  0.58570  1.0000 0.6865430996
C   C6        1.0  0.78900  0.31160  0.58570  1.0000 0.6865430996
C   C7        1.0  0.78900  0.18840  0.91430  1.0000 0.6865430996
C   C8        1.0  0.71100  0.81160  0.91430  1.0000 0.6865430996
C   C9        1.0  0.17940  0.23380  0.44030  1.0000 -0.6455159411
C   C10       1.0  0.32060  0.76620  0.44030  1.0000 -0.6448317394
C   C11       1.0  0.32060  0.73380  0.05970  1.0000 -0.6455159411
C   C12       1.0  0.17940  0.26620  0.05970  1.0000 -0.6455159411
C   C13       1.0  0.82060  0.76620  0.55970  1.0000 -0.6448317394
C   C14       1.0  0.67940  0.23380  0.55970  1.0000 -0.6448317394
C   C15       1.0  0.67940  0.26620  0.94030  1.0000 -0.6455159411
C   C16       1.0  0.82060  0.73380  0.94030  1.0000 -0.6455159411
O   O1        1.0  0.02490  0.25000  0.25000  1.0000 -0.5860297009
O   O2        1.0  0.47510  0.75000  0.25000  1.0000 -0.5860297009
O   O3        1.0  0.97510  0.75000  0.75000  1.0000 -0.5860297009
O   O4        1.0  0.52490  0.25000  0.75000  1.0000 -0.5860297009
O   O5        1.0  0.29240  0.14630  0.31510  1.0000 -0.7263576538
O   O6        1.0  0.20760  0.85370  0.31510  1.0000 -0.7263576538
O   O7        1.0  0.20760  0.64630  0.18490  1.0000 -0.7263576538
O   O8        1.0  0.29240  0.35370  0.18490  1.0000 -0.7263576538
O   O9        1.0  0.70760  0.85370  0.68490  1.0000 -0.7263576538
O   O10       1.0  0.79240  0.14630  0.68490  1.0000 -0.7263576538
O   O11       1.0  0.79240  0.35370  0.81510  1.0000 -0.7263576538
O   O12       1.0  0.70760  0.64630  0.81510  1.0000 -0.7263576538
O   O13       1.0  0.43430  0.10430  0.44170  1.0000 -0.7441977486
O   O14       1.0  0.06570  0.89570  0.44170  1.0000 -0.7441977486
O   O15       1.0  0.06570  0.60430  0.05830  1.0000 -0.7441977486
O   O16       1.0  0.43430  0.39570  0.05830  1.0000 -0.7441977486
O   O17       1.0  0.56570  0.89570  0.55830  1.0000 -0.7441977486
O   O18       1.0  0.93430  0.10430  0.55830  1.0000 -0.7441977486
O   O19       1.0  0.93430  0.39570  0.94170  1.0000 -0.7441977486
O   O20       1.0  0.56570  0.60430  0.94170  1.0000 -0.7441977486
O   O21       1.0  0.09020  0.07110  0.41260  1.0000 -0.7441977486
O   O22       1.0  0.40980  0.92890  0.41260  1.0000 -0.7441977486
O   O23       1.0  0.40980  0.57110  0.08740  1.0000 -0.7457613572
O   O24       1.0  0.09020  0.42890  0.08740  1.0000 -0.7457613572
O   O25       1.0  0.90980  0.92890  0.58740  1.0000 -0.7441977486
O   O26       1.0  0.59020  0.07110  0.58740  1.0000 -0.7441977486
O   O27       1.0  0.59020  0.42890  0.91260  1.0000 -0.7457613572
O   O28       1.0  0.90980  0.57110  0.91260  1.0000 -0.7457613572
O   O29       1.0  0.35940  0.35990  0.46080  1.0000 -0.3543525152
O   O30       1.0  0.14060  0.64010  0.46080  1.0000 -0.3543525152
O   O31       1.0  0.14060  0.85990  0.03920  1.0000 -0.3543525152
O   O32       1.0  0.35940  0.14010  0.03920  1.0000 -0.3543525152
O   O33       1.0  0.64060  0.64010  0.53920  1.0000 -0.3543525152
O   O34       1.0  0.85940  0.35990  0.53920  1.0000 -0.3543525152
O   O35       1.0  0.85940  0.14010  0.96080  1.0000 -0.3543525152
O   O36       1.0  0.64060  0.85990  0.96080  1.0000 -0.3543525152
O   O37       1.0  0.29910  0.32490  0.34170  1.0000 -0.5404399261
O   O38       1.0  0.20090  0.67510  0.34170  1.0000 -0.5404399261
O   O39       1.0  0.20090  0.82490  0.15830  1.0000 -0.5404399261
O   O40       1.0  0.29910  0.17510  0.15830  1.0000 -0.5404399261
O   O41       1.0  0.70090  0.67510  0.65830  1.0000 -0.5404399261
O   O42       1.0  0.79910  0.32490  0.65830  1.0000 -0.5404399261
O   O43       1.0  0.79910  0.17510  0.84170  1.0000 -0.5404399261
O   O44       1.0  0.70090  0.82490  0.84170  1.0000 -0.5404399261
O   O45       1.0  0.75000  0.00000  0.45820  1.0000 -0.9177880511
O   O46       1.0  0.75000  0.50000  0.04180  1.0000 -0.9177880511
O   O47       1.0  0.25000  0.00000  0.54180  1.0000 -0.9177880511
O   O48       1.0  0.25000  0.50000  0.95820  1.0000 -0.9177880511
O   O49       1.0  0.57670  0.25000  0.25000  1.0000 0.2036594636
O   O50       1.0  0.92330  0.75000  0.25000  1.0000 0.2036594636
O   O51       1.0  0.42330  0.75000  0.75000  1.0000 0.2036594636
O   O52       1.0  0.07670  0.25000  0.75000  1.0000 0.2036594636
