# DDEC6 charges by PACMAN v1.1 (https://github.com/mtap-research/PACMAN-charge/)
data_2006[Ga][nan]3[FSR]2
_chemical_formula_sum              "Ga8 P10 C4 O48"
_cell_length_a       12.7555
_cell_length_b       12.7555
_cell_length_c       9.097
_cell_angle_alpha    77.4465
_cell_angle_beta     102.553
_cell_angle_gamma    104.206

_symmetry_space_group_name_H-M    "P 1"
_symmetry_Int_Tables_number       1

loop_
  _symmetry_equiv_pos_as_xyz
  'x, y, z'

loop_
  _atom_site_type_symbol
  _atom_site_label
  _atom_site_symmetry_multiplicity
  _atom_site_fract_x
  _atom_site_fract_y
  _atom_site_fract_z
  _atom_site_occupancy
  _atom_site_charge
Ga  Ga1       1.0  0.70235  0.02627  0.66762  1.0000 1.418519175
Ga  Ga2       1.0  0.02627  0.70235  0.83238  1.0000 1.418519175
Ga  Ga3       1.0  0.29765  0.97373  0.33238  1.0000 1.418519175
Ga  Ga4       1.0  0.97373  0.29765  0.16762  1.0000 1.418519175
Ga  Ga5       1.0  0.86432  0.36824  0.56437  1.0000 1.5557059109
Ga  Ga6       1.0  0.36824  0.86432  0.93563  1.0000 1.5557059109
Ga  Ga7       1.0  0.13568  0.63176  0.43563  1.0000 1.5557059109
Ga  Ga8       1.0  0.63176  0.13568  0.06437  1.0000 1.5557059109
P   P1        1.0  0.80962  0.23108  0.86405  1.0000 1.5661459923
P   P2        1.0  0.23108  0.80962  0.63595  1.0000 1.5661459923
P   P3        1.0  0.19038  0.76892  0.13595  1.0000 1.5661459923
P   P4        1.0  0.76892  0.19038  0.36405  1.0000 1.5661459923
P   P5        1.0  0.62278  0.91104  0.99551  1.0000 1.5213714003
P   P6        1.0  0.91104  0.62278  0.50449  1.0000 1.5213714003
P   P7        1.0  0.37722  0.08896  0.00449  1.0000 1.5213714003
P   P8        1.0  0.08896  0.37722  0.49551  1.0000 1.5213714003
P   P9        1.0  0.81104  0.81104  0.75000  1.0000 1.3901526987
P   P10       1.0  0.18896  0.18896  0.25000  1.0000 1.3901526987
C   C1        1.0  0.50450  0.94410  0.48870  1.0000 0.5178731739
C   C2        1.0  0.94410  0.50450  0.01130  1.0000 0.5178731739
C   C3        1.0  0.49550  0.05590  0.51130  1.0000 0.5178731739
C   C4        1.0  0.05590  0.49550  0.98870  1.0000 0.5178731739
O   O1        1.0  0.59330  0.91490  0.54150  1.0000 -0.339245388
O   O2        1.0  0.91490  0.59330  0.95850  1.0000 -0.339245388
O   O3        1.0  0.40670  0.08510  0.45850  1.0000 -0.339245388
O   O4        1.0  0.08510  0.40670  0.04150  1.0000 -0.339245388
O   O5        1.0  0.42030  0.88810  0.41740  1.0000 -0.3903735966
O   O6        1.0  0.88810  0.42030  0.08260  1.0000 -0.3903735966
O   O7        1.0  0.57970  0.11190  0.58260  1.0000 -0.3903735966
O   O8        1.0  0.11190  0.57970  0.91740  1.0000 -0.3903735966
O   O9        1.0  0.80360  0.92960  0.73040  1.0000 -0.6861080915
O   O10       1.0  0.92960  0.80360  0.76960  1.0000 -0.6861080915
O   O11       1.0  0.19640  0.07040  0.26960  1.0000 -0.6861080915
O   O12       1.0  0.07040  0.19640  0.23040  1.0000 -0.6861080915
O   O13       1.0  0.61670  0.95610  0.82740  1.0000 -0.742626065
O   O14       1.0  0.95610  0.61670  0.67260  1.0000 -0.742626065
O   O15       1.0  0.38330  0.04390  0.17260  1.0000 -0.742626065
O   O16       1.0  0.04390  0.38330  0.32740  1.0000 -0.742626065
O   O17       1.0  0.79420  0.13560  0.78220  1.0000 -0.6975842058
O   O18       1.0  0.13560  0.79420  0.71780  1.0000 -0.6975842058
O   O19       1.0  0.20580  0.86440  0.21780  1.0000 -0.6975842058
O   O20       1.0  0.86440  0.20580  0.28220  1.0000 -0.6975842058
O   O21       1.0  0.82740  0.34060  0.75230  1.0000 -0.6815447946
O   O22       1.0  0.34060  0.82740  0.74770  1.0000 -0.6815447946
O   O23       1.0  0.17260  0.65940  0.24770  1.0000 -0.6815447946
O   O24       1.0  0.65940  0.17260  0.25230  1.0000 -0.6815447946
O   O25       1.0  0.90760  0.22680  0.99180  1.0000 -0.6815447946
O   O26       1.0  0.22680  0.90760  0.50820  1.0000 -0.674834007
O   O27       1.0  0.09240  0.77320  0.00820  1.0000 -0.674834007
O   O28       1.0  0.77320  0.09240  0.49180  1.0000 -0.674834007
O   O29       1.0  0.70670  0.23170  0.92550  1.0000 -0.674834007
O   O30       1.0  0.23170  0.70670  0.57450  1.0000 -0.674834007
O   O31       1.0  0.29330  0.76830  0.07450  1.0000 -0.674834007
O   O32       1.0  0.76830  0.29330  0.42550  1.0000 -0.6815447946
O   O33       1.0  0.66760  0.00320  0.09050  1.0000 -0.6975842058
O   O34       1.0  0.00320  0.66760  0.40950  1.0000 -0.6975842058
O   O35       1.0  0.33240  0.99680  0.90950  1.0000 -0.6975842058
O   O36       1.0  0.99680  0.33240  0.59050  1.0000 -0.6975842058
O   O37       1.0  0.50700  0.85500  0.02750  1.0000 -0.6861080915
O   O38       1.0  0.85500  0.50700  0.47250  1.0000 -0.6861080915
O   O39       1.0  0.49300  0.14500  0.97250  1.0000 -0.6861080915
O   O40       1.0  0.14500  0.49300  0.52750  1.0000 -0.6861080915
O   O41       1.0  0.69560  0.82820  0.05620  1.0000 -0.4646422505
O   O42       1.0  0.82820  0.69560  0.44380  1.0000 -0.4646422505
O   O43       1.0  0.30440  0.17180  0.94380  1.0000 -0.4659947097
O   O44       1.0  0.17180  0.30440  0.55620  1.0000 -0.4659947097
O   O45       1.0  0.74380  0.75840  0.61330  1.0000 -0.534375602
O   O46       1.0  0.75840  0.74380  0.88670  1.0000 -0.534375602
O   O47       1.0  0.25620  0.24160  0.38670  1.0000 -0.5359757483
O   O48       1.0  0.24160  0.25620  0.11330  1.0000 -0.5359757483
