# DDEC6 charges by PACMAN v1.1 (https://github.com/mtap-research/PACMAN-charge/)
data_2007[TbV][nan]3[FSR]1
_chemical_formula_sum              "Tb4 V24 H168 C176 N24 O108"
_cell_length_a       13.102
_cell_length_b       26.279
_cell_length_c       26.104
_cell_angle_alpha    90
_cell_angle_beta     93.923
_cell_angle_gamma    90

_symmetry_space_group_name_H-M    "P 1"
_symmetry_Int_Tables_number       1

loop_
  _symmetry_equiv_pos_as_xyz
  'x, y, z'

loop_
  _atom_site_type_symbol
  _atom_site_label
  _atom_site_symmetry_multiplicity
  _atom_site_fract_x
  _atom_site_fract_y
  _atom_site_fract_z
  _atom_site_occupancy
  _atom_site_charge
Tb  Tb1       1.0  0.47275  0.20990  0.88343  1.0000 1.9779498869
Tb  Tb2       1.0  0.47275  0.29010  0.38343  1.0000 1.9779498869
Tb  Tb3       1.0  0.52725  0.70990  0.61657  1.0000 1.9779498869
Tb  Tb4       1.0  0.52725  0.79010  0.11657  1.0000 1.9779498869
V   V1        1.0  0.13890  0.70393  0.80453  1.0000 1.8813397944
V   V2        1.0  0.13890  0.79607  0.30453  1.0000 1.8813397944
V   V3        1.0  0.12110  0.69339  0.92881  1.0000 1.8813397944
V   V4        1.0  0.12110  0.80661  0.42881  1.0000 1.8813397944
V   V5        1.0  0.93180  0.65427  0.84860  1.0000 1.9018130893
V   V6        1.0  0.93180  0.84573  0.34860  1.0000 1.9018130893
V   V7        1.0  0.91430  0.74451  0.91826  1.0000 1.8899549665
V   V8        1.0  0.91430  0.75549  0.41826  1.0000 1.8899549665
V   V9        1.0  0.93260  0.75567  0.79460  1.0000 1.8625131641
V   V10       1.0  0.93260  0.74433  0.29460  1.0000 1.8625131641
V   V11       1.0  0.12110  0.79492  0.87490  1.0000 1.8813397944
V   V12       1.0  0.12110  0.70508  0.37490  1.0000 1.8899549665
V   V13       1.0  0.86110  0.20393  0.69547  1.0000 1.8813397944
V   V14       1.0  0.86110  0.29607  0.19547  1.0000 1.8813397944
V   V15       1.0  0.87890  0.19339  0.57119  1.0000 1.8813397944
V   V16       1.0  0.87890  0.30661  0.07119  1.0000 1.8813397944
V   V17       1.0  0.06820  0.15427  0.65140  1.0000 1.9018130893
V   V18       1.0  0.06820  0.34573  0.15140  1.0000 1.9018130893
V   V19       1.0  0.08570  0.24451  0.58174  1.0000 1.8899549665
V   V20       1.0  0.08570  0.25549  0.08174  1.0000 1.8899549665
V   V21       1.0  0.06740  0.25567  0.70540  1.0000 1.8625131641
V   V22       1.0  0.06740  0.24433  0.20540  1.0000 1.8661543721
V   V23       1.0  0.87890  0.29492  0.62510  1.0000 1.8899549665
V   V24       1.0  0.87890  0.20508  0.12510  1.0000 1.8899549665
H   H1        1.0  0.02280  0.89010  0.82930  1.0000 0.1090316211
H   H2        1.0  0.02280  0.60990  0.32930  1.0000 0.1090316211
H   H3        1.0  0.93190  0.87110  0.78970  1.0000 0.119593298
H   H4        1.0  0.93190  0.62890  0.28970  1.0000 0.119593298
H   H5        1.0  0.77390  0.83530  0.82380  1.0000 0.1090316211
H   H6        1.0  0.77390  0.66470  0.32380  1.0000 0.1090316211
H   H7        1.0  0.76620  0.82780  0.88440  1.0000 0.1090316211
H   H8        1.0  0.76620  0.67220  0.38440  1.0000 0.1090316211
H   H9        1.0  0.90750  0.86140  0.94550  1.0000 0.119593298
H   H10       1.0  0.90750  0.63860  0.44550  1.0000 0.119593298
H   H11       1.0  0.00820  0.88420  0.92190  1.0000 0.119593298
H   H12       1.0  0.00820  0.61580  0.42190  1.0000 0.119593298
H   H13       1.0  0.85860  0.94030  0.80630  1.0000 0.119593298
H   H14       1.0  0.85860  0.55970  0.30630  1.0000 0.119593298
H   H15       1.0  0.76110  0.90770  0.81930  1.0000 0.119593298
H   H16       1.0  0.76110  0.59230  0.31930  1.0000 0.119593298
H   H17       1.0  0.11740  0.57700  0.93740  1.0000 0.1271950142
H   H18       1.0  0.11740  0.92300  0.43740  1.0000 0.1271950142
H   H19       1.0  0.02870  0.55820  0.89640  1.0000 0.119593298
H   H20       1.0  0.02870  0.94180  0.39640  1.0000 0.119593298
H   H21       1.0  0.05090  0.56710  0.80020  1.0000 0.1090316211
H   H22       1.0  0.05090  0.93290  0.30020  1.0000 0.1090316211
H   H23       1.0  0.15300  0.59270  0.78200  1.0000 0.1090316211
H   H24       1.0  0.15300  0.90730  0.28200  1.0000 0.1003932758
H   H25       1.0  0.28770  0.61840  0.84260  1.0000 0.1090316211
H   H26       1.0  0.28770  0.88160  0.34260  1.0000 0.1090316211
H   H27       1.0  0.27910  0.61540  0.90330  1.0000 0.119593298
H   H28       1.0  0.27910  0.88460  0.40330  1.0000 0.119593298
H   H29       1.0  0.23610  0.51480  0.79600  1.0000 0.1090316211
H   H30       1.0  0.23610  0.98520  0.29600  1.0000 0.1090316211
H   H31       1.0  0.32870  0.53420  0.83470  1.0000 0.119593298
H   H32       1.0  0.32870  0.96580  0.33470  1.0000 0.119593298
H   H33       1.0  0.23700  0.43170  0.77670  1.0000 0.1003932758
H   H34       1.0  0.23700  0.06830  0.27670  1.0000 0.1003932758
H   H35       1.0  0.28240  0.34540  0.79060  1.0000 0.1271950142
H   H36       1.0  0.28240  0.15460  0.29060  1.0000 0.1271950142
H   H37       1.0  0.40620  0.37750  0.93840  1.0000 0.141098156
H   H38       1.0  0.40620  0.12250  0.43840  1.0000 0.141098156
H   H39       1.0  0.35460  0.46040  0.91650  1.0000 0.119593298
H   H40       1.0  0.35460  0.03960  0.41650  1.0000 0.119593298
H   H41       1.0  0.53900  0.02190  0.88910  1.0000 0.119593298
H   H42       1.0  0.53900  0.47810  0.38910  1.0000 0.1271950142
H   H43       1.0  0.62750  0.94640  0.86560  1.0000 0.1271950142
H   H44       1.0  0.62750  0.55360  0.36560  1.0000 0.1271950142
H   H45       1.0  0.85060  0.03480  0.81150  1.0000 0.119593298
H   H46       1.0  0.85060  0.46520  0.31150  1.0000 0.119593298
H   H47       1.0  0.76520  0.11070  0.83350  1.0000 0.1271950142
H   H48       1.0  0.76520  0.38930  0.33350  1.0000 0.1271950142
H   H49       1.0  0.58700  0.32030  0.26570  1.0000 0.1496046536
H   H50       1.0  0.58700  0.17970  0.76570  1.0000 0.1496046536
H   H51       1.0  0.61430  0.29390  0.18420  1.0000 0.1589232742
H   H52       1.0  0.61430  0.20610  0.68420  1.0000 0.1589232742
H   H53       1.0  0.31230  0.26990  0.15670  1.0000 0.1496046536
H   H54       1.0  0.31230  0.23010  0.65670  1.0000 0.1496046536
H   H55       1.0  0.28920  0.29470  0.23920  1.0000 0.1712672704
H   H56       1.0  0.28920  0.20530  0.73920  1.0000 0.1712672704
H   H57       1.0  0.36650  0.23120  0.99770  1.0000 0.141098156
H   H58       1.0  0.36650  0.26880  0.49770  1.0000 0.141098156
H   H59       1.0  0.33990  0.26590  0.08090  1.0000 0.1589232742
H   H60       1.0  0.33990  0.23410  0.58090  1.0000 0.1589232742
H   H61       1.0  0.63880  0.25030  0.11930  1.0000 0.1589232742
H   H62       1.0  0.63880  0.24970  0.61930  1.0000 0.1589232742
H   H63       1.0  0.66630  0.22250  0.04050  1.0000 0.1805816361
H   H64       1.0  0.66630  0.27750  0.54050  1.0000 0.1805816361
H   H65       1.0  0.71400  0.23730  0.80510  1.0000 0.1496046536
H   H66       1.0  0.71400  0.26270  0.30510  1.0000 0.1496046536
H   H67       1.0  0.88820  0.22590  0.81460  1.0000 0.1712672704
H   H68       1.0  0.88820  0.27410  0.31460  1.0000 0.1712672704
H   H69       1.0  0.88630  0.25910  0.96480  1.0000 0.1589232742
H   H70       1.0  0.88630  0.24090  0.46480  1.0000 0.1589232742
H   H71       1.0  0.71390  0.27270  0.95200  1.0000 0.1496046536
H   H72       1.0  0.71390  0.22730  0.45200  1.0000 0.1496046536
H   H73       1.0  0.22280  0.22150  0.83270  1.0000 0.1496046536
H   H74       1.0  0.22280  0.27850  0.33270  1.0000 0.1496046536
H   H75       1.0  0.05140  0.24770  0.82490  1.0000 0.1589232742
H   H76       1.0  0.05140  0.25230  0.32490  1.0000 0.1589232742
H   H77       1.0  0.02380  0.20440  0.96830  1.0000 0.1589232742
H   H78       1.0  0.02380  0.29560  0.46830  1.0000 0.1589232742
H   H79       1.0  0.19090  0.17590  0.97530  1.0000 0.1496046536
H   H80       1.0  0.19090  0.32410  0.47530  1.0000 0.1496046536
H   H81       1.0  0.86290  0.93790  0.89990  1.0000 0.2783980363
H   H82       1.0  0.86290  0.56210  0.39990  1.0000 0.2783980363
H   H83       1.0  0.17880  0.50900  0.88690  1.0000 0.253065049
H   H84       1.0  0.17880  0.99100  0.38690  1.0000 0.253065049
H   H85       1.0  0.97720  0.39010  0.67070  1.0000 0.1090316211
H   H86       1.0  0.97720  0.10990  0.17070  1.0000 0.1090316211
H   H87       1.0  0.06810  0.37110  0.71030  1.0000 0.119593298
H   H88       1.0  0.06810  0.12890  0.21030  1.0000 0.119593298
H   H89       1.0  0.22610  0.33530  0.67620  1.0000 0.1090316211
H   H90       1.0  0.22610  0.16470  0.17620  1.0000 0.1090316211
H   H91       1.0  0.23380  0.32780  0.61560  1.0000 0.1090316211
H   H92       1.0  0.23380  0.17220  0.11560  1.0000 0.1090316211
H   H93       1.0  0.09250  0.36140  0.55450  1.0000 0.119593298
H   H94       1.0  0.09250  0.13860  0.05450  1.0000 0.119593298
H   H95       1.0  0.99180  0.38420  0.57810  1.0000 0.119593298
H   H96       1.0  0.99180  0.11580  0.07810  1.0000 0.119593298
H   H97       1.0  0.14140  0.44030  0.69370  1.0000 0.119593298
H   H98       1.0  0.14140  0.05970  0.19370  1.0000 0.119593298
H   H99       1.0  0.23890  0.40770  0.68070  1.0000 0.119593298
H   H100      1.0  0.23890  0.09230  0.18070  1.0000 0.119593298
H   H101      1.0  0.88260  0.07700  0.56260  1.0000 0.1271950142
H   H102      1.0  0.88260  0.42300  0.06260  1.0000 0.1271950142
H   H103      1.0  0.97130  0.05820  0.60360  1.0000 0.119593298
H   H104      1.0  0.97130  0.44180  0.10360  1.0000 0.119593298
H   H105      1.0  0.94910  0.06710  0.69980  1.0000 0.1090316211
H   H106      1.0  0.94910  0.43290  0.19980  1.0000 0.1090316211
H   H107      1.0  0.84700  0.09270  0.71800  1.0000 0.1090316211
H   H108      1.0  0.84700  0.40730  0.21800  1.0000 0.1090316211
H   H109      1.0  0.71230  0.11840  0.65740  1.0000 0.1090316211
H   H110      1.0  0.71230  0.38160  0.15740  1.0000 0.1090316211
H   H111      1.0  0.72090  0.11540  0.59670  1.0000 0.119593298
H   H112      1.0  0.72090  0.38460  0.09670  1.0000 0.119593298
H   H113      1.0  0.76390  0.01480  0.70400  1.0000 0.1090316211
H   H114      1.0  0.76390  0.48520  0.20400  1.0000 0.1090316211
H   H115      1.0  0.67130  0.03420  0.66530  1.0000 0.119593298
H   H116      1.0  0.67130  0.46580  0.16530  1.0000 0.119593298
H   H117      1.0  0.76300  0.93170  0.72330  1.0000 0.1003932758
H   H118      1.0  0.76300  0.56830  0.22330  1.0000 0.1003932758
H   H119      1.0  0.71760  0.84540  0.70940  1.0000 0.1271950142
H   H120      1.0  0.71760  0.65460  0.20940  1.0000 0.1271950142
H   H121      1.0  0.59380  0.87750  0.56160  1.0000 0.141098156
H   H122      1.0  0.59380  0.62250  0.06160  1.0000 0.141098156
H   H123      1.0  0.64540  0.96040  0.58350  1.0000 0.119593298
H   H124      1.0  0.64540  0.53960  0.08350  1.0000 0.119593298
H   H125      1.0  0.46100  0.52190  0.61090  1.0000 0.1271950142
H   H126      1.0  0.46100  0.97810  0.11090  1.0000 0.1271950142
H   H127      1.0  0.37250  0.44640  0.63440  1.0000 0.1271950142
H   H128      1.0  0.37250  0.05360  0.13440  1.0000 0.1271950142
H   H129      1.0  0.14940  0.53480  0.68850  1.0000 0.119593298
H   H130      1.0  0.14940  0.96520  0.18850  1.0000 0.119593298
H   H131      1.0  0.23480  0.61070  0.66650  1.0000 0.1271950142
H   H132      1.0  0.23480  0.88930  0.16650  1.0000 0.1271950142
H   H133      1.0  0.41300  0.82030  0.23430  1.0000 0.1496046536
H   H134      1.0  0.41300  0.67970  0.73430  1.0000 0.1496046536
H   H135      1.0  0.38570  0.79390  0.31580  1.0000 0.1589232742
H   H136      1.0  0.38570  0.70610  0.81580  1.0000 0.1589232742
H   H137      1.0  0.68770  0.76990  0.34330  1.0000 0.1589232742
H   H138      1.0  0.68770  0.73010  0.84330  1.0000 0.1496046536
H   H139      1.0  0.71080  0.79470  0.26080  1.0000 0.1712672704
H   H140      1.0  0.71080  0.70530  0.76080  1.0000 0.1712672704
H   H141      1.0  0.63350  0.73120  0.50230  1.0000 0.141098156
H   H142      1.0  0.63350  0.76880  0.00230  1.0000 0.141098156
H   H143      1.0  0.66010  0.76590  0.41910  1.0000 0.1589232742
H   H144      1.0  0.66010  0.73410  0.91910  1.0000 0.1589232742
H   H145      1.0  0.36120  0.75030  0.38070  1.0000 0.1589232742
H   H146      1.0  0.36120  0.74970  0.88070  1.0000 0.1589232742
H   H147      1.0  0.33370  0.72250  0.45950  1.0000 0.1805816361
H   H148      1.0  0.33370  0.77750  0.95950  1.0000 0.1805816361
H   H149      1.0  0.28600  0.73730  0.69490  1.0000 0.1496046536
H   H150      1.0  0.28600  0.76270  0.19490  1.0000 0.1496046536
H   H151      1.0  0.11180  0.72590  0.68540  1.0000 0.1712672704
H   H152      1.0  0.11180  0.77410  0.18540  1.0000 0.1712672704
H   H153      1.0  0.11370  0.75910  0.53520  1.0000 0.1589232742
H   H154      1.0  0.11370  0.74090  0.03520  1.0000 0.1589232742
H   H155      1.0  0.28610  0.77270  0.54800  1.0000 0.1496046536
H   H156      1.0  0.28610  0.72730  0.04800  1.0000 0.1496046536
H   H157      1.0  0.77720  0.72150  0.66730  1.0000 0.1496046536
H   H158      1.0  0.77720  0.77850  0.16730  1.0000 0.1496046536
H   H159      1.0  0.94860  0.74770  0.67510  1.0000 0.1589232742
H   H160      1.0  0.94860  0.75230  0.17510  1.0000 0.1589232742
H   H161      1.0  0.97620  0.70440  0.53170  1.0000 0.1589232742
H   H162      1.0  0.97620  0.79560  0.03170  1.0000 0.1589232742
H   H163      1.0  0.80910  0.67590  0.52470  1.0000 0.1496046536
H   H164      1.0  0.80910  0.82410  0.02470  1.0000 0.1496046536
H   H165      1.0  0.13710  0.43790  0.60010  1.0000 0.2783980363
H   H166      1.0  0.13710  0.06210  0.10010  1.0000 0.2783980363
H   H167      1.0  0.82120  0.00900  0.61310  1.0000 0.253065049
H   H168      1.0  0.82120  0.49100  0.11310  1.0000 0.253065049
C   C1        1.0  0.97100  0.86320  0.82260  1.0000 -0.0571010021
C   C2        1.0  0.97100  0.63680  0.32260  1.0000 -0.0571010021
C   C3        1.0  0.81320  0.82620  0.85630  1.0000 -0.0799912102
C   C4        1.0  0.81320  0.67380  0.35630  1.0000 -0.0799912102
C   C5        1.0  0.89700  0.86270  0.86640  1.0000 0.119593298
C   C6        1.0  0.89700  0.63730  0.36640  1.0000 0.119593298
C   C7        1.0  0.95450  0.85770  0.91760  1.0000 -0.0799912102
C   C8        1.0  0.95450  0.64230  0.41760  1.0000 -0.0799912102
C   C9        1.0  0.80800  0.93490  0.83230  1.0000 -0.0415854165
C   C10       1.0  0.80800  0.56510  0.33230  1.0000 -0.0415854165
C   C11       1.0  0.08100  0.58470  0.90370  1.0000 -0.0571010021
C   C12       1.0  0.08100  0.91530  0.40370  1.0000 -0.0571010021
C   C13       1.0  0.10170  0.59430  0.80810  1.0000 -0.0692173533
C   C14       1.0  0.10170  0.90570  0.30810  1.0000 -0.0692173533
C   C15       1.0  0.15700  0.58400  0.86250  1.0000 0.1908814827
C   C16       1.0  0.15700  0.91600  0.36250  1.0000 0.1908814827
C   C17       1.0  0.24010  0.62230  0.87020  1.0000 -0.0866342687
C   C18       1.0  0.24010  0.87770  0.37020  1.0000 -0.0866342687
C   C19       1.0  0.26600  0.51300  0.83200  1.0000 -0.0692173533
C   C20       1.0  0.26600  0.98700  0.33200  1.0000 -0.0692173533
C   C21       1.0  0.29100  0.45900  0.84700  1.0000 0.0270648094
C   C22       1.0  0.29100  0.04100  0.34700  1.0000 0.0270648094
C   C23       1.0  0.27000  0.42180  0.80900  1.0000 -0.190604516
C   C24       1.0  0.27000  0.07820  0.30900  1.0000 -0.190604516
C   C25       1.0  0.29700  0.37020  0.81650  1.0000 -0.0799912102
C   C26       1.0  0.29700  0.12980  0.31650  1.0000 -0.0799912102
C   C27       1.0  0.34600  0.35680  0.86360  1.0000 -0.0415854165
C   C28       1.0  0.34600  0.14320  0.36360  1.0000 -0.0415854165
C   C29       1.0  0.37300  0.38700  0.90600  1.0000 -0.0692173533
C   C30       1.0  0.37300  0.11300  0.40600  1.0000 -0.0692173533
C   C31       1.0  0.34000  0.43600  0.89000  1.0000 -0.2067008845
C   C32       1.0  0.34000  0.06400  0.39000  1.0000 -0.2067008845
C   C33       1.0  0.38240  0.30480  0.86940  1.0000 0.5813813278
C   C34       1.0  0.38240  0.19520  0.36940  1.0000 0.5813813278
C   C35       1.0  0.58700  0.12080  0.87660  1.0000 0.5813813278
C   C36       1.0  0.58700  0.37920  0.37660  1.0000 0.5813813278
C   C37       1.0  0.64100  0.07310  0.86430  1.0000 -0.0234209892
C   C38       1.0  0.64100  0.42690  0.36430  1.0000 -0.0234209892
C   C39       1.0  0.60200  0.02480  0.87330  1.0000 -0.0692173533
C   C40       1.0  0.60200  0.47520  0.37330  1.0000 -0.0692173533
C   C41       1.0  0.65500  0.97910  0.85920  1.0000 -0.18215745
C   C42       1.0  0.65500  0.52090  0.35920  1.0000 -0.18215745
C   C43       1.0  0.74500  0.98440  0.83630  1.0000 -0.004619152
C   C44       1.0  0.74500  0.51560  0.33630  1.0000 -0.004619152
C   C45       1.0  0.78700  0.03270  0.82700  1.0000 -0.190604516
C   C46       1.0  0.78700  0.46730  0.32700  1.0000 -0.190604516
C   C47       1.0  0.73700  0.07830  0.84020  1.0000 -0.0866342687
C   C48       1.0  0.73700  0.42170  0.34020  1.0000 -0.0866342687
C   C49       1.0  0.53090  0.30980  0.24320  1.0000 -0.0485208487
C   C50       1.0  0.53090  0.19020  0.74320  1.0000 -0.0485208487
C   C51       1.0  0.54660  0.29400  0.19500  1.0000 -0.1329092427
C   C52       1.0  0.54660  0.20600  0.69500  1.0000 -0.1329092427
C   C53       1.0  0.46990  0.27860  0.16200  1.0000 0.1003932758
C   C54       1.0  0.46990  0.22140  0.66200  1.0000 0.1003932758
C   C55       1.0  0.36920  0.27970  0.17900  1.0000 -0.1417080717
C   C56       1.0  0.36920  0.22030  0.67900  1.0000 -0.1417080717
C   C57       1.0  0.35600  0.29500  0.22730  1.0000 0.0016095657
C   C58       1.0  0.35600  0.20500  0.72730  1.0000 0.0016095657
C   C59       1.0  0.48420  0.26220  0.10780  1.0000 0.0858203949
C   C60       1.0  0.48420  0.23780  0.60780  1.0000 0.0858203949
C   C61       1.0  0.42260  0.23610  0.02220  1.0000 -0.0328809588
C   C62       1.0  0.42260  0.26390  0.52220  1.0000 -0.0328809588
C   C63       1.0  0.40690  0.25650  0.07280  1.0000 -0.1592998511
C   C64       1.0  0.40690  0.24350  0.57280  1.0000 -0.1592998511
C   C65       1.0  0.58270  0.24770  0.09440  1.0000 -0.121257017
C   C66       1.0  0.58270  0.25230  0.59440  1.0000 -0.121257017
C   C67       1.0  0.59840  0.23060  0.04830  1.0000 -0.0415854165
C   C68       1.0  0.59840  0.26940  0.54830  1.0000 -0.0415854165
C   C69       1.0  0.75060  0.24370  0.83710  1.0000 -0.0055663853
C   C70       1.0  0.75060  0.25630  0.33710  1.0000 -0.004619152
C   C71       1.0  0.85280  0.23520  0.84370  1.0000 -0.1493666689
C   C72       1.0  0.85280  0.26480  0.34370  1.0000 -0.1493666689
C   C73       1.0  0.90790  0.23940  0.88990  1.0000 0.1003932758
C   C74       1.0  0.90790  0.26060  0.38990  1.0000 0.1003932758
C   C75       1.0  0.85290  0.25500  0.93160  1.0000 -0.1329092427
C   C76       1.0  0.85290  0.24500  0.43160  1.0000 -0.1329092427
C   C77       1.0  0.75180  0.26410  0.92350  1.0000 -0.0234209892
C   C78       1.0  0.75180  0.23590  0.42350  1.0000 -0.0234209892
C   C79       1.0  0.18120  0.21750  0.86080  1.0000 -0.0234209892
C   C80       1.0  0.18120  0.28250  0.36080  1.0000 -0.0234209892
C   C81       1.0  0.07960  0.23290  0.85600  1.0000 -0.1417080717
C   C82       1.0  0.07960  0.26710  0.35600  1.0000 -0.1493666689
C   C83       1.0  0.02050  0.22620  0.89730  1.0000 0.0858203949
C   C84       1.0  0.02050  0.27380  0.39730  1.0000 0.0858203949
C   C85       1.0  0.06360  0.20730  0.93930  1.0000 -0.1417080717
C   C86       1.0  0.06360  0.29270  0.43930  1.0000 -0.1417080717
C   C87       1.0  0.16330  0.19110  0.94430  1.0000 -0.0415854165
C   C88       1.0  0.16330  0.30890  0.44430  1.0000 -0.0415854165
C   C89       1.0  0.02900  0.36320  0.67740  1.0000 -0.0571010021
C   C90       1.0  0.02900  0.13680  0.17740  1.0000 -0.0571010021
C   C91       1.0  0.18680  0.32620  0.64370  1.0000 -0.0799912102
C   C92       1.0  0.18680  0.17380  0.14370  1.0000 -0.0799912102
C   C93       1.0  0.10300  0.36270  0.63360  1.0000 0.119593298
C   C94       1.0  0.10300  0.13730  0.13360  1.0000 0.119593298
C   C95       1.0  0.04550  0.35770  0.58240  1.0000 -0.0799912102
C   C96       1.0  0.04550  0.14230  0.08240  1.0000 -0.0799912102
C   C97       1.0  0.19200  0.43490  0.66770  1.0000 -0.0415854165
C   C98       1.0  0.19200  0.06510  0.16770  1.0000 -0.0415854165
C   C99       1.0  0.91900  0.08470  0.59630  1.0000 -0.0571010021
C   C100      1.0  0.91900  0.41530  0.09630  1.0000 -0.0571010021
C   C101      1.0  0.89830  0.09430  0.69190  1.0000 -0.0692173533
C   C102      1.0  0.89830  0.40570  0.19190  1.0000 -0.0692173533
C   C103      1.0  0.84300  0.08400  0.63750  1.0000 0.1908814827
C   C104      1.0  0.84300  0.41600  0.13750  1.0000 0.1908814827
C   C105      1.0  0.75990  0.12230  0.62980  1.0000 -0.0866342687
C   C106      1.0  0.75990  0.37770  0.12980  1.0000 -0.0866342687
C   C107      1.0  0.73400  0.01300  0.66800  1.0000 -0.0692173533
C   C108      1.0  0.73400  0.48700  0.16800  1.0000 -0.0692173533
C   C109      1.0  0.70900  0.95900  0.65300  1.0000 0.0270648094
C   C110      1.0  0.70900  0.54100  0.15300  1.0000 0.0270648094
C   C111      1.0  0.73000  0.92180  0.69100  1.0000 -0.190604516
C   C112      1.0  0.73000  0.57820  0.19100  1.0000 -0.190604516
C   C113      1.0  0.70300  0.87020  0.68350  1.0000 -0.0799912102
C   C114      1.0  0.70300  0.62980  0.18350  1.0000 -0.0799912102
C   C115      1.0  0.65400  0.85680  0.63640  1.0000 -0.0415854165
C   C116      1.0  0.65400  0.64320  0.13640  1.0000 -0.0415854165
C   C117      1.0  0.62700  0.88700  0.59400  1.0000 -0.0692173533
C   C118      1.0  0.62700  0.61300  0.09400  1.0000 -0.0692173533
C   C119      1.0  0.66000  0.93600  0.61000  1.0000 -0.2067008845
C   C120      1.0  0.66000  0.56400  0.11000  1.0000 -0.2067008845
C   C121      1.0  0.61760  0.80480  0.63060  1.0000 0.5813813278
C   C122      1.0  0.61760  0.69520  0.13060  1.0000 0.5813813278
C   C123      1.0  0.41300  0.62080  0.62340  1.0000 0.5813813278
C   C124      1.0  0.41300  0.87920  0.12340  1.0000 0.5813813278
C   C125      1.0  0.35900  0.57310  0.63570  1.0000 -0.0234209892
C   C126      1.0  0.35900  0.92690  0.13570  1.0000 -0.0234209892
C   C127      1.0  0.39800  0.52480  0.62670  1.0000 -0.0692173533
C   C128      1.0  0.39800  0.97520  0.12670  1.0000 -0.0692173533
C   C129      1.0  0.34500  0.47910  0.64080  1.0000 -0.18215745
C   C130      1.0  0.34500  0.02090  0.14080  1.0000 -0.18215745
C   C131      1.0  0.25500  0.48440  0.66370  1.0000 -0.004619152
C   C132      1.0  0.25500  0.01560  0.16370  1.0000 -0.004619152
C   C133      1.0  0.21300  0.53270  0.67300  1.0000 -0.190604516
C   C134      1.0  0.21300  0.96730  0.17300  1.0000 -0.190604516
C   C135      1.0  0.26300  0.57830  0.65980  1.0000 -0.0866342687
C   C136      1.0  0.26300  0.92170  0.15980  1.0000 -0.0866342687
C   C137      1.0  0.46910  0.80980  0.25680  1.0000 -0.0485208487
C   C138      1.0  0.46910  0.69020  0.75680  1.0000 -0.0485208487
C   C139      1.0  0.45340  0.79400  0.30500  1.0000 -0.1329092427
C   C140      1.0  0.45340  0.70600  0.80500  1.0000 -0.1329092427
C   C141      1.0  0.53010  0.77860  0.33800  1.0000 0.1003932758
C   C142      1.0  0.53010  0.72140  0.83800  1.0000 0.1003932758
C   C143      1.0  0.63080  0.77970  0.32100  1.0000 -0.1417080717
C   C144      1.0  0.63080  0.72030  0.82100  1.0000 -0.1417080717
C   C145      1.0  0.64400  0.79500  0.27270  1.0000 0.0016095657
C   C146      1.0  0.64400  0.70500  0.77270  1.0000 0.0016095657
C   C147      1.0  0.51580  0.76220  0.39220  1.0000 0.0858203949
C   C148      1.0  0.51580  0.73780  0.89220  1.0000 0.0858203949
C   C149      1.0  0.57740  0.73610  0.47780  1.0000 -0.0328809588
C   C150      1.0  0.57740  0.76390  0.97780  1.0000 -0.0328809588
C   C151      1.0  0.59310  0.75650  0.42720  1.0000 -0.1592998511
C   C152      1.0  0.59310  0.74350  0.92720  1.0000 -0.1592998511
C   C153      1.0  0.41730  0.74770  0.40560  1.0000 -0.121257017
C   C154      1.0  0.41730  0.75230  0.90560  1.0000 -0.121257017
C   C155      1.0  0.40160  0.73060  0.45170  1.0000 -0.0415854165
C   C156      1.0  0.40160  0.76940  0.95170  1.0000 -0.0415854165
C   C157      1.0  0.24940  0.74370  0.66290  1.0000 -0.0055663853
C   C158      1.0  0.24940  0.75630  0.16290  1.0000 -0.0055663853
C   C159      1.0  0.14720  0.73520  0.65630  1.0000 -0.1493666689
C   C160      1.0  0.14720  0.76480  0.15630  1.0000 -0.1493666689
C   C161      1.0  0.09210  0.73940  0.61010  1.0000 0.1003932758
C   C162      1.0  0.09210  0.76060  0.11010  1.0000 0.1003932758
C   C163      1.0  0.14710  0.75500  0.56840  1.0000 -0.1329092427
C   C164      1.0  0.14710  0.74500  0.06840  1.0000 -0.1329092427
C   C165      1.0  0.24820  0.76410  0.57650  1.0000 -0.0234209892
C   C166      1.0  0.24820  0.73590  0.07650  1.0000 -0.0234209892
C   C167      1.0  0.81880  0.71750  0.63920  1.0000 -0.0234209892
C   C168      1.0  0.81880  0.78250  0.13920  1.0000 -0.0234209892
C   C169      1.0  0.92040  0.73290  0.64400  1.0000 -0.1493666689
C   C170      1.0  0.92040  0.76710  0.14400  1.0000 -0.1493666689
C   C171      1.0  0.97950  0.72620  0.60270  1.0000 0.0858203949
C   C172      1.0  0.97950  0.77380  0.10270  1.0000 0.0858203949
C   C173      1.0  0.93640  0.70730  0.56070  1.0000 -0.1417080717
C   C174      1.0  0.93640  0.79270  0.06070  1.0000 -0.1417080717
C   C175      1.0  0.83670  0.69110  0.55570  1.0000 -0.0415854165
C   C176      1.0  0.83670  0.80890  0.05570  1.0000 -0.0415854165
N   N1        1.0  0.85400  0.91960  0.87170  1.0000 -0.2249866879
N   N2        1.0  0.85400  0.58040  0.37170  1.0000 -0.2257300026
N   N3        1.0  0.20000  0.53010  0.86360  1.0000 -0.302545116
N   N4        1.0  0.20000  0.96990  0.36360  1.0000 -0.302545116
N   N5        1.0  0.22070  0.19730  0.90420  1.0000 0.3366515406
N   N6        1.0  0.22070  0.30270  0.40420  1.0000 0.3366515406
N   N7        1.0  0.43450  0.31060  0.25910  1.0000 0.3457283148
N   N8        1.0  0.43450  0.18940  0.75910  1.0000 0.3457283148
N   N9        1.0  0.70300  0.26140  0.87740  1.0000 0.3321772808
N   N10       1.0  0.70300  0.23860  0.37740  1.0000 0.3321772808
N   N11       1.0  0.51980  0.22410  0.01070  1.0000 0.3761531108
N   N12       1.0  0.51980  0.27590  0.51070  1.0000 0.3761531108
N   N13       1.0  0.14600  0.41960  0.62830  1.0000 -0.2249866879
N   N14       1.0  0.14600  0.08040  0.12830  1.0000 -0.2257300026
N   N15       1.0  0.80000  0.03010  0.63640  1.0000 -0.302545116
N   N16       1.0  0.80000  0.46990  0.13640  1.0000 -0.302545116
N   N17       1.0  0.77930  0.69730  0.59580  1.0000 0.3366515406
N   N18       1.0  0.77930  0.80270  0.09580  1.0000 0.3366515406
N   N19       1.0  0.56550  0.81060  0.24090  1.0000 0.3457283148
N   N20       1.0  0.56550  0.68940  0.74090  1.0000 0.3457283148
N   N21       1.0  0.29700  0.76140  0.62260  1.0000 0.3321772808
N   N22       1.0  0.29700  0.73860  0.12260  1.0000 0.3321772808
N   N23       1.0  0.48020  0.72410  0.48930  1.0000 0.3761531108
N   N24       1.0  0.48020  0.77590  0.98930  1.0000 0.3761531108
O   O1        1.0  0.17740  0.84690  0.88620  1.0000 -0.6111139438
O   O2        1.0  0.17740  0.65310  0.38620  1.0000 -0.6012852328
O   O3        1.0  0.01980  0.81580  0.81870  1.0000 -0.6012852328
O   O4        1.0  0.01980  0.68420  0.31870  1.0000 -0.6012852328
O   O5        1.0  0.00110  0.80610  0.91860  1.0000 -0.6202946246
O   O6        1.0  0.00110  0.69390  0.41860  1.0000 -0.6202946246
O   O7        1.0  0.86450  0.78490  0.75010  1.0000 -0.6510208189
O   O8        1.0  0.86450  0.71510  0.25010  1.0000 -0.6510208189
O   O9        1.0  0.85240  0.77670  0.85270  1.0000 -0.6012852328
O   O10       1.0  0.85240  0.72330  0.35270  1.0000 -0.6012852328
O   O11       1.0  0.82970  0.76680  0.95410  1.0000 -0.6558663652
O   O12       1.0  0.82970  0.73320  0.45410  1.0000 -0.6510208189
O   O13       1.0  0.19830  0.76360  0.82820  1.0000 -0.9059814817
O   O14       1.0  0.19830  0.73640  0.32820  1.0000 -0.9059814817
O   O15       1.0  0.04580  0.73470  0.76130  1.0000 -0.8886549181
O   O16       1.0  0.04580  0.76530  0.26130  1.0000 -0.8886549181
O   O17       1.0  0.17640  0.75460  0.92920  1.0000 -0.8886549181
O   O18       1.0  0.17640  0.74540  0.42920  1.0000 -0.8886549181
O   O19       1.0  0.02590  0.72450  0.86260  1.0000 -1.2014996415
O   O20       1.0  0.02590  0.77550  0.36260  1.0000 -1.2014996415
O   O21       1.0  0.87630  0.69380  0.79510  1.0000 -0.8886549181
O   O22       1.0  0.87630  0.80620  0.29510  1.0000 -0.8886549181
O   O23       1.0  0.00730  0.71350  0.96160  1.0000 -0.878977359
O   O24       1.0  0.00730  0.78650  0.46160  1.0000 -0.878977359
O   O25       1.0  0.85780  0.68590  0.89560  1.0000 -0.8647250539
O   O26       1.0  0.85780  0.81410  0.39560  1.0000 -0.8647250539
O   O27       1.0  0.22290  0.68190  0.76750  1.0000 -0.6510208189
O   O28       1.0  0.22290  0.81810  0.26750  1.0000 -0.6510208189
O   O29       1.0  0.20320  0.67390  0.87020  1.0000 -0.6202946246
O   O30       1.0  0.20320  0.82610  0.37020  1.0000 -0.6202946246
O   O31       1.0  0.05080  0.64270  0.80420  1.0000 -0.6111139438
O   O32       1.0  0.05080  0.85730  0.30420  1.0000 -0.6111139438
O   O33       1.0  0.18490  0.66330  0.97300  1.0000 -0.6303856081
O   O34       1.0  0.18490  0.83670  0.47300  1.0000 -0.6303856081
O   O35       1.0  0.03450  0.63260  0.90560  1.0000 -0.6012852328
O   O36       1.0  0.03450  0.86740  0.40560  1.0000 -0.6012852328
O   O37       1.0  0.88360  0.59990  0.84080  1.0000 -0.6012852328
O   O38       1.0  0.88360  0.90010  0.34080  1.0000 -0.6012852328
O   O39       1.0  0.38910  0.27440  0.83340  1.0000 -0.6111139438
O   O40       1.0  0.38910  0.22560  0.33340  1.0000 -0.6111139438
O   O41       1.0  0.40400  0.28690  0.91660  1.0000 -0.6887205994
O   O42       1.0  0.40400  0.21310  0.41660  1.0000 -0.6887205994
O   O43       1.0  0.62300  0.16380  0.86430  1.0000 -0.6794586039
O   O44       1.0  0.62300  0.33620  0.36430  1.0000 -0.6794586039
O   O45       1.0  0.50050  0.11840  0.89530  1.0000 -0.6012852328
O   O46       1.0  0.50050  0.38160  0.39530  1.0000 -0.6012852328
O   O47       1.0  0.31750  0.18190  0.90890  1.0000 -0.5867974764
O   O48       1.0  0.31750  0.31810  0.40890  1.0000 -0.5867974764
O   O49       1.0  0.41770  0.32930  0.30490  1.0000 -0.5541602141
O   O50       1.0  0.41770  0.17070  0.80490  1.0000 -0.5563733385
O   O51       1.0  0.60080  0.27050  0.87140  1.0000 -0.6303856081
O   O52       1.0  0.60080  0.22950  0.37140  1.0000 -0.6303856081
O   O53       1.0  0.53890  0.20330  0.96700  1.0000 -0.5541602141
O   O54       1.0  0.53890  0.29670  0.46700  1.0000 -0.5541602141
O   O55       1.0  0.82260  0.34690  0.61380  1.0000 -0.6012852328
O   O56       1.0  0.82260  0.15310  0.11380  1.0000 -0.6012852328
O   O57       1.0  0.98020  0.31580  0.68130  1.0000 -0.6012852328
O   O58       1.0  0.98020  0.18420  0.18130  1.0000 -0.6012852328
O   O59       1.0  0.99890  0.30610  0.58140  1.0000 -0.6202946246
O   O60       1.0  0.99890  0.19390  0.08140  1.0000 -0.6202946246
O   O61       1.0  0.13550  0.28490  0.74990  1.0000 -0.6510208189
O   O62       1.0  0.13550  0.21510  0.24990  1.0000 -0.6510208189
O   O63       1.0  0.14760  0.27670  0.64730  1.0000 -0.6012852328
O   O64       1.0  0.14760  0.22330  0.14730  1.0000 -0.6012852328
O   O65       1.0  0.17030  0.26680  0.54590  1.0000 -0.6558663652
O   O66       1.0  0.17030  0.23320  0.04590  1.0000 -0.6558663652
O   O67       1.0  0.80170  0.26360  0.67180  1.0000 -0.9048070318
O   O68       1.0  0.80170  0.23640  0.17180  1.0000 -0.9048070318
O   O69       1.0  0.95420  0.23470  0.73870  1.0000 -0.8886549181
O   O70       1.0  0.95420  0.26530  0.23870  1.0000 -0.8886549181
O   O71       1.0  0.82360  0.25460  0.57080  1.0000 -0.8886549181
O   O72       1.0  0.82360  0.24540  0.07080  1.0000 -0.8886549181
O   O73       1.0  0.97410  0.22450  0.63740  1.0000 -1.2014996415
O   O74       1.0  0.97410  0.27550  0.13740  1.0000 -1.2014996415
O   O75       1.0  0.12370  0.19380  0.70490  1.0000 -0.8886549181
O   O76       1.0  0.12370  0.30620  0.20490  1.0000 -0.8886549181
O   O77       1.0  0.99270  0.21350  0.53840  1.0000 -0.878977359
O   O78       1.0  0.99270  0.28650  0.03840  1.0000 -0.878977359
O   O79       1.0  0.14220  0.18590  0.60440  1.0000 -0.8647250539
O   O80       1.0  0.14220  0.31410  0.10440  1.0000 -0.8657687313
O   O81       1.0  0.77710  0.18190  0.73250  1.0000 -0.6510208189
O   O82       1.0  0.77710  0.31810  0.23250  1.0000 -0.6510208189
O   O83       1.0  0.79680  0.17390  0.62980  1.0000 -0.6202946246
O   O84       1.0  0.79680  0.32610  0.12980  1.0000 -0.6202946246
O   O85       1.0  0.94920  0.14270  0.69580  1.0000 -0.6111139438
O   O86       1.0  0.94920  0.35730  0.19580  1.0000 -0.6111139438
O   O87       1.0  0.81510  0.16330  0.52700  1.0000 -0.6303856081
O   O88       1.0  0.81510  0.33670  0.02700  1.0000 -0.6303856081
O   O89       1.0  0.96550  0.13260  0.59440  1.0000 -0.6012852328
O   O90       1.0  0.96550  0.36740  0.09440  1.0000 -0.6012852328
O   O91       1.0  0.11640  0.09990  0.65920  1.0000 -0.6012852328
O   O92       1.0  0.11640  0.40010  0.15920  1.0000 -0.6012852328
O   O93       1.0  0.61090  0.77440  0.66667  1.0000 -0.6202946246
O   O94       1.0  0.61090  0.72560  0.16660  1.0000 -0.6111139438
O   O95       1.0  0.59600  0.78690  0.58340  1.0000 -0.6887205994
O   O96       1.0  0.59600  0.71310  0.08340  1.0000 -0.6887205994
O   O97       1.0  0.37700  0.66380  0.63570  1.0000 -0.6794586039
O   O98       1.0  0.37700  0.83620  0.13570  1.0000 -0.6794586039
O   O99       1.0  0.49950  0.61840  0.60470  1.0000 -0.6012852328
O   O100      1.0  0.49950  0.88160  0.10470  1.0000 -0.6012852328
O   O101      1.0  0.68250  0.68190  0.59110  1.0000 -0.5848566896
O   O102      1.0  0.68250  0.81810  0.09110  1.0000 -0.5848566896
O   O103      1.0  0.58230  0.82930  0.19510  1.0000 -0.5563733385
O   O104      1.0  0.58230  0.67070  0.69510  1.0000 -0.5563733385
O   O105      1.0  0.39920  0.77050  0.62860  1.0000 -0.6303856081
O   O106      1.0  0.39920  0.72950  0.12860  1.0000 -0.6303856081
O   O107      1.0  0.46110  0.70330  0.53300  1.0000 -0.5541602141
O   O108      1.0  0.46110  0.79670  0.03300  1.0000 -0.5541602141
