# DDEC6 charges by PACMAN v1.1 (https://github.com/mtap-research/PACMAN-charge/)
data_2007[Ni][lvt]3[FSR]1
_chemical_formula_sum              "Ni2 H12 C20 O20"
_cell_length_a       11.409
_cell_length_b       11.409
_cell_length_c       11.409
_cell_angle_alpha    143.386
_cell_angle_beta     103.121
_cell_angle_gamma    88.2994

_symmetry_space_group_name_H-M    "P 1"
_symmetry_Int_Tables_number       1

loop_
  _symmetry_equiv_pos_as_xyz
  'x, y, z'

loop_
  _atom_site_type_symbol
  _atom_site_label
  _atom_site_symmetry_multiplicity
  _atom_site_fract_x
  _atom_site_fract_y
  _atom_site_fract_z
  _atom_site_occupancy
  _atom_site_charge
Ni  Ni1       1.0  0.85324  0.00000  0.85324  1.0000 1.008027091
Ni  Ni2       1.0  0.35324  0.50000  0.85324  1.0000 1.008027091
H   H1        1.0  0.82540  0.69350  0.47970  1.0000 0.3882721656
H   H2        1.0  0.78620  0.30650  0.13190  1.0000 0.3882721656
H   H3        1.0  0.32540  0.84570  0.13190  1.0000 0.3882721656
H   H4        1.0  0.28620  0.15430  0.47970  1.0000 0.3882721656
H   H5        1.0  0.93220  0.71400  0.60540  1.0000 0.3807171874
H   H6        1.0  0.89140  0.28600  0.21820  1.0000 0.3807171874
H   H7        1.0  0.43220  0.82680  0.21820  1.0000 0.3807171874
H   H8        1.0  0.39140  0.17320  0.60540  1.0000 0.3807171874
H   H9        1.0  0.69590  0.59990  0.79580  1.0000 0.143096111
H   H10       1.0  0.19590  0.40010  0.09600  1.0000 0.143096111
H   H11       1.0  0.01060  0.40440  0.91500  1.0000 0.143096111
H   H12       1.0  0.51060  0.59560  0.60620  1.0000 0.143096111
C   C1        1.0  0.75968  0.55970  0.81938  1.0000 -0.0664639629
C   C2        1.0  0.25968  0.44030  0.19998  1.0000 -0.0664639629
C   C3        1.0  0.88008  0.60448  0.83660  1.0000 -0.0068771895
C   C4        1.0  0.23212  0.39552  0.27560  1.0000 -0.0068771895
C   C5        1.0  0.38008  0.54348  0.27560  1.0000 -0.0068771895
C   C6        1.0  0.73212  0.45652  0.83660  1.0000 -0.0068771895
C   C7        1.0  0.97438  0.54687  0.87331  1.0000 0.001454564
C   C8        1.0  0.32644  0.45313  0.42751  1.0000 0.001454564
C   C9        1.0  0.47438  0.60107  0.42751  1.0000 0.001454564
C   C10       1.0  0.82644  0.39893  0.87331  1.0000 0.001454564
C   C11       1.0  0.94672  0.44410  0.89082  1.0000 -0.0868488184
C   C12       1.0  0.44672  0.55590  0.50262  1.0000 -0.0868488184
C   C13       1.0  0.90917  0.70990  0.80987  1.0000 0.5660002075
C   C14       1.0  0.09997  0.29010  0.19927  1.0000 0.5660002075
C   C15       1.0  0.40917  0.59930  0.19927  1.0000 0.5660002075
C   C16       1.0  0.59997  0.40070  0.80987  1.0000 0.5660002075
C   C17       1.0  0.10887  0.61285  0.92162  1.0000 0.5773363852
C   C18       1.0  0.30877  0.38715  0.49602  1.0000 0.5773363852
C   C19       1.0  0.60887  0.68725  0.49602  1.0000 0.5773363852
C   C20       1.0  0.80877  0.31275  0.92162  1.0000 0.5773363852
O   O1        1.0  0.85632  0.84797  0.88695  1.0000 -0.4912954874
O   O2        1.0  0.03898  0.15203  0.00835  1.0000 -0.4912954874
O   O3        1.0  0.35632  0.46937  0.00835  1.0000 -0.4912954874
O   O4        1.0  0.53898  0.53063  0.88695  1.0000 -0.4912954874
O   O5        1.0  0.98266  0.65029  0.71263  1.0000 -0.4226581312
O   O6        1.0  0.06234  0.34971  0.33237  1.0000 -0.4226581312
O   O7        1.0  0.48266  0.77003  0.33237  1.0000 -0.4226581312
O   O8        1.0  0.56234  0.22997  0.71263  1.0000 -0.4226581312
O   O9        1.0  0.16398  0.47383  0.80635  1.0000 -0.4823096551
O   O10       1.0  0.33252  0.52617  0.69015  1.0000 -0.4823096551
O   O11       1.0  0.66398  0.85763  0.69015  1.0000 -0.4823096551
O   O12       1.0  0.83252  0.14237  0.80635  1.0000 -0.4823096551
O   O13       1.0  0.15783  0.80084  0.07953  1.0000 -0.4226581312
O   O14       1.0  0.27869  0.19916  0.35699  1.0000 -0.4226581312
O   O15       1.0  0.65783  0.57830  0.35699  1.0000 -0.4226581312
O   O16       1.0  0.77869  0.42170  0.07953  1.0000 -0.4226581312
O   O17       1.0  0.89958  0.77012  0.58350  1.0000 -0.6584351815
O   O18       1.0  0.81338  0.22988  0.12946  1.0000 -0.6584351815
O   O19       1.0  0.39958  0.81608  0.12946  1.0000 -0.6584351815
O   O20       1.0  0.31338  0.18392  0.58350  1.0000 -0.6584351815
