# DDEC6 charges by PACMAN v1.1 (https://github.com/mtap-research/PACMAN-charge/)
data_2007[Zn][nan]3[FSR]8
_chemical_formula_sum              "Zn12 H96 C200 N24 O60"
_cell_length_a       17.998
_cell_length_b       17.998
_cell_length_c       25.9577
_cell_angle_alpha    90
_cell_angle_beta     90
_cell_angle_gamma    90

_symmetry_space_group_name_H-M    "P 1"
_symmetry_Int_Tables_number       1

loop_
  _symmetry_equiv_pos_as_xyz
  'x, y, z'

loop_
  _atom_site_type_symbol
  _atom_site_label
  _atom_site_symmetry_multiplicity
  _atom_site_fract_x
  _atom_site_fract_y
  _atom_site_fract_z
  _atom_site_occupancy
  _atom_site_charge
Zn  Zn1       1.0  0.50000  0.75194  0.00000  1.0000 1.0499748546
Zn  Zn2       1.0  0.50000  0.24806  0.50000  1.0000 1.0499748546
Zn  Zn3       1.0  0.24806  0.50000  0.25000  1.0000 1.0499748546
Zn  Zn4       1.0  0.75194  0.50000  0.75000  1.0000 1.0499748546
Zn  Zn5       1.0  0.33706  0.75018  0.07541  1.0000 0.8921588022
Zn  Zn6       1.0  0.66294  0.24982  0.57541  1.0000 0.8921588022
Zn  Zn7       1.0  0.24982  0.33706  0.32541  1.0000 0.8921588022
Zn  Zn8       1.0  0.75018  0.66294  0.82541  1.0000 0.8921588022
Zn  Zn9       1.0  0.66294  0.75018  0.92459  1.0000 0.8921588022
Zn  Zn10      1.0  0.33706  0.24982  0.42459  1.0000 0.8921588022
Zn  Zn11      1.0  0.75018  0.33706  0.67459  1.0000 0.8921588022
Zn  Zn12      1.0  0.24982  0.66294  0.17459  1.0000 0.8921588022
H   H1        1.0  0.18970  0.55320  0.88350  1.0000 0.1224246492
H   H2        1.0  0.81030  0.44680  0.38350  1.0000 0.1224246492
H   H3        1.0  0.44680  0.18970  0.13350  1.0000 0.1224246492
H   H4        1.0  0.55320  0.81030  0.63350  1.0000 0.1224246492
H   H5        1.0  0.81030  0.55320  0.11650  1.0000 0.1224246492
H   H6        1.0  0.18970  0.44680  0.61650  1.0000 0.1224246492
H   H7        1.0  0.55320  0.18970  0.86650  1.0000 0.1224246492
H   H8        1.0  0.44680  0.81030  0.36650  1.0000 0.1224246492
H   H9        1.0  0.22210  0.63060  0.95130  1.0000 0.1282775332
H   H10       1.0  0.77790  0.36940  0.45130  1.0000 0.1282775332
H   H11       1.0  0.36940  0.22210  0.20130  1.0000 0.1282775332
H   H12       1.0  0.63060  0.77790  0.70130  1.0000 0.1282775332
H   H13       1.0  0.77790  0.63060  0.04870  1.0000 0.1282775332
H   H14       1.0  0.22210  0.36940  0.54870  1.0000 0.1282775332
H   H15       1.0  0.63060  0.22210  0.79870  1.0000 0.1282775332
H   H16       1.0  0.36940  0.77790  0.29870  1.0000 0.1282775332
H   H17       1.0  0.45150  0.41710  0.75360  1.0000 0.1224246492
H   H18       1.0  0.54850  0.58290  0.25360  1.0000 0.1224246492
H   H19       1.0  0.58290  0.45150  0.00360  1.0000 0.1224246492
H   H20       1.0  0.41710  0.54850  0.50360  1.0000 0.1224246492
H   H21       1.0  0.54850  0.41710  0.24640  1.0000 0.1224246492
H   H22       1.0  0.45150  0.58290  0.74640  1.0000 0.1224246492
H   H23       1.0  0.41710  0.45150  0.99640  1.0000 0.1224246492
H   H24       1.0  0.58290  0.54850  0.49640  1.0000 0.1224246492
H   H25       1.0  0.53920  0.37340  0.69440  1.0000 0.1282775332
H   H26       1.0  0.46080  0.62660  0.19440  1.0000 0.1282775332
H   H27       1.0  0.62660  0.53920  0.94440  1.0000 0.1282775332
H   H28       1.0  0.37340  0.46080  0.44440  1.0000 0.1282775332
H   H29       1.0  0.46080  0.37340  0.30560  1.0000 0.1282775332
H   H30       1.0  0.53920  0.62660  0.80560  1.0000 0.1282775332
H   H31       1.0  0.37340  0.53920  0.05560  1.0000 0.1282775332
H   H32       1.0  0.62660  0.46080  0.55560  1.0000 0.1282775332
H   H33       1.0  0.06450  0.45080  0.82940  1.0000 0.1224246492
H   H34       1.0  0.93550  0.54920  0.32940  1.0000 0.1224246492
H   H35       1.0  0.54920  0.06450  0.07940  1.0000 0.1224246492
H   H36       1.0  0.45080  0.93550  0.57940  1.0000 0.1224246492
H   H37       1.0  0.93550  0.45080  0.17060  1.0000 0.1224246492
H   H38       1.0  0.06450  0.54920  0.67060  1.0000 0.1224246492
H   H39       1.0  0.45080  0.06450  0.92060  1.0000 0.1224246492
H   H40       1.0  0.54920  0.93550  0.42060  1.0000 0.1224246492
H   H41       1.0  0.12020  0.34820  0.69600  1.0000 0.1224246492
H   H42       1.0  0.87980  0.65180  0.19600  1.0000 0.1224246492
H   H43       1.0  0.65180  0.12020  0.94600  1.0000 0.1224246492
H   H44       1.0  0.34820  0.87980  0.44600  1.0000 0.1224246492
H   H45       1.0  0.87980  0.34820  0.30400  1.0000 0.1224246492
H   H46       1.0  0.12020  0.65180  0.80400  1.0000 0.1224246492
H   H47       1.0  0.34820  0.12020  0.05400  1.0000 0.1224246492
H   H48       1.0  0.65180  0.87980  0.55400  1.0000 0.1224246492
H   H49       1.0  0.99630  0.33500  0.67580  1.0000 0.135686196
H   H50       1.0  0.00370  0.66500  0.17580  1.0000 0.135686196
H   H51       1.0  0.66500  0.99630  0.92580  1.0000 0.135686196
H   H52       1.0  0.33500  0.00370  0.42580  1.0000 0.135686196
H   H53       1.0  0.00370  0.33500  0.32420  1.0000 0.135686196
H   H54       1.0  0.99630  0.66500  0.82420  1.0000 0.135686196
H   H55       1.0  0.33500  0.99630  0.07420  1.0000 0.135686196
H   H56       1.0  0.66500  0.00370  0.57420  1.0000 0.135686196
H   H57       1.0  0.44300  0.57700  0.93360  1.0000 0.1282775332
H   H58       1.0  0.55700  0.42300  0.43360  1.0000 0.1282775332
H   H59       1.0  0.42300  0.44300  0.18360  1.0000 0.1282775332
H   H60       1.0  0.57700  0.55700  0.68360  1.0000 0.1282775332
H   H61       1.0  0.55700  0.57700  0.06640  1.0000 0.1282775332
H   H62       1.0  0.44300  0.42300  0.56640  1.0000 0.1282775332
H   H63       1.0  0.57700  0.44300  0.81640  1.0000 0.1282775332
H   H64       1.0  0.42300  0.55700  0.31640  1.0000 0.1282775332
H   H65       1.0  0.37600  0.24700  0.61960  1.0000 0.1135717292
H   H66       1.0  0.62400  0.75300  0.11960  1.0000 0.1135717292
H   H67       1.0  0.75300  0.37600  0.86960  1.0000 0.1135717292
H   H68       1.0  0.24700  0.62400  0.36960  1.0000 0.1135717292
H   H69       1.0  0.62400  0.24700  0.38040  1.0000 0.1135717292
H   H70       1.0  0.37600  0.75300  0.88040  1.0000 0.1135717292
H   H71       1.0  0.24700  0.37600  0.13040  1.0000 0.1135717292
H   H72       1.0  0.75300  0.62400  0.63040  1.0000 0.1135717292
H   H73       1.0  0.42400  0.49900  0.86800  1.0000 0.081884842
H   H74       1.0  0.57600  0.50100  0.36800  1.0000 0.081884842
H   H75       1.0  0.50100  0.42400  0.11800  1.0000 0.081884842
H   H76       1.0  0.49900  0.57600  0.61800  1.0000 0.081884842
H   H77       1.0  0.57600  0.49900  0.13200  1.0000 0.081884842
H   H78       1.0  0.42400  0.50100  0.63200  1.0000 0.081884842
H   H79       1.0  0.49900  0.42400  0.88200  1.0000 0.081884842
H   H80       1.0  0.50100  0.57600  0.38200  1.0000 0.081884842
H   H81       1.0  0.94000  0.44000  0.81300  1.0000 0.1282775332
H   H82       1.0  0.06000  0.56000  0.31300  1.0000 0.1282775332
H   H83       1.0  0.56000  0.94000  0.06300  1.0000 0.1282775332
H   H84       1.0  0.44000  0.06000  0.56300  1.0000 0.1282775332
H   H85       1.0  0.06000  0.44000  0.18700  1.0000 0.1282775332
H   H86       1.0  0.94000  0.56000  0.68700  1.0000 0.1282775332
H   H87       1.0  0.44000  0.94000  0.93700  1.0000 0.1282775332
H   H88       1.0  0.56000  0.06000  0.43700  1.0000 0.1282775332
H   H89       1.0  0.30700  0.29400  0.68200  1.0000 0.1282775332
H   H90       1.0  0.69300  0.70600  0.18200  1.0000 0.1282775332
H   H91       1.0  0.70600  0.30700  0.93200  1.0000 0.1282775332
H   H92       1.0  0.29400  0.69300  0.43200  1.0000 0.1282775332
H   H93       1.0  0.69300  0.29400  0.31800  1.0000 0.1282775332
H   H94       1.0  0.30700  0.70600  0.81800  1.0000 0.1282775332
H   H95       1.0  0.29400  0.30700  0.06800  1.0000 0.1282775332
H   H96       1.0  0.70600  0.69300  0.56800  1.0000 0.1282775332
C   C1        1.0  0.33360  0.60990  0.94880  1.0000 -0.0101764197
C   C2        1.0  0.66640  0.39010  0.44880  1.0000 -0.0101764197
C   C3        1.0  0.39010  0.33360  0.19880  1.0000 -0.0101764197
C   C4        1.0  0.60990  0.66640  0.69880  1.0000 -0.0101764197
C   C5        1.0  0.66640  0.60990  0.05120  1.0000 -0.0101764197
C   C6        1.0  0.33360  0.39010  0.55120  1.0000 -0.0101764197
C   C7        1.0  0.60990  0.33360  0.80120  1.0000 -0.0101764197
C   C8        1.0  0.39010  0.66640  0.30120  1.0000 -0.0101764197
C   C9        1.0  0.22690  0.81260  0.14080  1.0000 0.3119214546
C   C10       1.0  0.77310  0.18740  0.64080  1.0000 0.3119214546
C   C11       1.0  0.18740  0.22690  0.39080  1.0000 0.3119214546
C   C12       1.0  0.81260  0.77310  0.89080  1.0000 0.3119214546
C   C13       1.0  0.77310  0.81260  0.85920  1.0000 0.3119214546
C   C14       1.0  0.22690  0.18740  0.35920  1.0000 0.3119214546
C   C15       1.0  0.81260  0.22690  0.60920  1.0000 0.3119214546
C   C16       1.0  0.18740  0.77310  0.10920  1.0000 0.3119214546
C   C17       1.0  0.38780  0.57000  0.92341  1.0000 -0.108694065
C   C18       1.0  0.61220  0.43000  0.42341  1.0000 -0.108694065
C   C19       1.0  0.43000  0.38780  0.17341  1.0000 -0.108694065
C   C20       1.0  0.57000  0.61220  0.67341  1.0000 -0.108694065
C   C21       1.0  0.61220  0.57000  0.07659  1.0000 -0.108694065
C   C22       1.0  0.38780  0.43000  0.57659  1.0000 -0.108694065
C   C23       1.0  0.57000  0.38780  0.82659  1.0000 -0.108694065
C   C24       1.0  0.43000  0.61220  0.32659  1.0000 -0.108694065
C   C25       1.0  0.36880  0.52290  0.88358  1.0000 -0.0678268488
C   C26       1.0  0.63120  0.47710  0.38358  1.0000 -0.0678268488
C   C27       1.0  0.47710  0.36880  0.13358  1.0000 -0.0678268488
C   C28       1.0  0.52290  0.63120  0.63358  1.0000 -0.0678268488
C   C29       1.0  0.63120  0.52290  0.11642  1.0000 -0.0678268488
C   C30       1.0  0.36880  0.47710  0.61642  1.0000 -0.0678268488
C   C31       1.0  0.52290  0.36880  0.86642  1.0000 -0.0678268488
C   C32       1.0  0.47710  0.63120  0.36642  1.0000 -0.0678268488
C   C33       1.0  0.29410  0.51500  0.86910  1.0000 0.0137283255
C   C34       1.0  0.70590  0.48500  0.36910  1.0000 0.0137283255
C   C35       1.0  0.48500  0.29410  0.11910  1.0000 0.0137283255
C   C36       1.0  0.51500  0.70590  0.61910  1.0000 0.0137283255
C   C37       1.0  0.70590  0.51500  0.13090  1.0000 0.0137283255
C   C38       1.0  0.29410  0.48500  0.63090  1.0000 0.0137283255
C   C39       1.0  0.51500  0.29410  0.88090  1.0000 0.0137283255
C   C40       1.0  0.48500  0.70590  0.38090  1.0000 0.0137283255
C   C41       1.0  0.24010  0.55670  0.89400  1.0000 -0.108694065
C   C42       1.0  0.75990  0.44330  0.39400  1.0000 -0.108694065
C   C43       1.0  0.44330  0.24010  0.14400  1.0000 -0.108694065
C   C44       1.0  0.55670  0.75990  0.64400  1.0000 -0.108694065
C   C45       1.0  0.75990  0.55670  0.10600  1.0000 -0.108694065
C   C46       1.0  0.24010  0.44330  0.60600  1.0000 -0.108694065
C   C47       1.0  0.55670  0.24010  0.85600  1.0000 -0.108694065
C   C48       1.0  0.44330  0.75990  0.35600  1.0000 -0.108694065
C   C49       1.0  0.25940  0.60310  0.93390  1.0000 -0.0964801895
C   C50       1.0  0.74060  0.39690  0.43390  1.0000 -0.0964801895
C   C51       1.0  0.39690  0.25940  0.18390  1.0000 -0.0964801895
C   C52       1.0  0.60310  0.74060  0.68390  1.0000 -0.0964801895
C   C53       1.0  0.74060  0.60310  0.06610  1.0000 -0.0964801895
C   C54       1.0  0.25940  0.39690  0.56610  1.0000 -0.0964801895
C   C55       1.0  0.60310  0.25940  0.81610  1.0000 -0.0964801895
C   C56       1.0  0.39690  0.74060  0.31610  1.0000 -0.0964801895
C   C57       1.0  0.35490  0.66100  0.99171  1.0000 0.5849223692
C   C58       1.0  0.64510  0.33900  0.49171  1.0000 0.5849223692
C   C59       1.0  0.33900  0.35490  0.24171  1.0000 0.5849223692
C   C60       1.0  0.66100  0.64510  0.74171  1.0000 0.5849223692
C   C61       1.0  0.64510  0.66100  0.00829  1.0000 0.5849223692
C   C62       1.0  0.35490  0.33900  0.50829  1.0000 0.5849223692
C   C63       1.0  0.66100  0.35490  0.75829  1.0000 0.5849223692
C   C64       1.0  0.33900  0.64510  0.25829  1.0000 0.5849223692
C   C65       1.0  0.27400  0.46560  0.82510  1.0000 0.3695966486
C   C66       1.0  0.72600  0.53440  0.32510  1.0000 0.3695966486
C   C67       1.0  0.53440  0.27400  0.07510  1.0000 0.3695966486
C   C68       1.0  0.46560  0.72600  0.57510  1.0000 0.3695966486
C   C69       1.0  0.72600  0.46560  0.17490  1.0000 0.3695966486
C   C70       1.0  0.27400  0.53440  0.67490  1.0000 0.3695966486
C   C71       1.0  0.46560  0.27400  0.92490  1.0000 0.3695966486
C   C72       1.0  0.53440  0.72600  0.42490  1.0000 0.3695966486
C   C73       1.0  0.46840  0.30410  0.65517  1.0000 -0.0300755198
C   C74       1.0  0.53160  0.69590  0.15517  1.0000 -0.0300755198
C   C75       1.0  0.69590  0.46840  0.90517  1.0000 -0.0300755198
C   C76       1.0  0.30410  0.53160  0.40517  1.0000 -0.0300755198
C   C77       1.0  0.53160  0.30410  0.34483  1.0000 -0.0300755198
C   C78       1.0  0.46840  0.69590  0.84483  1.0000 -0.0300755198
C   C79       1.0  0.30410  0.46840  0.09483  1.0000 -0.0300755198
C   C80       1.0  0.69590  0.53160  0.59483  1.0000 -0.0300755198
C   C81       1.0  0.39540  0.28010  0.65300  1.0000 -0.0830808546
C   C82       1.0  0.60460  0.71990  0.15300  1.0000 -0.0830808546
C   C83       1.0  0.71990  0.39540  0.90300  1.0000 -0.0830808546
C   C84       1.0  0.28010  0.60460  0.40300  1.0000 -0.0830808546
C   C85       1.0  0.60460  0.28010  0.34700  1.0000 -0.0830808546
C   C86       1.0  0.39540  0.71990  0.84700  1.0000 -0.0830808546
C   C87       1.0  0.28010  0.39540  0.09700  1.0000 -0.0830808546
C   C88       1.0  0.71990  0.60460  0.59700  1.0000 -0.0830808546
C   C89       1.0  0.34420  0.30840  0.68690  1.0000 -0.108694065
C   C90       1.0  0.65580  0.69160  0.18690  1.0000 -0.108694065
C   C91       1.0  0.69160  0.34420  0.93690  1.0000 -0.108694065
C   C92       1.0  0.30840  0.65580  0.43690  1.0000 -0.108694065
C   C93       1.0  0.65580  0.30840  0.31310  1.0000 -0.108694065
C   C94       1.0  0.34420  0.69160  0.81310  1.0000 -0.108694065
C   C95       1.0  0.30840  0.34420  0.06310  1.0000 -0.108694065
C   C96       1.0  0.69160  0.65580  0.56310  1.0000 -0.108694065
C   C97       1.0  0.36360  0.35970  0.72450  1.0000 0.0205782085
C   C98       1.0  0.63640  0.64030  0.22450  1.0000 0.0205782085
C   C99       1.0  0.64030  0.36360  0.97450  1.0000 0.0205782085
C   C100      1.0  0.35970  0.63640  0.47450  1.0000 0.0205782085
C   C101      1.0  0.63640  0.35970  0.27550  1.0000 0.0205782085
C   C102      1.0  0.36360  0.64030  0.77550  1.0000 0.0205782085
C   C103      1.0  0.35970  0.36360  0.02550  1.0000 0.0205782085
C   C104      1.0  0.64030  0.63640  0.52550  1.0000 0.0205782085
C   C105      1.0  0.43700  0.38290  0.72760  1.0000 -0.108694065
C   C106      1.0  0.56300  0.61710  0.22760  1.0000 -0.108694065
C   C107      1.0  0.61710  0.43700  0.97760  1.0000 -0.108694065
C   C108      1.0  0.38290  0.56300  0.47760  1.0000 -0.108694065
C   C109      1.0  0.56300  0.38290  0.27240  1.0000 -0.108694065
C   C110      1.0  0.43700  0.61710  0.77240  1.0000 -0.108694065
C   C111      1.0  0.38290  0.43700  0.02240  1.0000 -0.108694065
C   C112      1.0  0.61710  0.56300  0.52240  1.0000 -0.108694065
C   C113      1.0  0.48930  0.35630  0.69280  1.0000 -0.0927837681
C   C114      1.0  0.51070  0.64370  0.19280  1.0000 -0.0927837681
C   C115      1.0  0.64370  0.48930  0.94280  1.0000 -0.0927837681
C   C116      1.0  0.35630  0.51070  0.44280  1.0000 -0.0927837681
C   C117      1.0  0.51070  0.35630  0.30720  1.0000 -0.0927837681
C   C118      1.0  0.48930  0.64370  0.80720  1.0000 -0.0927837681
C   C119      1.0  0.35630  0.48930  0.05720  1.0000 -0.0927837681
C   C120      1.0  0.64370  0.51070  0.55720  1.0000 -0.0927837681
C   C121      1.0  0.52170  0.27670  0.61580  1.0000 0.5932988558
C   C122      1.0  0.47830  0.72330  0.11580  1.0000 0.5932988558
C   C123      1.0  0.72330  0.52170  0.86580  1.0000 0.5932988558
C   C124      1.0  0.27670  0.47830  0.36580  1.0000 0.5932988558
C   C125      1.0  0.47830  0.27670  0.38420  1.0000 0.5932988558
C   C126      1.0  0.52170  0.72330  0.88420  1.0000 0.5932988558
C   C127      1.0  0.27670  0.52170  0.13420  1.0000 0.5932988558
C   C128      1.0  0.72330  0.47830  0.63420  1.0000 0.5932988558
C   C129      1.0  0.30590  0.39180  0.75810  1.0000 0.3589986112
C   C130      1.0  0.69410  0.60820  0.25810  1.0000 0.3589986112
C   C131      1.0  0.60820  0.30590  0.00810  1.0000 0.3589986112
C   C132      1.0  0.39180  0.69410  0.50810  1.0000 0.3589986112
C   C133      1.0  0.69410  0.39180  0.24190  1.0000 0.3589986112
C   C134      1.0  0.30590  0.60820  0.74190  1.0000 0.3589986112
C   C135      1.0  0.39180  0.30590  0.99190  1.0000 0.3589986112
C   C136      1.0  0.60820  0.69410  0.49190  1.0000 0.3589986112
C   C137      1.0  0.95730  0.38710  0.73940  1.0000 -0.0045013253
C   C138      1.0  0.04270  0.61290  0.23940  1.0000 -0.0045013253
C   C139      1.0  0.61290  0.95730  0.98940  1.0000 -0.0045013253
C   C140      1.0  0.38710  0.04270  0.48940  1.0000 -0.0045013253
C   C141      1.0  0.04270  0.38710  0.26060  1.0000 -0.0045013253
C   C142      1.0  0.95730  0.61290  0.76060  1.0000 -0.0045013253
C   C143      1.0  0.38710  0.95730  0.01060  1.0000 -0.0045013253
C   C144      1.0  0.61290  0.04270  0.51060  1.0000 -0.0045013253
C   C145      1.0  0.97760  0.42120  0.78570  1.0000 -0.0964801895
C   C146      1.0  0.02240  0.57880  0.28570  1.0000 -0.0964801895
C   C147      1.0  0.57880  0.97760  0.03570  1.0000 -0.0964801895
C   C148      1.0  0.42120  0.02240  0.53570  1.0000 -0.0964801895
C   C149      1.0  0.02240  0.42120  0.21430  1.0000 -0.0964801895
C   C150      1.0  0.97760  0.57880  0.71430  1.0000 -0.0964801895
C   C151      1.0  0.42120  0.97760  0.96430  1.0000 -0.0964801895
C   C152      1.0  0.57880  0.02240  0.46430  1.0000 -0.0964801895
C   C153      1.0  0.05060  0.42760  0.79790  1.0000 -0.0964801895
C   C154      1.0  0.94940  0.57240  0.29790  1.0000 -0.0964801895
C   C155      1.0  0.57240  0.05060  0.04790  1.0000 -0.0964801895
C   C156      1.0  0.42760  0.94940  0.54790  1.0000 -0.0964801895
C   C157      1.0  0.94940  0.42760  0.20210  1.0000 -0.0964801895
C   C158      1.0  0.05060  0.57240  0.70210  1.0000 -0.0964801895
C   C159      1.0  0.42760  0.05060  0.95210  1.0000 -0.0964801895
C   C160      1.0  0.57240  0.94940  0.45210  1.0000 -0.0964801895
C   C161      1.0  0.10600  0.40050  0.76470  1.0000 0.0205782085
C   C162      1.0  0.89400  0.59950  0.26470  1.0000 0.0205782085
C   C163      1.0  0.59950  0.10600  0.01470  1.0000 0.0205782085
C   C164      1.0  0.40050  0.89400  0.51470  1.0000 0.0205782085
C   C165      1.0  0.89400  0.40050  0.23530  1.0000 0.0205782085
C   C166      1.0  0.10600  0.59950  0.73530  1.0000 0.0205782085
C   C167      1.0  0.40050  0.10600  0.98530  1.0000 0.0205782085
C   C168      1.0  0.59950  0.89400  0.48530  1.0000 0.0205782085
C   C169      1.0  0.08360  0.36660  0.71910  1.0000 -0.108694065
C   C170      1.0  0.91640  0.63340  0.21910  1.0000 -0.108694065
C   C171      1.0  0.63340  0.08360  0.96910  1.0000 -0.108694065
C   C172      1.0  0.36660  0.91640  0.46910  1.0000 -0.108694065
C   C173      1.0  0.91640  0.36660  0.28090  1.0000 -0.108694065
C   C174      1.0  0.08360  0.63340  0.78090  1.0000 -0.108694065
C   C175      1.0  0.36660  0.08360  0.03090  1.0000 -0.108694065
C   C176      1.0  0.63340  0.91640  0.53090  1.0000 -0.108694065
C   C177      1.0  0.01050  0.35930  0.70680  1.0000 -0.0964801895
C   C178      1.0  0.98950  0.64070  0.20680  1.0000 -0.0964801895
C   C179      1.0  0.64070  0.01050  0.95680  1.0000 -0.0964801895
C   C180      1.0  0.35930  0.98950  0.45680  1.0000 -0.0964801895
C   C181      1.0  0.98950  0.35930  0.29320  1.0000 -0.0964801895
C   C182      1.0  0.01050  0.64070  0.79320  1.0000 -0.0964801895
C   C183      1.0  0.35930  0.01050  0.04320  1.0000 -0.0964801895
C   C184      1.0  0.64070  0.98950  0.54320  1.0000 -0.0964801895
C   C185      1.0  0.87510  0.38420  0.72644  1.0000 0.5932988558
C   C186      1.0  0.12490  0.61580  0.22644  1.0000 0.5932988558
C   C187      1.0  0.61580  0.87510  0.97644  1.0000 0.5932988558
C   C188      1.0  0.38420  0.12490  0.47644  1.0000 0.5932988558
C   C189      1.0  0.12490  0.38420  0.27356  1.0000 0.5932988558
C   C190      1.0  0.87510  0.61580  0.77356  1.0000 0.5932988558
C   C191      1.0  0.38420  0.87510  0.02356  1.0000 0.5932988558
C   C192      1.0  0.61580  0.12490  0.52356  1.0000 0.5932988558
C   C193      1.0  0.18560  0.41200  0.77660  1.0000 0.3589986112
C   C194      1.0  0.81440  0.58800  0.27660  1.0000 0.3589986112
C   C195      1.0  0.58800  0.18560  0.02660  1.0000 0.3589986112
C   C196      1.0  0.41200  0.81440  0.52660  1.0000 0.3589986112
C   C197      1.0  0.81440  0.41200  0.22340  1.0000 0.3589986112
C   C198      1.0  0.18560  0.58800  0.72340  1.0000 0.3589986112
C   C199      1.0  0.41200  0.18560  0.97340  1.0000 0.3589986112
C   C200      1.0  0.58800  0.81440  0.47340  1.0000 0.3589986112
N   N1        1.0  0.23560  0.37840  0.74690  1.0000 -0.3945768926
N   N2        1.0  0.76440  0.62160  0.24690  1.0000 -0.3945768926
N   N3        1.0  0.62160  0.23560  0.99690  1.0000 -0.3945768926
N   N4        1.0  0.37840  0.76440  0.49690  1.0000 -0.3945768926
N   N5        1.0  0.76440  0.37840  0.25310  1.0000 -0.3945768926
N   N6        1.0  0.23560  0.62160  0.75310  1.0000 -0.3945768926
N   N7        1.0  0.37840  0.23560  0.00310  1.0000 -0.3945768926
N   N8        1.0  0.62160  0.76440  0.50310  1.0000 -0.3945768926
N   N9        1.0  0.20190  0.45480  0.81646  1.0000 -0.4047989253
N   N10       1.0  0.79810  0.54520  0.31646  1.0000 -0.4047989253
N   N11       1.0  0.54520  0.20190  0.06646  1.0000 -0.4047989253
N   N12       1.0  0.45480  0.79810  0.56646  1.0000 -0.4047989253
N   N13       1.0  0.79810  0.45480  0.18354  1.0000 -0.4047989253
N   N14       1.0  0.20190  0.54520  0.68354  1.0000 -0.4047989253
N   N15       1.0  0.45480  0.20190  0.93354  1.0000 -0.4047989253
N   N16       1.0  0.54520  0.79810  0.43354  1.0000 -0.4047989253
N   N17       1.0  0.32890  0.43590  0.79758  1.0000 -0.4047989253
N   N18       1.0  0.67110  0.56410  0.29758  1.0000 -0.4047989253
N   N19       1.0  0.56410  0.32890  0.04758  1.0000 -0.4047989253
N   N20       1.0  0.43590  0.67110  0.54758  1.0000 -0.4047989253
N   N21       1.0  0.67110  0.43590  0.20242  1.0000 -0.4047989253
N   N22       1.0  0.32890  0.56410  0.70242  1.0000 -0.4047989253
N   N23       1.0  0.43590  0.32890  0.95242  1.0000 -0.4047989253
N   N24       1.0  0.56410  0.67110  0.45242  1.0000 -0.4047989253
O   O1        1.0  0.42265  0.66643  0.00216  1.0000 -0.5708952587
O   O2        1.0  0.57735  0.33357  0.50216  1.0000 -0.5708952587
O   O3        1.0  0.33357  0.42265  0.25216  1.0000 -0.5708952587
O   O4        1.0  0.66643  0.57735  0.75216  1.0000 -0.5708952587
O   O5        1.0  0.57735  0.66643  0.99784  1.0000 -0.5708952587
O   O6        1.0  0.42265  0.33357  0.49784  1.0000 -0.5708952587
O   O7        1.0  0.66643  0.42265  0.74784  1.0000 -0.5708952587
O   O8        1.0  0.33357  0.57735  0.24784  1.0000 -0.5708952587
O   O9        1.0  0.30332  0.69392  0.01581  1.0000 -0.5152455907
O   O10       1.0  0.69668  0.30608  0.51581  1.0000 -0.5152455907
O   O11       1.0  0.30608  0.30332  0.26581  1.0000 -0.5141952675
O   O12       1.0  0.69392  0.69668  0.76581  1.0000 -0.5152455907
O   O13       1.0  0.69668  0.69392  0.98419  1.0000 -0.5152455907
O   O14       1.0  0.30332  0.30608  0.48419  1.0000 -0.5141952675
O   O15       1.0  0.69392  0.30332  0.73419  1.0000 -0.5152455907
O   O16       1.0  0.30608  0.69668  0.23419  1.0000 -0.5152455907
O   O17       1.0  0.59067  0.29020  0.62349  1.0000 -0.5463674507
O   O18       1.0  0.40933  0.70980  0.12349  1.0000 -0.5463674507
O   O19       1.0  0.70980  0.59067  0.87349  1.0000 -0.5463674507
O   O20       1.0  0.29020  0.40933  0.37349  1.0000 -0.5463674507
O   O21       1.0  0.40933  0.29020  0.37651  1.0000 -0.5463674507
O   O22       1.0  0.59067  0.70980  0.87651  1.0000 -0.5463674507
O   O23       1.0  0.29020  0.59067  0.12651  1.0000 -0.5463674507
O   O24       1.0  0.70980  0.40933  0.62651  1.0000 -0.5463674507
O   O25       1.0  0.49712  0.24045  0.57924  1.0000 -0.5408871096
O   O26       1.0  0.50288  0.75955  0.07924  1.0000 -0.5408871096
O   O27       1.0  0.75955  0.49712  0.82924  1.0000 -0.5408871096
O   O28       1.0  0.24045  0.50288  0.32924  1.0000 -0.5408871096
O   O29       1.0  0.50288  0.24045  0.42076  1.0000 -0.5408871096
O   O30       1.0  0.49712  0.75955  0.92076  1.0000 -0.5408871096
O   O31       1.0  0.24045  0.49712  0.17076  1.0000 -0.5408871096
O   O32       1.0  0.75955  0.50288  0.67076  1.0000 -0.5408871096
O   O33       1.0  0.85763  0.34640  0.68619  1.0000 -0.5463674507
O   O34       1.0  0.14237  0.65360  0.18619  1.0000 -0.5408871096
O   O35       1.0  0.65360  0.85763  0.93619  1.0000 -0.5463674507
O   O36       1.0  0.34640  0.14237  0.43619  1.0000 -0.5408871096
O   O37       1.0  0.14237  0.34640  0.31381  1.0000 -0.5408871096
O   O38       1.0  0.85763  0.65360  0.81381  1.0000 -0.5463674507
O   O39       1.0  0.34640  0.85763  0.06381  1.0000 -0.5463674507
O   O40       1.0  0.65360  0.14237  0.56381  1.0000 -0.5408871096
O   O41       1.0  0.83134  0.41616  0.75494  1.0000 -0.5408871096
O   O42       1.0  0.16866  0.58384  0.25494  1.0000 -0.5408871096
O   O43       1.0  0.58384  0.83134  0.00494  1.0000 -0.5408871096
O   O44       1.0  0.41616  0.16866  0.50494  1.0000 -0.5408871096
O   O45       1.0  0.16866  0.41616  0.24506  1.0000 -0.5408871096
O   O46       1.0  0.83134  0.58384  0.74506  1.0000 -0.5408871096
O   O47       1.0  0.41616  0.83134  0.99506  1.0000 -0.5408871096
O   O48       1.0  0.58384  0.16866  0.49506  1.0000 -0.5408871096
O   O49       1.0  0.25149  0.74851  0.12500  1.0000 -0.3165553775
O   O50       1.0  0.74851  0.25149  0.62500  1.0000 -0.3165553775
O   O51       1.0  0.25149  0.25149  0.37500  1.0000 -0.3165553775
O   O52       1.0  0.74851  0.74851  0.87500  1.0000 -0.3165553775
O   O53       1.0  0.18600  0.82340  0.17770  1.0000 -0.2694333187
O   O54       1.0  0.81400  0.17660  0.67770  1.0000 -0.2611397993
O   O55       1.0  0.17660  0.18600  0.42770  1.0000 -0.2694333187
O   O56       1.0  0.82340  0.81400  0.92770  1.0000 -0.2694333187
O   O57       1.0  0.81400  0.82340  0.82230  1.0000 -0.2694333187
O   O58       1.0  0.18600  0.17660  0.32230  1.0000 -0.2694333187
O   O59       1.0  0.82340  0.18600  0.57230  1.0000 -0.2694333187
O   O60       1.0  0.17660  0.81400  0.07230  1.0000 -0.2611397993
