# DDEC6 charges by PACMAN v1.1 (https://github.com/mtap-research/PACMAN-charge/)
data_2007[Co][nan]3[FSR]1
_chemical_formula_sum              "Co20 H104 C64 O72"
_cell_length_a       17.7061
_cell_length_b       17.7061
_cell_length_c       17.7061
_cell_angle_alpha    95.9579
_cell_angle_beta     95.9579
_cell_angle_gamma    142.411

_symmetry_space_group_name_H-M    "P 1"
_symmetry_Int_Tables_number       1

loop_
  _symmetry_equiv_pos_as_xyz
  'x, y, z'

loop_
  _atom_site_type_symbol
  _atom_site_label
  _atom_site_symmetry_multiplicity
  _atom_site_fract_x
  _atom_site_fract_y
  _atom_site_fract_z
  _atom_site_occupancy
  _atom_site_charge
Co  Co1       1.0  0.42273  0.34190  0.47465  1.0000 1.0724647544
Co  Co2       1.0  0.19808  0.17273  0.58083  1.0000 1.0724647544
Co  Co3       1.0  0.59190  0.61725  0.41917  1.0000 1.0724647544
Co  Co4       1.0  0.86725  0.94808  0.52535  1.0000 1.0724647544
Co  Co5       1.0  0.82727  0.40810  0.02535  1.0000 1.0724647544
Co  Co6       1.0  0.05192  0.57727  0.91917  1.0000 1.0724647544
Co  Co7       1.0  0.65810  0.13275  0.08083  1.0000 1.0724647544
Co  Co8       1.0  0.38275  0.80192  0.97465  1.0000 1.0724647544
Co  Co9       1.0  0.65808  0.49670  0.41648  1.0000 1.0196515224
Co  Co10      1.0  0.49160  0.40808  0.66138  1.0000 1.0196515224
Co  Co11      1.0  0.74670  0.83022  0.33862  1.0000 1.0196515224
Co  Co12      1.0  0.08022  0.24160  0.58352  1.0000 1.0196515224
Co  Co13      1.0  0.59192  0.25330  0.08352  1.0000 1.0196515224
Co  Co14      1.0  0.75840  0.34192  0.83862  1.0000 1.0196515224
Co  Co15      1.0  0.50330  0.91978  0.16138  1.0000 1.0196515224
Co  Co16      1.0  0.16978  0.50840  0.91648  1.0000 1.0196515224
Co  Co17      1.0  0.62500  0.37500  0.75000  1.0000 1.0388365887
Co  Co18      1.0  0.12500  0.37500  0.75000  1.0000 1.0388365887
Co  Co19      1.0  0.62500  0.37500  0.25000  1.0000 1.0388365887
Co  Co20      1.0  0.62500  0.87500  0.25000  1.0000 1.0388365887
H   H1        1.0  0.35560  0.19710  0.55650  1.0000 0.421695856
H   H2        1.0  0.04910  0.10560  0.65850  1.0000 0.421695856
H   H3        1.0  0.44710  0.39060  0.34150  1.0000 0.421695856
H   H4        1.0  0.64060  0.79910  0.44350  1.0000 0.421695856
H   H5        1.0  0.89440  0.55290  0.94350  1.0000 0.421695856
H   H6        1.0  0.20090  0.64440  0.84150  1.0000 0.421695856
H   H7        1.0  0.80290  0.35940  0.15850  1.0000 0.421695856
H   H8        1.0  0.60940  0.95090  0.05650  1.0000 0.421695856
H   H9        1.0  0.63740  0.74890  0.65070  1.0000 0.1804635427
H   H10       1.0  0.23670  0.38740  0.38850  1.0000 0.1804635427
H   H11       1.0  0.99890  0.84820  0.61150  1.0000 0.1804635427
H   H12       1.0  0.09820  0.98670  0.34930  1.0000 0.1804635427
H   H13       1.0  0.61260  0.00110  0.84930  1.0000 0.1804635427
H   H14       1.0  0.01330  0.36260  0.11150  1.0000 0.1804635427
H   H15       1.0  0.25110  0.90180  0.88850  1.0000 0.1804635427
H   H16       1.0  0.15180  0.76330  0.15070  1.0000 0.1804635427
H   H17       1.0  0.49070  0.63440  0.64730  1.0000 0.1675277094
H   H18       1.0  0.09340  0.24070  0.35630  1.0000 0.1675277094
H   H19       1.0  0.88440  0.73710  0.64370  1.0000 0.1675277094
H   H20       1.0  0.98710  0.84340  0.35270  1.0000 0.1675277094
H   H21       1.0  0.75930  0.11560  0.85270  1.0000 0.1675277094
H   H22       1.0  0.15660  0.50930  0.14370  1.0000 0.1675277094
H   H23       1.0  0.36560  0.01290  0.85630  1.0000 0.1675277094
H   H24       1.0  0.26290  0.90660  0.14730  1.0000 0.1675277094
H   H25       1.0  0.58080  0.64450  0.69210  1.0000 0.1675277094
H   H26       1.0  0.13870  0.33080  0.43630  1.0000 0.1675277094
H   H27       1.0  0.89450  0.70240  0.56370  1.0000 0.1675277094
H   H28       1.0  0.95240  0.88870  0.30790  1.0000 0.1675277094
H   H29       1.0  0.66920  0.10550  0.80790  1.0000 0.1675277094
H   H30       1.0  0.11130  0.41920  0.06370  1.0000 0.1675277094
H   H31       1.0  0.35550  0.04760  0.93630  1.0000 0.1675277094
H   H32       1.0  0.29760  0.86130  0.19210  1.0000 0.1675277094
H   H33       1.0  0.77760  0.46220  0.54560  1.0000 0.1675277094
H   H34       1.0  0.48200  0.52760  0.81540  1.0000 0.1675277094
H   H35       1.0  0.71220  0.66667  0.18460  1.0000 0.1675277094
H   H36       1.0  0.91660  0.23200  0.45440  1.0000 0.1675277094
H   H37       1.0  0.47240  0.28780  0.95440  1.0000 0.1675277094
H   H38       1.0  0.76800  0.22240  0.68460  1.0000 0.1675277094
H   H39       1.0  0.53780  0.08340  0.31540  1.0000 0.1675277094
H   H40       1.0  0.33340  0.51800  0.04560  1.0000 0.1675277094
H   H41       1.0  0.74660  0.41150  0.62010  1.0000 0.1675277094
H   H42       1.0  0.37650  0.49660  0.83510  1.0000 0.1675277094
H   H43       1.0  0.66150  0.54140  0.16490  1.0000 0.1675277094
H   H44       1.0  0.79140  0.12650  0.37990  1.0000 0.1675277094
H   H45       1.0  0.50340  0.33850  0.87990  1.0000 0.1675277094
H   H46       1.0  0.87350  0.25340  0.66490  1.0000 0.1675277094
H   H47       1.0  0.58850  0.20860  0.33510  1.0000 0.1675277094
H   H48       1.0  0.45860  0.62350  0.12010  1.0000 0.1675277094
H   H49       1.0  0.64770  0.31370  0.53440  1.0000 0.1804635427
H   H50       1.0  0.36330  0.39770  0.83400  1.0000 0.1804635427
H   H51       1.0  0.56370  0.52930  0.16600  1.0000 0.1804635427
H   H52       1.0  0.77930  0.11330  0.46560  1.0000 0.1804635427
H   H53       1.0  0.60230  0.43630  0.96560  1.0000 0.1804635427
H   H54       1.0  0.88670  0.35230  0.66600  1.0000 0.1804635427
H   H55       1.0  0.68630  0.22070  0.33400  1.0000 0.1804635427
H   H56       1.0  0.47070  0.63670  0.03440  1.0000 0.1804635427
H   H57       1.0  0.23890  0.04080  0.77750  1.0000 0.1609532577
H   H58       1.0  0.71140  0.98890  0.69810  1.0000 0.1609532577
H   H59       1.0  0.29080  0.01330  0.30190  1.0000 0.1609532577
H   H60       1.0  0.26330  0.46140  0.22250  1.0000 0.1609532577
H   H61       1.0  0.01110  0.70920  0.72250  1.0000 0.1609532577
H   H62       1.0  0.53860  0.76110  0.80190  1.0000 0.1609532577
H   H63       1.0  0.95920  0.73670  0.19810  1.0000 0.1609532577
H   H64       1.0  0.98670  0.28860  0.27750  1.0000 0.1609532577
H   H65       1.0  0.26840  0.01110  0.70890  1.0000 0.1675277094
H   H66       1.0  0.80950  0.01840  0.75730  1.0000 0.1675277094
H   H67       1.0  0.26110  0.05220  0.24270  1.0000 0.1675277094
H   H68       1.0  0.30220  0.55950  0.29110  1.0000 0.1675277094
H   H69       1.0  0.98160  0.73890  0.79110  1.0000 0.1675277094
H   H70       1.0  0.44050  0.73160  0.74270  1.0000 0.1675277094
H   H71       1.0  0.98890  0.69780  0.25730  1.0000 0.1675277094
H   H72       1.0  0.94780  0.19050  0.20890  1.0000 0.1675277094
H   H73       1.0  0.38200  0.13060  0.78560  1.0000 0.1609532577
H   H74       1.0  0.84640  0.13200  0.75140  1.0000 0.1609532577
H   H75       1.0  0.38060  0.09500  0.24860  1.0000 0.1609532577
H   H76       1.0  0.34500  0.59640  0.21440  1.0000 0.1609532577
H   H77       1.0  0.86800  0.61940  0.71440  1.0000 0.1609532577
H   H78       1.0  0.40360  0.61800  0.74860  1.0000 0.1609532577
H   H79       1.0  0.86940  0.65500  0.25140  1.0000 0.1609532577
H   H80       1.0  0.90500  0.15360  0.28560  1.0000 0.1609532577
H   H81       1.0  0.84700  0.74030  0.91970  1.0000 0.1609532577
H   H82       1.0  0.17730  0.59700  0.60670  1.0000 0.1609532577
H   H83       1.0  0.99030  0.57060  0.39330  1.0000 0.1609532577
H   H84       1.0  0.82060  0.92730  0.08030  1.0000 0.1609532577
H   H85       1.0  0.40300  0.00970  0.58030  1.0000 0.1609532577
H   H86       1.0  0.07270  0.15300  0.89330  1.0000 0.1609532577
H   H87       1.0  0.25970  0.17940  0.10670  1.0000 0.1609532577
H   H88       1.0  0.42940  0.82270  0.41970  1.0000 0.1609532577
H   H89       1.0  0.84940  0.79820  0.85700  1.0000 0.1675277094
H   H90       1.0  0.24240  0.59940  0.55120  1.0000 0.1675277094
H   H91       1.0  0.04820  0.69120  0.44880  1.0000 0.1675277094
H   H92       1.0  0.94120  0.99240  0.14300  1.0000 0.1675277094
H   H93       1.0  0.40060  0.95180  0.64300  1.0000 0.1675277094
H   H94       1.0  0.00760  0.15060  0.94880  1.0000 0.1675277094
H   H95       1.0  0.20180  0.05880  0.05120  1.0000 0.1675277094
H   H96       1.0  0.30880  0.75760  0.35700  1.0000 0.1675277094
H   H97       1.0  0.74320  0.72090  0.90090  1.0000 0.1609532577
H   H98       1.0  0.09230  0.49320  0.52230  1.0000 0.1609532577
H   H99       1.0  0.97090  0.57000  0.47770  1.0000 0.1609532577
H   H100      1.0  0.82000  0.84230  0.09910  1.0000 0.1609532577
H   H101      1.0  0.50680  0.02910  0.59910  1.0000 0.1609532577
H   H102      1.0  0.15770  0.25680  0.97770  1.0000 0.1609532577
H   H103      1.0  0.27910  0.18000  0.02230  1.0000 0.1609532577
H   H104      1.0  0.43000  0.90770  0.40090  1.0000 0.1609532577
C   C1        1.0  0.52690  0.57800  0.57190  1.0000 0.7113854601
C   C2        1.0  0.20500  0.27690  0.44890  1.0000 0.7113854601
C   C3        1.0  0.82800  0.75610  0.55110  1.0000 0.7113854601
C   C4        1.0  0.00610  0.95500  0.42810  1.0000 0.7113854601
C   C5        1.0  0.72310  0.17200  0.92810  1.0000 0.7113854601
C   C6        1.0  0.04500  0.47310  0.05110  1.0000 0.7113854601
C   C7        1.0  0.42200  0.99390  0.94890  1.0000 0.7113854601
C   C8        1.0  0.24390  0.79500  0.07190  1.0000 0.7113854601
C   C9        1.0  0.56210  0.65870  0.64720  1.0000 -0.5906928627
C   C10       1.0  0.16490  0.31210  0.40340  1.0000 -0.5906928627
C   C11       1.0  0.90870  0.76150  0.59660  1.0000 -0.5906928627
C   C12       1.0  0.01150  0.91490  0.35280  1.0000 -0.5906928627
C   C13       1.0  0.68790  0.09130  0.85280  1.0000 -0.5906928627
C   C14       1.0  0.08510  0.43790  0.09660  1.0000 -0.5906928627
C   C15       1.0  0.34130  0.98850  0.90340  1.0000 -0.5906928627
C   C16       1.0  0.23850  0.83510  0.14720  1.0000 -0.5906928627
C   C17       1.0  0.64220  0.42080  0.57840  1.0000 0.7258515857
C   C18       1.0  0.31380  0.39220  0.72140  1.0000 0.7258515857
C   C19       1.0  0.67080  0.59240  0.27860  1.0000 0.7258515857
C   C20       1.0  0.84240  0.06380  0.42160  1.0000 0.7258515857
C   C21       1.0  0.60780  0.32920  0.92160  1.0000 0.7258515857
C   C22       1.0  0.93620  0.35780  0.77860  1.0000 0.7258515857
C   C23       1.0  0.57920  0.15760  0.22140  1.0000 0.7258515857
C   C24       1.0  0.40760  0.68620  0.07840  1.0000 0.7258515857
C   C25       1.0  0.70980  0.40020  0.56880  1.0000 -0.5906928627
C   C26       1.0  0.39100  0.45980  0.80960  1.0000 -0.5906928627
C   C27       1.0  0.65020  0.58140  0.19040  1.0000 -0.5906928627
C   C28       1.0  0.83140  0.14100  0.43120  1.0000 -0.5906928627
C   C29       1.0  0.54020  0.34980  0.93120  1.0000 -0.5906928627
C   C30       1.0  0.85900  0.29020  0.69040  1.0000 -0.5906928627
C   C31       1.0  0.59980  0.16860  0.30960  1.0000 -0.5906928627
C   C32       1.0  0.41860  0.60900  0.06880  1.0000 -0.5906928627
C   C33       1.0  0.32080  0.16290  0.71010  1.0000 0.7113854601
C   C34       1.0  0.86070  0.07080  0.65790  1.0000 0.7113854601
C   C35       1.0  0.41290  0.20280  0.34210  1.0000 0.7113854601
C   C36       1.0  0.45280  0.61070  0.28990  1.0000 0.7113854601
C   C37       1.0  0.92920  0.58710  0.78990  1.0000 0.7113854601
C   C38       1.0  0.38930  0.67920  0.84210  1.0000 0.7113854601
C   C39       1.0  0.83710  0.54720  0.15790  1.0000 0.7113854601
C   C40       1.0  0.79720  0.13930  0.21010  1.0000 0.7113854601
C   C41       1.0  0.30080  0.07880  0.74900  1.0000 -0.5950425961
C   C42       1.0  0.80180  0.05080  0.72200  1.0000 -0.5950425961
C   C43       1.0  0.32880  0.07980  0.27800  1.0000 -0.5950425961
C   C44       1.0  0.32980  0.55180  0.25100  1.0000 -0.5906928627
C   C45       1.0  0.94920  0.67120  0.75100  1.0000 -0.5950425961
C   C46       1.0  0.44820  0.69920  0.77800  1.0000 -0.5906928627
C   C47       1.0  0.92120  0.67020  0.22200  1.0000 -0.5906928627
C   C48       1.0  0.92020  0.19820  0.24900  1.0000 -0.5906928627
C   C49       1.0  0.70570  0.60240  0.81350  1.0000 0.6993273995
C   C50       1.0  0.14220  0.45570  0.60330  1.0000 0.6993273995
C   C51       1.0  0.85240  0.53890  0.39670  1.0000 0.6993273995
C   C52       1.0  0.78890  0.89220  0.18650  1.0000 0.6993273995
C   C53       1.0  0.54430  0.14760  0.68650  1.0000 0.6993273995
C   C54       1.0  0.10780  0.29430  0.89670  1.0000 0.6993273995
C   C55       1.0  0.39760  0.21110  0.10330  1.0000 0.6993273995
C   C56       1.0  0.46110  0.85780  0.31350  1.0000 0.6993273995
C   C57       1.0  0.79440  0.72670  0.87870  1.0000 -0.5805611298
C   C58       1.0  0.16570  0.54440  0.56770  1.0000 -0.5805611298
C   C59       1.0  0.97670  0.59800  0.43230  1.0000 -0.5805611298
C   C60       1.0  0.84800  0.91570  0.12130  1.0000 -0.5805611298
C   C61       1.0  0.45560  0.02330  0.62130  1.0000 -0.5805611298
C   C62       1.0  0.08430  0.20560  0.93230  1.0000 -0.5805611298
C   C63       1.0  0.27330  0.15200  0.06770  1.0000 -0.5805611298
C   C64       1.0  0.40200  0.83430  0.37870  1.0000 -0.5805611298
O   O1        1.0  0.51193  0.49521  0.57514  1.0000 -0.5906928627
O   O2        1.0  0.18679  0.26193  0.51672  1.0000 -0.5906928627
O   O3        1.0  0.74521  0.67007  0.48328  1.0000 -0.5906928627
O   O4        1.0  0.92007  0.93679  0.42486  1.0000 -0.5906928627
O   O5        1.0  0.73807  0.25479  0.92486  1.0000 -0.5906928627
O   O6        1.0  0.06321  0.48807  0.98328  1.0000 -0.5906928627
O   O7        1.0  0.50479  0.07993  0.01672  1.0000 -0.5906928627
O   O8        1.0  0.32993  0.81321  0.07514  1.0000 -0.5906928627
O   O9        1.0  0.51090  0.59290  0.50740  1.0000 -0.5380975105
O   O10       1.0  0.25350  0.26090  0.41800  1.0000 -0.5380975105
O   O11       1.0  0.84290  0.83550  0.58200  1.0000 -0.5380975105
O   O12       1.0  0.08550  0.00350  0.49260  1.0000 -0.5380975105
O   O13       1.0  0.73910  0.15710  0.99260  1.0000 -0.5380975105
O   O14       1.0  0.99650  0.48910  0.08200  1.0000 -0.5380975105
O   O15       1.0  0.40710  0.91450  0.91800  1.0000 -0.5380975105
O   O16       1.0  0.16450  0.74650  0.00740  1.0000 -0.5380975105
O   O17       1.0  0.60660  0.43080  0.52040  1.0000 -0.5805611298
O   O18       1.0  0.33620  0.35660  0.67580  1.0000 -0.5805611298
O   O19       1.0  0.68080  0.66040  0.32420  1.0000 -0.5805611298
O   O20       1.0  0.91040  0.08620  0.47960  1.0000 -0.5805611298
O   O21       1.0  0.64340  0.31920  0.97960  1.0000 -0.5805611298
O   O22       1.0  0.91380  0.39340  0.82420  1.0000 -0.5805611298
O   O23       1.0  0.56920  0.08960  0.17580  1.0000 -0.5805611298
O   O24       1.0  0.33960  0.66380  0.02040  1.0000 -0.5805611298
O   O25       1.0  0.62319  0.42650  0.64449  1.0000 -0.5906928627
O   O26       1.0  0.22870  0.37319  0.69669  1.0000 -0.5906928627
O   O27       1.0  0.67650  0.53201  0.30331  1.0000 -0.5906928627
O   O28       1.0  0.78201  0.97870  0.35551  1.0000 -0.5906928627
O   O29       1.0  0.62681  0.32350  0.85551  1.0000 -0.5906928627
O   O30       1.0  0.02130  0.37681  0.80331  1.0000 -0.5906928627
O   O31       1.0  0.57350  0.21799  0.19669  1.0000 -0.5906928627
O   O32       1.0  0.46799  0.77130  0.14449  1.0000 -0.5906928627
O   O33       1.0  0.44029  0.28200  0.72289  1.0000 -0.6360821822
O   O34       1.0  0.96740  0.19029  0.65829  1.0000 -0.6360821822
O   O35       1.0  0.53200  0.30911  0.34171  1.0000 -0.6360821822
O   O36       1.0  0.55911  0.71740  0.27711  1.0000 -0.6360821822
O   O37       1.0  0.80971  0.46800  0.77711  1.0000 -0.6360821822
O   O38       1.0  0.28260  0.55971  0.84171  1.0000 -0.6360821822
O   O39       1.0  0.71800  0.44089  0.15829  1.0000 -0.6360821822
O   O40       1.0  0.69089  0.03260  0.22289  1.0000 -0.6360821822
O   O41       1.0  0.22490  0.11710  0.66840  1.0000 -0.5526442923
O   O42       1.0  0.80650  0.97490  0.60780  1.0000 -0.5526442923
O   O43       1.0  0.36710  0.19870  0.39220  1.0000 -0.5526442923
O   O44       1.0  0.44870  0.55650  0.33160  1.0000 -0.5526442923
O   O45       1.0  0.02510  0.63290  0.83160  1.0000 -0.5526442923
O   O46       1.0  0.44350  0.77510  0.89220  1.0000 -0.5526442923
O   O47       1.0  0.88290  0.55130  0.10780  1.0000 -0.5526442923
O   O48       1.0  0.80130  0.19350  0.16840  1.0000 -0.5526442923
O   O49       1.0  0.62840  0.56970  0.75550  1.0000 -0.5707420506
O   O50       1.0  0.12290  0.37840  0.55870  1.0000 -0.5707420506
O   O51       1.0  0.81970  0.56420  0.44130  1.0000 -0.5707420506
O   O52       1.0  0.81420  0.87290  0.24450  1.0000 -0.5707420506
O   O53       1.0  0.62160  0.18030  0.74450  1.0000 -0.5707420506
O   O54       1.0  0.12710  0.37160  0.94130  1.0000 -0.5707420506
O   O55       1.0  0.43030  0.18580  0.05870  1.0000 -0.5707420506
O   O56       1.0  0.43580  0.87710  0.25550  1.0000 -0.5707420506
O   O57       1.0  0.71550  0.54040  0.82050  1.0000 -0.5707420506
O   O58       1.0  0.14500  0.46550  0.67510  1.0000 -0.5707420506
O   O59       1.0  0.79040  0.46990  0.32490  1.0000 -0.5707420506
O   O60       1.0  0.71990  0.89500  0.17950  1.0000 -0.5707420506
O   O61       1.0  0.53450  0.20960  0.67950  1.0000 -0.5707420506
O   O62       1.0  0.10500  0.28450  0.82490  1.0000 -0.5707420506
O   O63       1.0  0.45960  0.28010  0.17510  1.0000 -0.5707420506
O   O64       1.0  0.53010  0.85500  0.32050  1.0000 -0.5707420506
O   O65       1.0  0.35825  0.25481  0.55946  1.0000 -0.9060171791
O   O66       1.0  0.04879  0.10825  0.60344  1.0000 -0.9060171791
O   O67       1.0  0.50481  0.44535  0.39656  1.0000 -0.9060171791
O   O68       1.0  0.69535  0.79879  0.44054  1.0000 -0.9060171791
O   O69       1.0  0.89175  0.49519  0.94054  1.0000 -0.9060171791
O   O70       1.0  0.20121  0.64175  0.89656  1.0000 -0.9060171791
O   O71       1.0  0.74519  0.30465  0.10344  1.0000 -0.9060171791
O   O72       1.0  0.55465  0.95121  0.05946  1.0000 -0.9060171791
