# DDEC6 charges by PACMAN v1.1 (https://github.com/mtap-research/PACMAN-charge/)
data_2007[Cd][thp]3[FSR]1
_chemical_formula_sum              "Cd18 C48 O96"
_cell_length_a       16.0371
_cell_length_b       16.0371
_cell_length_c       16.0371
_cell_angle_alpha    109.471
_cell_angle_beta     109.471
_cell_angle_gamma    109.471

_symmetry_space_group_name_H-M    "P 1"
_symmetry_Int_Tables_number       1

loop_
  _symmetry_equiv_pos_as_xyz
  'x, y, z'

loop_
  _atom_site_type_symbol
  _atom_site_label
  _atom_site_symmetry_multiplicity
  _atom_site_fract_x
  _atom_site_fract_y
  _atom_site_fract_z
  _atom_site_occupancy
  _atom_site_charge
Cd  Cd1       1.0  0.62500  0.37500  0.25000  1.0000 1.1051074117
Cd  Cd2       1.0  0.87500  0.12500  0.75000  1.0000 1.0996100277
Cd  Cd3       1.0  0.25000  0.62500  0.37500  1.0000 1.0996100277
Cd  Cd4       1.0  0.75000  0.87500  0.12500  1.0000 1.0996100277
Cd  Cd5       1.0  0.37500  0.25000  0.62500  1.0000 1.0996100277
Cd  Cd6       1.0  0.12500  0.75000  0.87500  1.0000 1.0996100277
Cd  Cd7       1.0  0.83240  0.58240  0.25000  1.0000 1.0784046203
Cd  Cd8       1.0  0.66760  0.91760  0.75000  1.0000 1.0784046203
Cd  Cd9       1.0  0.25000  0.83240  0.58240  1.0000 1.0784046203
Cd  Cd10      1.0  0.75000  0.66760  0.91760  1.0000 1.0784046203
Cd  Cd11      1.0  0.58240  0.25000  0.83240  1.0000 1.0784046203
Cd  Cd12      1.0  0.91760  0.75000  0.66760  1.0000 1.0784046203
Cd  Cd13      1.0  0.08240  0.33240  0.75000  1.0000 1.0784046203
Cd  Cd14      1.0  0.41760  0.16760  0.25000  1.0000 1.0784046203
Cd  Cd15      1.0  0.33240  0.75000  0.08240  1.0000 1.0784046203
Cd  Cd16      1.0  0.16760  0.25000  0.41760  1.0000 1.0784046203
Cd  Cd17      1.0  0.75000  0.08240  0.33240  1.0000 1.0784046203
Cd  Cd18      1.0  0.25000  0.41760  0.16760  1.0000 1.0784046203
C   C1        1.0  0.65190  0.36270  0.05720  1.0000 0.5146984698
C   C2        1.0  0.80550  0.59470  0.44280  1.0000 0.5146984698
C   C3        1.0  0.69450  0.13730  0.78920  1.0000 0.5146984698
C   C4        1.0  0.84810  0.90530  0.71080  1.0000 0.5146984698
C   C5        1.0  0.05720  0.65190  0.36270  1.0000 0.5146984698
C   C6        1.0  0.44280  0.80550  0.59470  1.0000 0.5146984698
C   C7        1.0  0.78920  0.69450  0.13730  1.0000 0.5146984698
C   C8        1.0  0.71080  0.84810  0.90530  1.0000 0.5146984698
C   C9        1.0  0.36270  0.05720  0.65190  1.0000 0.5146984698
C   C10       1.0  0.59470  0.44280  0.80550  1.0000 0.5146984698
C   C11       1.0  0.13730  0.78920  0.69450  1.0000 0.5156503171
C   C12       1.0  0.90530  0.71080  0.84810  1.0000 0.5146984698
C   C13       1.0  0.86270  0.15190  0.55720  1.0000 0.5146984698
C   C14       1.0  0.09470  0.30550  0.94280  1.0000 0.5146984698
C   C15       1.0  0.63730  0.19450  0.28920  1.0000 0.5146984698
C   C16       1.0  0.40530  0.34810  0.21080  1.0000 0.5146984698
C   C17       1.0  0.15190  0.55720  0.86270  1.0000 0.5146984698
C   C18       1.0  0.30550  0.94280  0.09470  1.0000 0.5146984698
C   C19       1.0  0.19450  0.28920  0.63730  1.0000 0.5146984698
C   C20       1.0  0.34810  0.21080  0.40530  1.0000 0.5146984698
C   C21       1.0  0.55720  0.86270  0.15190  1.0000 0.5146984698
C   C22       1.0  0.94280  0.09470  0.30550  1.0000 0.5146984698
C   C23       1.0  0.28920  0.63730  0.19450  1.0000 0.5146984698
C   C24       1.0  0.21080  0.40530  0.34810  1.0000 0.5146984698
C   C25       1.0  0.55750  0.26080  0.01370  1.0000 0.5040607713
C   C26       1.0  0.74710  0.54380  0.48630  1.0000 0.5040607713
C   C27       1.0  0.75290  0.23920  0.79670  1.0000 0.5040607713
C   C28       1.0  0.94250  0.95620  0.70330  1.0000 0.5040607713
C   C29       1.0  0.01370  0.55750  0.26080  1.0000 0.5040607713
C   C30       1.0  0.48630  0.74710  0.54380  1.0000 0.5040607713
C   C31       1.0  0.79670  0.75290  0.23920  1.0000 0.5040607713
C   C32       1.0  0.70330  0.94250  0.95620  1.0000 0.5040607713
C   C33       1.0  0.26080  0.01370  0.55750  1.0000 0.5040607713
C   C34       1.0  0.54380  0.48630  0.74710  1.0000 0.5040607713
C   C35       1.0  0.23920  0.79670  0.75290  1.0000 0.5040607713
C   C36       1.0  0.95620  0.70330  0.94250  1.0000 0.5040607713
C   C37       1.0  0.76080  0.05750  0.51370  1.0000 0.5040607713
C   C38       1.0  0.04380  0.24710  0.98630  1.0000 0.5040607713
C   C39       1.0  0.73920  0.25290  0.29670  1.0000 0.5040607713
C   C40       1.0  0.45620  0.44250  0.20330  1.0000 0.5040607713
C   C41       1.0  0.05750  0.51370  0.76080  1.0000 0.5040607713
C   C42       1.0  0.24710  0.98630  0.04380  1.0000 0.5040607713
C   C43       1.0  0.25290  0.29670  0.73920  1.0000 0.5040607713
C   C44       1.0  0.44250  0.20330  0.45620  1.0000 0.5040607713
C   C45       1.0  0.51370  0.76080  0.05750  1.0000 0.5040607713
C   C46       1.0  0.98630  0.04380  0.24710  1.0000 0.5040607713
C   C47       1.0  0.29670  0.73920  0.25290  1.0000 0.5040607713
C   C48       1.0  0.20330  0.45620  0.44250  1.0000 0.5040607713
O   O1        1.0  0.69210  0.42510  0.15060  1.0000 -0.4780405375
O   O2        1.0  0.77450  0.54150  0.34940  1.0000 -0.4780405375
O   O3        1.0  0.72550  0.07490  0.76700  1.0000 -0.4780405375
O   O4        1.0  0.80790  0.95850  0.73300  1.0000 -0.4780405375
O   O5        1.0  0.15060  0.69210  0.42510  1.0000 -0.4780405375
O   O6        1.0  0.34940  0.77450  0.54150  1.0000 -0.4780405375
O   O7        1.0  0.76700  0.72550  0.07490  1.0000 -0.4780405375
O   O8        1.0  0.73300  0.80790  0.95850  1.0000 -0.4780405375
O   O9        1.0  0.42510  0.15060  0.69210  1.0000 -0.4780405375
O   O10       1.0  0.54150  0.34940  0.77450  1.0000 -0.4780405375
O   O11       1.0  0.07490  0.76700  0.72550  1.0000 -0.4780405375
O   O12       1.0  0.95850  0.73300  0.80790  1.0000 -0.4780405375
O   O13       1.0  0.92510  0.19210  0.65060  1.0000 -0.4780405375
O   O14       1.0  0.04150  0.27450  0.84940  1.0000 -0.4780405375
O   O15       1.0  0.57490  0.22550  0.26700  1.0000 -0.4780405375
O   O16       1.0  0.45850  0.30790  0.23300  1.0000 -0.4780405375
O   O17       1.0  0.19210  0.65060  0.92510  1.0000 -0.4780405375
O   O18       1.0  0.27450  0.84940  0.04150  1.0000 -0.4780405375
O   O19       1.0  0.22550  0.26700  0.57490  1.0000 -0.4780405375
O   O20       1.0  0.30790  0.23300  0.45850  1.0000 -0.4780405375
O   O21       1.0  0.65060  0.92510  0.19210  1.0000 -0.4780405375
O   O22       1.0  0.84940  0.04150  0.27450  1.0000 -0.4780405375
O   O23       1.0  0.26700  0.57490  0.22550  1.0000 -0.4780405375
O   O24       1.0  0.23300  0.45850  0.30790  1.0000 -0.4780405375
O   O25       1.0  0.52890  0.24800  0.07450  1.0000 -0.4705407769
O   O26       1.0  0.67350  0.45440  0.42550  1.0000 -0.4705407769
O   O27       1.0  0.82650  0.25200  0.78090  1.0000 -0.4705407769
O   O28       1.0  0.97110  0.04560  0.71910  1.0000 -0.4705407769
O   O29       1.0  0.07450  0.52890  0.24800  1.0000 -0.4705407769
O   O30       1.0  0.42550  0.67350  0.45440  1.0000 -0.4705407769
O   O31       1.0  0.78090  0.82650  0.25200  1.0000 -0.4705407769
O   O32       1.0  0.71910  0.97110  0.04560  1.0000 -0.4705407769
O   O33       1.0  0.24800  0.07450  0.52890  1.0000 -0.4705407769
O   O34       1.0  0.45440  0.42550  0.67350  1.0000 -0.4705407769
O   O35       1.0  0.25200  0.78090  0.82650  1.0000 -0.4705407769
O   O36       1.0  0.04560  0.71910  0.97110  1.0000 -0.4705407769
O   O37       1.0  0.74800  0.02890  0.57450  1.0000 -0.4705407769
O   O38       1.0  0.95440  0.17350  0.92550  1.0000 -0.4705407769
O   O39       1.0  0.75200  0.32650  0.28090  1.0000 -0.4705407769
O   O40       1.0  0.54560  0.47110  0.21910  1.0000 -0.4705407769
O   O41       1.0  0.02890  0.57450  0.74800  1.0000 -0.4705407769
O   O42       1.0  0.17350  0.92550  0.95440  1.0000 -0.4705407769
O   O43       1.0  0.32650  0.28090  0.75200  1.0000 -0.4705407769
O   O44       1.0  0.47110  0.21910  0.54560  1.0000 -0.4705407769
O   O45       1.0  0.57450  0.74800  0.02890  1.0000 -0.4705407769
O   O46       1.0  0.92550  0.95440  0.17350  1.0000 -0.4705407769
O   O47       1.0  0.28090  0.75200  0.32650  1.0000 -0.4705407769
O   O48       1.0  0.21910  0.54560  0.47110  1.0000 -0.4705407769
O   O49       1.0  0.51600  0.19710  0.92010  1.0000 -0.4500308049
O   O50       1.0  0.77700  0.59590  0.57990  1.0000 -0.4500308049
O   O51       1.0  0.72300  0.30290  0.81890  1.0000 -0.4500308049
O   O52       1.0  0.98400  0.90410  0.68110  1.0000 -0.4500308049
O   O53       1.0  0.92010  0.51600  0.19710  1.0000 -0.4500308049
O   O54       1.0  0.57990  0.77700  0.59590  1.0000 -0.4500308049
O   O55       1.0  0.81890  0.72300  0.30290  1.0000 -0.4500308049
O   O56       1.0  0.68110  0.98400  0.90410  1.0000 -0.4500308049
O   O57       1.0  0.19710  0.92010  0.51600  1.0000 -0.4500308049
O   O58       1.0  0.59590  0.57990  0.77700  1.0000 -0.4500308049
O   O59       1.0  0.30290  0.81890  0.72300  1.0000 -0.4500308049
O   O60       1.0  0.90410  0.68110  0.98400  1.0000 -0.4500308049
O   O61       1.0  0.69710  0.01600  0.42010  1.0000 -0.4500308049
O   O62       1.0  0.09590  0.27700  0.07990  1.0000 -0.4500308049
O   O63       1.0  0.80290  0.22300  0.31890  1.0000 -0.4500308049
O   O64       1.0  0.40410  0.48400  0.18110  1.0000 -0.4500308049
O   O65       1.0  0.01600  0.42010  0.69710  1.0000 -0.4500308049
O   O66       1.0  0.27700  0.07990  0.09590  1.0000 -0.4500308049
O   O67       1.0  0.22300  0.31890  0.80290  1.0000 -0.4500308049
O   O68       1.0  0.48400  0.18110  0.40410  1.0000 -0.4500308049
O   O69       1.0  0.42010  0.69710  0.01600  1.0000 -0.4500308049
O   O70       1.0  0.07990  0.09590  0.27700  1.0000 -0.4500308049
O   O71       1.0  0.31890  0.80290  0.22300  1.0000 -0.4500308049
O   O72       1.0  0.18110  0.40410  0.48400  1.0000 -0.4500308049
O   O73       1.0  0.68480  0.37630  0.99930  1.0000 -0.4345206569
O   O74       1.0  0.87700  0.68550  0.50070  1.0000 -0.4345206569
O   O75       1.0  0.62300  0.12370  0.80850  1.0000 -0.4345206569
O   O76       1.0  0.81520  0.81450  0.69150  1.0000 -0.4345206569
O   O77       1.0  0.99930  0.68480  0.37630  1.0000 -0.4345206569
O   O78       1.0  0.50070  0.87700  0.68550  1.0000 -0.4345206569
O   O79       1.0  0.80850  0.62300  0.12370  1.0000 -0.4345206569
O   O80       1.0  0.69150  0.81520  0.81450  1.0000 -0.4345206569
O   O81       1.0  0.37630  0.99930  0.68480  1.0000 -0.4345206569
O   O82       1.0  0.68550  0.50070  0.87700  1.0000 -0.4345206569
O   O83       1.0  0.12370  0.80850  0.62300  1.0000 -0.4345206569
O   O84       1.0  0.81450  0.69150  0.81520  1.0000 -0.4345206569
O   O85       1.0  0.87630  0.18480  0.49930  1.0000 -0.4345206569
O   O86       1.0  0.18550  0.37700  0.00070  1.0000 -0.4345206569
O   O87       1.0  0.62370  0.12300  0.30850  1.0000 -0.4345206569
O   O88       1.0  0.31450  0.31520  0.19150  1.0000 -0.4345206569
O   O89       1.0  0.18480  0.49930  0.87630  1.0000 -0.4345206569
O   O90       1.0  0.37700  0.00070  0.18550  1.0000 -0.4345206569
O   O91       1.0  0.12300  0.30850  0.62370  1.0000 -0.4345206569
O   O92       1.0  0.31520  0.19150  0.31450  1.0000 -0.4345206569
O   O93       1.0  0.49930  0.87630  0.18480  1.0000 -0.4345206569
O   O94       1.0  0.00070  0.18550  0.37700  1.0000 -0.4345206569
O   O95       1.0  0.30850  0.62370  0.12300  1.0000 -0.4345206569
O   O96       1.0  0.19150  0.31450  0.31520  1.0000 -0.4345206569
