# DDEC6 charges by PACMAN v1.1 (https://github.com/mtap-research/PACMAN-charge/)
data_2007[Co][uon]3[FSR]1
_chemical_formula_sum              "Co12 H336 C264 N96 O96"
_cell_length_a       12.5764
_cell_length_b       12.5764
_cell_length_c       62.941
_cell_angle_alpha    90
_cell_angle_beta     90
_cell_angle_gamma    120

_symmetry_space_group_name_H-M    "P 1"
_symmetry_Int_Tables_number       1

loop_
  _symmetry_equiv_pos_as_xyz
  'x, y, z'

loop_
  _atom_site_type_symbol
  _atom_site_label
  _atom_site_symmetry_multiplicity
  _atom_site_fract_x
  _atom_site_fract_y
  _atom_site_fract_z
  _atom_site_occupancy
  _atom_site_charge
Co  Co1       1.0  0.40575  0.59425  0.58333  1.0000 0.8889850582
Co  Co2       1.0  0.40575  0.81150  0.25000  1.0000 0.8889850582
Co  Co3       1.0  0.18850  0.59425  0.91667  1.0000 0.8889850582
Co  Co4       1.0  0.59425  0.40575  0.08333  1.0000 0.8889850582
Co  Co5       1.0  0.59425  0.18850  0.75000  1.0000 0.8889850582
Co  Co6       1.0  0.81150  0.40575  0.41667  1.0000 0.8889850582
Co  Co7       1.0  0.30362  0.65181  0.41667  1.0000 0.8889850582
Co  Co8       1.0  0.34819  0.65181  0.08333  1.0000 0.8889850582
Co  Co9       1.0  0.34819  0.69638  0.75000  1.0000 0.8889850582
Co  Co10      1.0  0.69638  0.34819  0.91667  1.0000 0.8889850582
Co  Co11      1.0  0.65181  0.34819  0.58333  1.0000 0.8889850582
Co  Co12      1.0  0.65181  0.30362  0.25000  1.0000 0.8889850582
H   H1        1.0  0.02200  0.20200  0.56570  1.0000 0.1215939646
H   H2        1.0  0.79800  0.82000  0.23237  1.0000 0.1215939646
H   H3        1.0  0.18000  0.97800  0.89903  1.0000 0.1215939646
H   H4        1.0  0.97800  0.79800  0.06570  1.0000 0.1215939646
H   H5        1.0  0.20200  0.18000  0.73237  1.0000 0.1215939646
H   H6        1.0  0.82000  0.02200  0.39903  1.0000 0.1215939646
H   H7        1.0  0.20200  0.02200  0.10097  1.0000 0.1215939646
H   H8        1.0  0.82000  0.79800  0.43430  1.0000 0.1215939646
H   H9        1.0  0.97800  0.18000  0.76763  1.0000 0.1215939646
H   H10       1.0  0.79800  0.97800  0.60097  1.0000 0.1215939646
H   H11       1.0  0.18000  0.20200  0.93430  1.0000 0.1215939646
H   H12       1.0  0.02200  0.82000  0.26763  1.0000 0.1215939646
H   H13       1.0  0.02230  0.32400  0.56050  1.0000 0.1319061368
H   H14       1.0  0.67600  0.69830  0.22717  1.0000 0.1319061368
H   H15       1.0  0.30170  0.97770  0.89383  1.0000 0.1319061368
H   H16       1.0  0.97770  0.67600  0.06050  1.0000 0.1319061368
H   H17       1.0  0.32400  0.30170  0.72717  1.0000 0.1319061368
H   H18       1.0  0.69830  0.02230  0.39383  1.0000 0.1319061368
H   H19       1.0  0.32400  0.02230  0.10617  1.0000 0.1319061368
H   H20       1.0  0.69830  0.67600  0.43950  1.0000 0.1319061368
H   H21       1.0  0.97770  0.30170  0.77283  1.0000 0.1319061368
H   H22       1.0  0.67600  0.97770  0.60617  1.0000 0.1319061368
H   H23       1.0  0.30170  0.32400  0.93950  1.0000 0.1319061368
H   H24       1.0  0.02230  0.69830  0.27283  1.0000 0.1319061368
H   H25       1.0  0.09640  0.71000  0.47960  1.0000 0.1215939646
H   H26       1.0  0.29000  0.38640  0.14627  1.0000 0.1215939646
H   H27       1.0  0.61360  0.90360  0.81293  1.0000 0.1215939646
H   H28       1.0  0.90360  0.29000  0.97960  1.0000 0.1215939646
H   H29       1.0  0.71000  0.61360  0.64627  1.0000 0.1215939646
H   H30       1.0  0.38640  0.09640  0.31293  1.0000 0.1215939646
H   H31       1.0  0.71000  0.09640  0.18707  1.0000 0.1215939646
H   H32       1.0  0.38640  0.29000  0.52040  1.0000 0.1215939646
H   H33       1.0  0.90360  0.61360  0.85373  1.0000 0.1215939646
H   H34       1.0  0.29000  0.90360  0.68707  1.0000 0.1215939646
H   H35       1.0  0.61360  0.71000  0.02040  1.0000 0.1215939646
H   H36       1.0  0.09640  0.38640  0.35373  1.0000 0.1215939646
H   H37       1.0  0.98500  0.60740  0.46690  1.0000 0.1319061368
H   H38       1.0  0.39260  0.37760  0.13357  1.0000 0.1319061368
H   H39       1.0  0.62240  0.01500  0.80023  1.0000 0.1319061368
H   H40       1.0  0.01500  0.39260  0.96690  1.0000 0.1319061368
H   H41       1.0  0.60740  0.62240  0.63357  1.0000 0.1319061368
H   H42       1.0  0.37760  0.98500  0.30023  1.0000 0.1319061368
H   H43       1.0  0.60740  0.98500  0.19977  1.0000 0.1319061368
H   H44       1.0  0.37760  0.39260  0.53310  1.0000 0.1319061368
H   H45       1.0  0.01500  0.62240  0.86643  1.0000 0.1319061368
H   H46       1.0  0.39260  0.01500  0.69977  1.0000 0.1319061368
H   H47       1.0  0.62240  0.60740  0.03310  1.0000 0.1319061368
H   H48       1.0  0.98500  0.37760  0.36643  1.0000 0.1319061368
H   H49       1.0  0.05740  0.78790  0.52820  1.0000 0.1215939646
H   H50       1.0  0.21210  0.26950  0.19487  1.0000 0.1215939646
H   H51       1.0  0.73050  0.94260  0.86153  1.0000 0.1215939646
H   H52       1.0  0.94260  0.21210  0.02820  1.0000 0.1215939646
H   H53       1.0  0.78790  0.73050  0.69487  1.0000 0.1215939646
H   H54       1.0  0.26950  0.05740  0.36153  1.0000 0.1215939646
H   H55       1.0  0.78790  0.05740  0.13847  1.0000 0.1215939646
H   H56       1.0  0.26950  0.21210  0.47180  1.0000 0.1215939646
H   H57       1.0  0.94260  0.73050  0.80513  1.0000 0.1215939646
H   H58       1.0  0.21210  0.94260  0.63847  1.0000 0.1215939646
H   H59       1.0  0.73050  0.78790  0.97180  1.0000 0.1215939646
H   H60       1.0  0.05740  0.26950  0.30513  1.0000 0.1215939646
H   H61       1.0  0.99880  0.79210  0.54990  1.0000 0.13966808
H   H62       1.0  0.20790  0.20670  0.21657  1.0000 0.13966808
H   H63       1.0  0.79330  0.00120  0.88323  1.0000 0.13966808
H   H64       1.0  0.00120  0.20790  0.04990  1.0000 0.13966808
H   H65       1.0  0.79210  0.79330  0.71657  1.0000 0.13966808
H   H66       1.0  0.20670  0.99880  0.38323  1.0000 0.13966808
H   H67       1.0  0.79210  0.99880  0.11677  1.0000 0.13966808
H   H68       1.0  0.20670  0.20790  0.45010  1.0000 0.13966808
H   H69       1.0  0.00120  0.79330  0.78343  1.0000 0.13966808
H   H70       1.0  0.20790  0.00120  0.61677  1.0000 0.13966808
H   H71       1.0  0.79330  0.79210  0.95010  1.0000 0.13966808
H   H72       1.0  0.99880  0.20670  0.28343  1.0000 0.13966808
H   H73       1.0  0.40910  0.84290  0.58180  1.0000 0.1025852566
H   H74       1.0  0.15710  0.56620  0.24847  1.0000 0.1025852566
H   H75       1.0  0.43380  0.59090  0.91513  1.0000 0.1025852566
H   H76       1.0  0.59090  0.15710  0.08180  1.0000 0.1025852566
H   H77       1.0  0.84290  0.43380  0.74847  1.0000 0.1025852566
H   H78       1.0  0.56620  0.40910  0.41513  1.0000 0.1025852566
H   H79       1.0  0.84290  0.40910  0.08487  1.0000 0.1025852566
H   H80       1.0  0.56620  0.15710  0.41820  1.0000 0.1025852566
H   H81       1.0  0.59090  0.43380  0.75153  1.0000 0.1025852566
H   H82       1.0  0.15710  0.59090  0.58487  1.0000 0.1025852566
H   H83       1.0  0.43380  0.84290  0.91820  1.0000 0.1025852566
H   H84       1.0  0.40910  0.56620  0.25153  1.0000 0.1025852566
H   H85       1.0  0.37520  0.96320  0.55810  1.0000 0.13966808
H   H86       1.0  0.03680  0.41200  0.22477  1.0000 0.13966808
H   H87       1.0  0.58800  0.62480  0.89143  1.0000 0.13966808
H   H88       1.0  0.62480  0.03680  0.05810  1.0000 0.13966808
H   H89       1.0  0.96320  0.58800  0.72477  1.0000 0.13966808
H   H90       1.0  0.41200  0.37520  0.39143  1.0000 0.13966808
H   H91       1.0  0.96320  0.37520  0.10857  1.0000 0.13966808
H   H92       1.0  0.41200  0.03680  0.44190  1.0000 0.13966808
H   H93       1.0  0.62480  0.58800  0.77523  1.0000 0.13966808
H   H94       1.0  0.03680  0.62480  0.60857  1.0000 0.13966808
H   H95       1.0  0.58800  0.96320  0.94190  1.0000 0.13966808
H   H96       1.0  0.37520  0.41200  0.27523  1.0000 0.13966808
H   H97       1.0  0.33800  0.73010  0.51190  1.0000 0.13966808
H   H98       1.0  0.26990  0.60790  0.17857  1.0000 0.13966808
H   H99       1.0  0.39210  0.66200  0.84523  1.0000 0.13966808
H   H100      1.0  0.66200  0.26990  0.01190  1.0000 0.13966808
H   H101      1.0  0.73010  0.39210  0.67857  1.0000 0.13966808
H   H102      1.0  0.60790  0.33800  0.34523  1.0000 0.13966808
H   H103      1.0  0.73010  0.33800  0.15477  1.0000 0.13966808
H   H104      1.0  0.60790  0.26990  0.48810  1.0000 0.13966808
H   H105      1.0  0.66200  0.39210  0.82143  1.0000 0.13966808
H   H106      1.0  0.26990  0.66200  0.65477  1.0000 0.13966808
H   H107      1.0  0.39210  0.73010  0.98810  1.0000 0.13966808
H   H108      1.0  0.33800  0.60790  0.32143  1.0000 0.13966808
H   H109      1.0  0.37270  0.61690  0.53600  1.0000 0.1125196248
H   H110      1.0  0.38310  0.75580  0.20267  1.0000 0.1125196248
H   H111      1.0  0.24420  0.62730  0.86933  1.0000 0.1125196248
H   H112      1.0  0.62730  0.38310  0.03600  1.0000 0.1125196248
H   H113      1.0  0.61690  0.24420  0.70267  1.0000 0.1125196248
H   H114      1.0  0.75580  0.37270  0.36933  1.0000 0.1125196248
H   H115      1.0  0.61690  0.37270  0.13067  1.0000 0.1125196248
H   H116      1.0  0.75580  0.38310  0.46400  1.0000 0.1125196248
H   H117      1.0  0.62730  0.24420  0.79733  1.0000 0.1125196248
H   H118      1.0  0.38310  0.62730  0.63067  1.0000 0.1125196248
H   H119      1.0  0.24420  0.61690  0.96400  1.0000 0.1125196248
H   H120      1.0  0.37270  0.75580  0.29733  1.0000 0.1125196248
H   H121      1.0  0.30980  0.99170  0.52420  1.0000 0.1319061368
H   H122      1.0  0.00830  0.31810  0.19087  1.0000 0.1319061368
H   H123      1.0  0.68190  0.69020  0.85753  1.0000 0.1319061368
H   H124      1.0  0.69020  0.00830  0.02420  1.0000 0.1319061368
H   H125      1.0  0.99170  0.68190  0.69087  1.0000 0.1319061368
H   H126      1.0  0.31810  0.30980  0.35753  1.0000 0.1319061368
H   H127      1.0  0.99170  0.30980  0.14247  1.0000 0.1319061368
H   H128      1.0  0.31810  0.00830  0.47580  1.0000 0.1319061368
H   H129      1.0  0.69020  0.68190  0.80913  1.0000 0.1319061368
H   H130      1.0  0.00830  0.69020  0.64247  1.0000 0.1319061368
H   H131      1.0  0.68190  0.99170  0.97580  1.0000 0.1319061368
H   H132      1.0  0.30980  0.31810  0.30913  1.0000 0.1319061368
H   H133      1.0  0.24650  0.87740  0.50920  1.0000 0.1215939646
H   H134      1.0  0.12260  0.36910  0.17587  1.0000 0.1215939646
H   H135      1.0  0.63090  0.75350  0.84253  1.0000 0.1215939646
H   H136      1.0  0.75350  0.12260  0.00920  1.0000 0.1215939646
H   H137      1.0  0.87740  0.63090  0.67587  1.0000 0.1215939646
H   H138      1.0  0.36910  0.24650  0.34253  1.0000 0.1215939646
H   H139      1.0  0.87740  0.24650  0.15747  1.0000 0.1215939646
H   H140      1.0  0.36910  0.12260  0.49080  1.0000 0.1215939646
H   H141      1.0  0.75350  0.63090  0.82413  1.0000 0.1215939646
H   H142      1.0  0.12260  0.75350  0.65747  1.0000 0.1215939646
H   H143      1.0  0.63090  0.87740  0.99080  1.0000 0.1215939646
H   H144      1.0  0.24650  0.36910  0.32413  1.0000 0.1215939646
H   H145      1.0  0.44000  0.94140  0.49270  1.0000 0.1025852566
H   H146      1.0  0.05860  0.49860  0.15937  1.0000 0.1025852566
H   H147      1.0  0.50140  0.56000  0.82603  1.0000 0.1025852566
H   H148      1.0  0.56000  0.05860  0.99270  1.0000 0.1025852566
H   H149      1.0  0.94140  0.50140  0.65937  1.0000 0.1025852566
H   H150      1.0  0.49860  0.44000  0.32603  1.0000 0.1025852566
H   H151      1.0  0.94140  0.44000  0.17397  1.0000 0.1025852566
H   H152      1.0  0.49860  0.05860  0.50730  1.0000 0.1025852566
H   H153      1.0  0.56000  0.50140  0.84063  1.0000 0.1025852566
H   H154      1.0  0.05860  0.56000  0.67397  1.0000 0.1025852566
H   H155      1.0  0.50140  0.94140  0.00730  1.0000 0.1025852566
H   H156      1.0  0.44000  0.49860  0.34063  1.0000 0.1025852566
H   H157      1.0  0.37120  0.74450  0.37060  1.0000 0.1125196248
H   H158      1.0  0.25550  0.62670  0.03727  1.0000 0.1125196248
H   H159      1.0  0.37330  0.62880  0.70393  1.0000 0.1125196248
H   H160      1.0  0.62880  0.25550  0.87060  1.0000 0.1125196248
H   H161      1.0  0.74450  0.37330  0.53727  1.0000 0.1125196248
H   H162      1.0  0.62670  0.37120  0.20393  1.0000 0.1125196248
H   H163      1.0  0.74450  0.37120  0.29607  1.0000 0.1125196248
H   H164      1.0  0.62670  0.25550  0.62940  1.0000 0.1125196248
H   H165      1.0  0.62880  0.37330  0.96273  1.0000 0.1125196248
H   H166      1.0  0.25550  0.62880  0.79607  1.0000 0.1125196248
H   H167      1.0  0.37330  0.74450  0.12940  1.0000 0.1125196248
H   H168      1.0  0.37120  0.62670  0.46273  1.0000 0.1125196248
H   H169      1.0  0.52870  0.81140  0.34750  1.0000 0.13966808
H   H170      1.0  0.18860  0.71730  0.01417  1.0000 0.13966808
H   H171      1.0  0.28270  0.47130  0.68083  1.0000 0.13966808
H   H172      1.0  0.47130  0.18860  0.84750  1.0000 0.13966808
H   H173      1.0  0.81140  0.28270  0.51417  1.0000 0.13966808
H   H174      1.0  0.71730  0.52870  0.18083  1.0000 0.13966808
H   H175      1.0  0.81140  0.52870  0.31917  1.0000 0.13966808
H   H176      1.0  0.71730  0.18860  0.65250  1.0000 0.13966808
H   H177      1.0  0.47130  0.28270  0.98583  1.0000 0.13966808
H   H178      1.0  0.18860  0.47130  0.81917  1.0000 0.13966808
H   H179      1.0  0.28270  0.81140  0.15250  1.0000 0.13966808
H   H180      1.0  0.52870  0.71730  0.48583  1.0000 0.13966808
H   H181      1.0  0.70050  0.70320  0.38850  1.0000 0.13966808
H   H182      1.0  0.29680  0.99730  0.05517  1.0000 0.13966808
H   H183      1.0  0.00270  0.29950  0.72183  1.0000 0.13966808
H   H184      1.0  0.29950  0.29680  0.88850  1.0000 0.13966808
H   H185      1.0  0.70320  0.00270  0.55517  1.0000 0.13966808
H   H186      1.0  0.99730  0.70050  0.22183  1.0000 0.13966808
H   H187      1.0  0.70320  0.70050  0.27817  1.0000 0.13966808
H   H188      1.0  0.99730  0.29680  0.61150  1.0000 0.13966808
H   H189      1.0  0.29950  0.00270  0.94483  1.0000 0.13966808
H   H190      1.0  0.29680  0.29950  0.77817  1.0000 0.13966808
H   H191      1.0  0.00270  0.70320  0.11150  1.0000 0.13966808
H   H192      1.0  0.70050  0.99730  0.44483  1.0000 0.13966808
H   H193      1.0  0.53630  0.63810  0.41060  1.0000 0.1025852566
H   H194      1.0  0.36190  0.89820  0.07727  1.0000 0.1025852566
H   H195      1.0  0.10180  0.46370  0.74393  1.0000 0.1025852566
H   H196      1.0  0.46370  0.36190  0.91060  1.0000 0.1025852566
H   H197      1.0  0.63810  0.10180  0.57727  1.0000 0.1025852566
H   H198      1.0  0.89820  0.53630  0.24393  1.0000 0.1025852566
H   H199      1.0  0.63810  0.53630  0.25607  1.0000 0.1025852566
H   H200      1.0  0.89820  0.36190  0.58940  1.0000 0.1025852566
H   H201      1.0  0.46370  0.10180  0.92273  1.0000 0.1025852566
H   H202      1.0  0.36190  0.46370  0.75607  1.0000 0.1025852566
H   H203      1.0  0.10180  0.63810  0.08940  1.0000 0.1025852566
H   H204      1.0  0.53630  0.89820  0.42273  1.0000 0.1025852566
H   H205      1.0  0.76050  0.88600  0.34280  1.0000 0.1215939646
H   H206      1.0  0.11400  0.87450  0.00947  1.0000 0.1215939646
H   H207      1.0  0.12550  0.23950  0.67613  1.0000 0.1215939646
H   H208      1.0  0.23950  0.11400  0.84280  1.0000 0.1215939646
H   H209      1.0  0.88600  0.12550  0.50947  1.0000 0.1215939646
H   H210      1.0  0.87450  0.76050  0.17613  1.0000 0.1215939646
H   H211      1.0  0.88600  0.76050  0.32387  1.0000 0.1215939646
H   H212      1.0  0.87450  0.11400  0.65720  1.0000 0.1215939646
H   H213      1.0  0.23950  0.12550  0.99053  1.0000 0.1215939646
H   H214      1.0  0.11400  0.23950  0.82387  1.0000 0.1215939646
H   H215      1.0  0.12550  0.88600  0.15720  1.0000 0.1215939646
H   H216      1.0  0.76050  0.87450  0.49053  1.0000 0.1215939646
H   H217      1.0  0.81680  0.82520  0.35740  1.0000 0.1319061368
H   H218      1.0  0.17480  0.99160  0.02407  1.0000 0.1319061368
H   H219      1.0  0.00840  0.18320  0.69073  1.0000 0.1319061368
H   H220      1.0  0.18320  0.17480  0.85740  1.0000 0.1319061368
H   H221      1.0  0.82520  0.00840  0.52407  1.0000 0.1319061368
H   H222      1.0  0.99160  0.81680  0.19073  1.0000 0.1319061368
H   H223      1.0  0.82520  0.81680  0.30927  1.0000 0.1319061368
H   H224      1.0  0.99160  0.17480  0.64260  1.0000 0.1319061368
H   H225      1.0  0.18320  0.00840  0.97593  1.0000 0.1319061368
H   H226      1.0  0.17480  0.18320  0.80927  1.0000 0.1319061368
H   H227      1.0  0.00840  0.82520  0.14260  1.0000 0.1319061368
H   H228      1.0  0.81680  0.99160  0.47593  1.0000 0.1319061368
H   H229      1.0  0.69590  0.63820  0.34060  1.0000 0.1125196248
H   H230      1.0  0.36180  0.05770  0.00727  1.0000 0.1125196248
H   H231      1.0  0.94230  0.30410  0.67393  1.0000 0.1125196248
H   H232      1.0  0.30410  0.36180  0.84060  1.0000 0.1125196248
H   H233      1.0  0.63820  0.94230  0.50727  1.0000 0.1125196248
H   H234      1.0  0.05770  0.69590  0.17393  1.0000 0.1125196248
H   H235      1.0  0.63820  0.69590  0.32607  1.0000 0.1125196248
H   H236      1.0  0.05770  0.36180  0.65940  1.0000 0.1125196248
H   H237      1.0  0.30410  0.94230  0.99273  1.0000 0.1125196248
H   H238      1.0  0.36180  0.30410  0.82607  1.0000 0.1125196248
H   H239      1.0  0.94230  0.63820  0.15940  1.0000 0.1125196248
H   H240      1.0  0.69590  0.05770  0.49273  1.0000 0.1125196248
H   H241      1.0  0.09680  0.27650  0.52860  1.0000 0.2962924471
H   H242      1.0  0.72350  0.82030  0.19527  1.0000 0.2962924471
H   H243      1.0  0.17970  0.90320  0.86193  1.0000 0.2962924471
H   H244      1.0  0.90320  0.72350  0.02860  1.0000 0.2962924471
H   H245      1.0  0.27650  0.17970  0.69527  1.0000 0.2962924471
H   H246      1.0  0.82030  0.09680  0.36193  1.0000 0.2962924471
H   H247      1.0  0.27650  0.09680  0.13807  1.0000 0.2962924471
H   H248      1.0  0.82030  0.72350  0.47140  1.0000 0.2962924471
H   H249      1.0  0.90320  0.17970  0.80473  1.0000 0.2962924471
H   H250      1.0  0.72350  0.90320  0.63807  1.0000 0.2962924471
H   H251      1.0  0.17970  0.27650  0.97140  1.0000 0.2962924471
H   H252      1.0  0.09680  0.82030  0.30473  1.0000 0.2962924471
H   H253      1.0  0.11030  0.50380  0.47280  1.0000 0.275348336
H   H254      1.0  0.49620  0.60650  0.13947  1.0000 0.275348336
H   H255      1.0  0.39350  0.88970  0.80613  1.0000 0.275348336
H   H256      1.0  0.88970  0.49620  0.97280  1.0000 0.275348336
H   H257      1.0  0.50380  0.39350  0.63947  1.0000 0.275348336
H   H258      1.0  0.60650  0.11030  0.30613  1.0000 0.275348336
H   H259      1.0  0.50380  0.11030  0.19387  1.0000 0.275348336
H   H260      1.0  0.60650  0.49620  0.52720  1.0000 0.275348336
H   H261      1.0  0.88970  0.39350  0.86053  1.0000 0.275348336
H   H262      1.0  0.49620  0.88970  0.69387  1.0000 0.275348336
H   H263      1.0  0.39350  0.50380  0.02720  1.0000 0.275348336
H   H264      1.0  0.11030  0.60650  0.36053  1.0000 0.275348336
H   H265      1.0  0.02580  0.64090  0.56070  1.0000 0.2854204704
H   H266      1.0  0.35910  0.38490  0.22737  1.0000 0.2854204704
H   H267      1.0  0.61510  0.97420  0.89403  1.0000 0.2854204704
H   H268      1.0  0.97420  0.35910  0.06070  1.0000 0.2854204704
H   H269      1.0  0.64090  0.61510  0.72737  1.0000 0.2854204704
H   H270      1.0  0.38490  0.02580  0.39403  1.0000 0.2854204704
H   H271      1.0  0.64090  0.02580  0.10597  1.0000 0.2854204704
H   H272      1.0  0.38490  0.35910  0.43930  1.0000 0.2854204704
H   H273      1.0  0.97420  0.61510  0.77263  1.0000 0.2854204704
H   H274      1.0  0.35910  0.97420  0.60597  1.0000 0.2854204704
H   H275      1.0  0.61510  0.64090  0.93930  1.0000 0.2854204704
H   H276      1.0  0.02580  0.38490  0.27263  1.0000 0.2854204704
H   H277      1.0  0.78550  0.69320  0.50750  1.0000 0.3207060675
H   H278      1.0  0.30680  0.09230  0.17417  1.0000 0.3207060675
H   H279      1.0  0.90770  0.21450  0.84083  1.0000 0.3207060675
H   H280      1.0  0.21450  0.30680  0.00750  1.0000 0.3207060675
H   H281      1.0  0.69320  0.90770  0.67417  1.0000 0.3207060675
H   H282      1.0  0.09230  0.78550  0.34083  1.0000 0.3207060675
H   H283      1.0  0.69320  0.78550  0.15917  1.0000 0.3207060675
H   H284      1.0  0.09230  0.30680  0.49250  1.0000 0.3207060675
H   H285      1.0  0.21450  0.90770  0.82583  1.0000 0.3207060675
H   H286      1.0  0.30680  0.21450  0.65917  1.0000 0.3207060675
H   H287      1.0  0.90770  0.69320  0.99250  1.0000 0.3207060675
H   H288      1.0  0.78550  0.09230  0.32583  1.0000 0.3207060675
H   H289      1.0  0.53070  0.52610  0.56440  1.0000 0.3432330619
H   H290      1.0  0.47390  0.00460  0.23107  1.0000 0.3432330619
H   H291      1.0  0.99540  0.46930  0.89773  1.0000 0.3432330619
H   H292      1.0  0.46930  0.47390  0.06440  1.0000 0.3432330619
H   H293      1.0  0.52610  0.99540  0.73107  1.0000 0.3432330619
H   H294      1.0  0.00460  0.53070  0.39773  1.0000 0.3432330619
H   H295      1.0  0.52610  0.53070  0.10227  1.0000 0.3432330619
H   H296      1.0  0.00460  0.47390  0.43560  1.0000 0.3432330619
H   H297      1.0  0.46930  0.99540  0.76893  1.0000 0.3432330619
H   H298      1.0  0.47390  0.46930  0.60227  1.0000 0.3432330619
H   H299      1.0  0.99540  0.52610  0.93560  1.0000 0.3432330619
H   H300      1.0  0.53070  0.00460  0.26893  1.0000 0.3432330619
H   H301      1.0  0.60890  0.65100  0.56420  1.0000 0.3597432206
H   H302      1.0  0.34900  0.95790  0.23087  1.0000 0.3597432206
H   H303      1.0  0.04210  0.39110  0.89753  1.0000 0.3597432206
H   H304      1.0  0.39110  0.34900  0.06420  1.0000 0.3597432206
H   H305      1.0  0.65100  0.04210  0.73087  1.0000 0.3597432206
H   H306      1.0  0.95790  0.60890  0.39753  1.0000 0.3597432206
H   H307      1.0  0.65100  0.60890  0.10247  1.0000 0.3597432206
H   H308      1.0  0.95790  0.34900  0.43580  1.0000 0.3597432206
H   H309      1.0  0.39110  0.04210  0.76913  1.0000 0.3597432206
H   H310      1.0  0.34900  0.39110  0.60247  1.0000 0.3597432206
H   H311      1.0  0.04210  0.65100  0.93580  1.0000 0.3597432206
H   H312      1.0  0.60890  0.95790  0.26913  1.0000 0.3597432206
H   H313      1.0  0.26900  0.82970  0.41890  1.0000 0.3207060675
H   H314      1.0  0.17030  0.43930  0.08557  1.0000 0.3207060675
H   H315      1.0  0.56070  0.73100  0.75223  1.0000 0.3207060675
H   H316      1.0  0.73100  0.17030  0.91890  1.0000 0.3207060675
H   H317      1.0  0.82970  0.56070  0.58557  1.0000 0.3207060675
H   H318      1.0  0.43930  0.26900  0.25223  1.0000 0.3207060675
H   H319      1.0  0.82970  0.26900  0.24777  1.0000 0.3207060675
H   H320      1.0  0.43930  0.17030  0.58110  1.0000 0.3207060675
H   H321      1.0  0.73100  0.56070  0.91443  1.0000 0.3207060675
H   H322      1.0  0.17030  0.73100  0.74777  1.0000 0.3207060675
H   H323      1.0  0.56070  0.82970  0.08110  1.0000 0.3207060675
H   H324      1.0  0.26900  0.43930  0.41443  1.0000 0.3207060675
H   H325      1.0  0.24140  0.78350  0.39900  1.0000 0.3331320911
H   H326      1.0  0.21650  0.45790  0.06567  1.0000 0.3331320911
H   H327      1.0  0.54210  0.75860  0.73233  1.0000 0.3331320911
H   H328      1.0  0.75860  0.21650  0.89900  1.0000 0.3331320911
H   H329      1.0  0.78350  0.54210  0.56567  1.0000 0.3331320911
H   H330      1.0  0.45790  0.24140  0.23233  1.0000 0.3331320911
H   H331      1.0  0.78350  0.24140  0.26767  1.0000 0.3331320911
H   H332      1.0  0.45790  0.21650  0.60100  1.0000 0.3331320911
H   H333      1.0  0.75860  0.54210  0.93433  1.0000 0.3331320911
H   H334      1.0  0.21650  0.75860  0.76767  1.0000 0.3331320911
H   H335      1.0  0.54210  0.78350  0.10100  1.0000 0.3331320911
H   H336      1.0  0.24140  0.45790  0.43433  1.0000 0.3331320911
C   C1        1.0  0.07670  0.41510  0.53100  1.0000 0.521958542
C   C2        1.0  0.58490  0.66160  0.19767  1.0000 0.521958542
C   C3        1.0  0.33840  0.92330  0.86433  1.0000 0.521958542
C   C4        1.0  0.92330  0.58490  0.03100  1.0000 0.521958542
C   C5        1.0  0.41510  0.33840  0.69767  1.0000 0.521958542
C   C6        1.0  0.66160  0.07670  0.36433  1.0000 0.521958542
C   C7        1.0  0.41510  0.07670  0.13567  1.0000 0.521958542
C   C8        1.0  0.66160  0.58490  0.46900  1.0000 0.521958542
C   C9        1.0  0.92330  0.33840  0.80233  1.0000 0.521958542
C   C10       1.0  0.58490  0.92330  0.63567  1.0000 0.521958542
C   C11       1.0  0.33840  0.41510  0.96900  1.0000 0.521958542
C   C12       1.0  0.07670  0.66160  0.30233  1.0000 0.521958542
C   C13       1.0  0.07530  0.52650  0.50125  1.0000 0.521958542
C   C14       1.0  0.47350  0.54880  0.16792  1.0000 0.521958542
C   C15       1.0  0.45120  0.92470  0.83458  1.0000 0.521958542
C   C16       1.0  0.92470  0.47350  0.00125  1.0000 0.521958542
C   C17       1.0  0.52650  0.45120  0.66792  1.0000 0.521958542
C   C18       1.0  0.54880  0.07530  0.33458  1.0000 0.521958542
C   C19       1.0  0.52650  0.07530  0.16542  1.0000 0.521958542
C   C20       1.0  0.54880  0.47350  0.49875  1.0000 0.521958542
C   C21       1.0  0.92470  0.45120  0.83208  1.0000 0.521958542
C   C22       1.0  0.47350  0.92470  0.66542  1.0000 0.521958542
C   C23       1.0  0.45120  0.52650  0.99875  1.0000 0.521958542
C   C24       1.0  0.07530  0.54880  0.33208  1.0000 0.521958542
C   C25       1.0  0.04080  0.57230  0.53448  1.0000 0.521958542
C   C26       1.0  0.42770  0.46850  0.20115  1.0000 0.521958542
C   C27       1.0  0.53150  0.95920  0.86781  1.0000 0.521958542
C   C28       1.0  0.95920  0.42770  0.03448  1.0000 0.521958542
C   C29       1.0  0.57230  0.53150  0.70115  1.0000 0.521958542
C   C30       1.0  0.46850  0.04080  0.36781  1.0000 0.521958542
C   C31       1.0  0.57230  0.04080  0.13219  1.0000 0.521958542
C   C32       1.0  0.46850  0.42770  0.46552  1.0000 0.521958542
C   C33       1.0  0.95920  0.53150  0.79885  1.0000 0.521958542
C   C34       1.0  0.42770  0.95920  0.63219  1.0000 0.521958542
C   C35       1.0  0.53150  0.57230  0.96552  1.0000 0.521958542
C   C36       1.0  0.04080  0.46850  0.29885  1.0000 0.521958542
C   C37       1.0  0.07020  0.28380  0.56027  1.0000 -0.2108484914
C   C38       1.0  0.71620  0.78640  0.22694  1.0000 -0.2108484914
C   C39       1.0  0.21360  0.92980  0.89360  1.0000 -0.2108484914
C   C40       1.0  0.92980  0.71620  0.06027  1.0000 -0.2108484914
C   C41       1.0  0.28380  0.21360  0.72694  1.0000 -0.2108484914
C   C42       1.0  0.78640  0.07020  0.39360  1.0000 -0.2108484914
C   C43       1.0  0.28380  0.07020  0.10640  1.0000 -0.2108484914
C   C44       1.0  0.78640  0.71620  0.43973  1.0000 -0.2108484914
C   C45       1.0  0.92980  0.21360  0.77306  1.0000 -0.2108484914
C   C46       1.0  0.71620  0.92980  0.60640  1.0000 -0.2108484914
C   C47       1.0  0.21360  0.28380  0.93973  1.0000 -0.2108484914
C   C48       1.0  0.07020  0.78640  0.27306  1.0000 -0.2108484914
C   C49       1.0  0.18230  0.35440  0.57399  1.0000 0.5910750434
C   C50       1.0  0.64560  0.82790  0.24066  1.0000 0.5910750434
C   C51       1.0  0.17210  0.81770  0.90732  1.0000 0.5910750434
C   C52       1.0  0.81770  0.64560  0.07399  1.0000 0.5910750434
C   C53       1.0  0.35440  0.17210  0.74066  1.0000 0.5910750434
C   C54       1.0  0.82790  0.18230  0.40732  1.0000 0.5910750434
C   C55       1.0  0.35440  0.18230  0.09268  1.0000 0.5910750434
C   C56       1.0  0.82790  0.64560  0.42601  1.0000 0.5910750434
C   C57       1.0  0.81770  0.17210  0.75934  1.0000 0.5910750434
C   C58       1.0  0.64560  0.81770  0.59268  1.0000 0.5910750434
C   C59       1.0  0.17210  0.35440  0.92601  1.0000 0.5910750434
C   C60       1.0  0.18230  0.82790  0.25934  1.0000 0.5910750434
C   C61       1.0  0.07150  0.64120  0.47006  1.0000 -0.2108484914
C   C62       1.0  0.35880  0.43030  0.13673  1.0000 -0.2108484914
C   C63       1.0  0.56970  0.92850  0.80339  1.0000 -0.2108484914
C   C64       1.0  0.92850  0.35880  0.97006  1.0000 -0.2108484914
C   C65       1.0  0.64120  0.56970  0.63673  1.0000 -0.2108484914
C   C66       1.0  0.43030  0.07150  0.30339  1.0000 -0.2108484914
C   C67       1.0  0.64120  0.07150  0.19661  1.0000 -0.2108484914
C   C68       1.0  0.43030  0.35880  0.52994  1.0000 -0.2108484914
C   C69       1.0  0.92850  0.56970  0.86327  1.0000 -0.2108484914
C   C70       1.0  0.35880  0.92850  0.69661  1.0000 -0.2108484914
C   C71       1.0  0.56970  0.64120  0.02994  1.0000 -0.2108484914
C   C72       1.0  0.07150  0.43030  0.36327  1.0000 -0.2108484914
C   C73       1.0  0.14440  0.68580  0.44974  1.0000 0.6085938518
C   C74       1.0  0.31420  0.45860  0.11641  1.0000 0.6085938518
C   C75       1.0  0.54140  0.85560  0.78307  1.0000 0.6085938518
C   C76       1.0  0.85560  0.31420  0.94974  1.0000 0.6085938518
C   C77       1.0  0.68580  0.54140  0.61641  1.0000 0.6085938518
C   C78       1.0  0.45860  0.14440  0.28307  1.0000 0.6085938518
C   C79       1.0  0.68580  0.14440  0.21693  1.0000 0.6085938518
C   C80       1.0  0.45860  0.31420  0.55026  1.0000 0.6085938518
C   C81       1.0  0.85560  0.54140  0.88359  1.0000 0.6085938518
C   C82       1.0  0.31420  0.85560  0.71693  1.0000 0.6085938518
C   C83       1.0  0.54140  0.68580  0.05026  1.0000 0.6085938518
C   C84       1.0  0.14440  0.45860  0.38359  1.0000 0.6085938518
C   C85       1.0  0.99470  0.73820  0.53856  1.0000 -0.2108484914
C   C86       1.0  0.26180  0.25650  0.20523  1.0000 -0.2108484914
C   C87       1.0  0.74350  0.00530  0.87189  1.0000 -0.2108484914
C   C88       1.0  0.00530  0.26180  0.03856  1.0000 -0.2108484914
C   C89       1.0  0.73820  0.74350  0.70523  1.0000 -0.2108484914
C   C90       1.0  0.25650  0.99470  0.37189  1.0000 -0.2108484914
C   C91       1.0  0.73820  0.99470  0.12811  1.0000 -0.2108484914
C   C92       1.0  0.25650  0.26180  0.46144  1.0000 -0.2108484914
C   C93       1.0  0.00530  0.74350  0.79477  1.0000 -0.2108484914
C   C94       1.0  0.26180  0.00530  0.62811  1.0000 -0.2108484914
C   C95       1.0  0.74350  0.73820  0.96144  1.0000 -0.2108484914
C   C96       1.0  0.99470  0.25650  0.29477  1.0000 -0.2108484914
C   C97       1.0  0.86940  0.68300  0.52797  1.0000 0.5992395783
C   C98       1.0  0.31700  0.18640  0.19464  1.0000 0.5992395783
C   C99       1.0  0.81360  0.13060  0.86130  1.0000 0.5992395783
C   C100      1.0  0.13060  0.31700  0.02797  1.0000 0.5992395783
C   C101      1.0  0.68300  0.81360  0.69464  1.0000 0.5992395783
C   C102      1.0  0.18640  0.86940  0.36130  1.0000 0.5992395783
C   C103      1.0  0.68300  0.86940  0.13870  1.0000 0.5992395783
C   C104      1.0  0.18640  0.31700  0.47203  1.0000 0.5992395783
C   C105      1.0  0.13060  0.81360  0.80536  1.0000 0.5992395783
C   C106      1.0  0.31700  0.13060  0.63870  1.0000 0.5992395783
C   C107      1.0  0.81360  0.68300  0.97203  1.0000 0.5992395783
C   C108      1.0  0.86940  0.18640  0.30536  1.0000 0.5992395783
C   C109      1.0  0.39420  0.81930  0.56761  1.0000 0.0835570959
C   C110      1.0  0.18070  0.57490  0.23428  1.0000 0.0835570959
C   C111      1.0  0.42510  0.60580  0.90094  1.0000 0.0835570959
C   C112      1.0  0.60580  0.18070  0.06761  1.0000 0.0835570959
C   C113      1.0  0.81930  0.42510  0.73428  1.0000 0.0835570959
C   C114      1.0  0.57490  0.39420  0.40094  1.0000 0.0835570959
C   C115      1.0  0.81930  0.39420  0.09906  1.0000 0.0835570959
C   C116      1.0  0.57490  0.18070  0.43239  1.0000 0.0835570959
C   C117      1.0  0.60580  0.42510  0.76572  1.0000 0.0835570959
C   C118      1.0  0.18070  0.60580  0.59906  1.0000 0.0835570959
C   C119      1.0  0.42510  0.81930  0.93239  1.0000 0.0835570959
C   C120      1.0  0.39420  0.57490  0.26572  1.0000 0.0835570959
C   C121      1.0  0.37330  0.89230  0.55333  1.0000 -0.2200036528
C   C122      1.0  0.10770  0.48100  0.22000  1.0000 -0.2200036528
C   C123      1.0  0.51900  0.62670  0.88666  1.0000 -0.2200036528
C   C124      1.0  0.62670  0.10770  0.05333  1.0000 -0.2200036528
C   C125      1.0  0.89230  0.51900  0.72000  1.0000 -0.2200036528
C   C126      1.0  0.48100  0.37330  0.38666  1.0000 -0.2200036528
C   C127      1.0  0.89230  0.37330  0.11334  1.0000 -0.2200036528
C   C128      1.0  0.48100  0.10770  0.44667  1.0000 -0.2200036528
C   C129      1.0  0.62670  0.51900  0.78000  1.0000 -0.2200036528
C   C130      1.0  0.10770  0.62670  0.61334  1.0000 -0.2200036528
C   C131      1.0  0.51900  0.89230  0.94667  1.0000 -0.2200036528
C   C132      1.0  0.37330  0.48100  0.28000  1.0000 -0.2200036528
C   C133      1.0  0.34960  0.85940  0.53206  1.0000 0.1756926916
C   C134      1.0  0.14060  0.49020  0.19873  1.0000 0.1756926916
C   C135      1.0  0.50980  0.65040  0.86539  1.0000 0.1756926916
C   C136      1.0  0.65040  0.14060  0.03206  1.0000 0.1747330432
C   C137      1.0  0.85940  0.50980  0.69873  1.0000 0.1756926916
C   C138      1.0  0.49020  0.34960  0.36539  1.0000 0.1756926916
C   C139      1.0  0.85940  0.34960  0.13461  1.0000 0.1756926916
C   C140      1.0  0.49020  0.14060  0.46794  1.0000 0.1756926916
C   C141      1.0  0.65040  0.50980  0.80127  1.0000 0.1747330432
C   C142      1.0  0.14060  0.65040  0.63461  1.0000 0.1756926916
C   C143      1.0  0.50980  0.85940  0.96794  1.0000 0.1756926916
C   C144      1.0  0.34960  0.49020  0.30127  1.0000 0.1756926916
C   C145      1.0  0.35140  0.75480  0.52604  1.0000 -0.2108484914
C   C146      1.0  0.24520  0.59660  0.19271  1.0000 -0.2108484914
C   C147      1.0  0.40340  0.64860  0.85937  1.0000 -0.2108484914
C   C148      1.0  0.64860  0.24520  0.02604  1.0000 -0.2108484914
C   C149      1.0  0.75480  0.40340  0.69271  1.0000 -0.2108484914
C   C150      1.0  0.59660  0.35140  0.35937  1.0000 -0.2108484914
C   C151      1.0  0.75480  0.35140  0.14063  1.0000 -0.2108484914
C   C152      1.0  0.59660  0.24520  0.47396  1.0000 -0.2108484914
C   C153      1.0  0.64860  0.40340  0.80729  1.0000 -0.2108484914
C   C154      1.0  0.24520  0.64860  0.64063  1.0000 -0.2108484914
C   C155      1.0  0.40340  0.75480  0.97396  1.0000 -0.2108484914
C   C156      1.0  0.35140  0.59660  0.30729  1.0000 -0.2108484914
C   C157      1.0  0.37260  0.68710  0.54059  1.0000 0.0850451594
C   C158      1.0  0.31290  0.68550  0.20726  1.0000 0.0835570959
C   C159      1.0  0.31450  0.62740  0.87392  1.0000 0.0850451594
C   C160      1.0  0.62740  0.31290  0.04059  1.0000 0.0850451594
C   C161      1.0  0.68710  0.31450  0.70726  1.0000 0.0850451594
C   C162      1.0  0.68550  0.37260  0.37392  1.0000 0.0850451594
C   C163      1.0  0.68710  0.37260  0.12608  1.0000 0.0850451594
C   C164      1.0  0.68550  0.31290  0.45941  1.0000 0.0850451594
C   C165      1.0  0.62740  0.31450  0.79274  1.0000 0.0850451594
C   C166      1.0  0.31290  0.62740  0.62608  1.0000 0.0835570959
C   C167      1.0  0.31450  0.68710  0.95941  1.0000 0.0850451594
C   C168      1.0  0.37260  0.68550  0.29274  1.0000 0.0835570959
C   C169      1.0  0.32240  0.93220  0.51651  1.0000 -0.2578326409
C   C170      1.0  0.06780  0.39020  0.18318  1.0000 -0.2578326409
C   C171      1.0  0.60980  0.67760  0.84984  1.0000 -0.2578326409
C   C172      1.0  0.67760  0.06780  0.01651  1.0000 -0.2578326409
C   C173      1.0  0.93220  0.60980  0.68318  1.0000 -0.2578326409
C   C174      1.0  0.39020  0.32240  0.34984  1.0000 -0.2578326409
C   C175      1.0  0.93220  0.32240  0.15016  1.0000 -0.2578326409
C   C176      1.0  0.39020  0.06780  0.48349  1.0000 -0.2578326409
C   C177      1.0  0.67760  0.60980  0.81682  1.0000 -0.2578326409
C   C178      1.0  0.06780  0.67760  0.65016  1.0000 -0.2578326409
C   C179      1.0  0.60980  0.93220  0.98349  1.0000 -0.2578326409
C   C180      1.0  0.32240  0.39020  0.31682  1.0000 -0.2578326409
C   C181      1.0  0.42370  0.00000  0.50000  1.0000 -0.1280223188
C   C182      1.0  0.00000  0.42370  0.16667  1.0000 -0.1280223188
C   C183      1.0  0.57630  0.57630  0.83333  1.0000 -0.1280223188
C   C184      1.0  0.57630  0.00000  0.00000  1.0000 -0.1280223188
C   C185      1.0  0.00000  0.57630  0.66667  1.0000 -0.1280223188
C   C186      1.0  0.42370  0.42370  0.33333  1.0000 -0.1280223188
C   C187      1.0  0.43900  0.73780  0.37446  1.0000 0.0835570959
C   C188      1.0  0.26220  0.70120  0.04113  1.0000 0.0835570959
C   C189      1.0  0.29880  0.56100  0.70779  1.0000 0.0835570959
C   C190      1.0  0.56100  0.26220  0.87446  1.0000 0.0835570959
C   C191      1.0  0.73780  0.29880  0.54113  1.0000 0.0850451594
C   C192      1.0  0.70120  0.43900  0.20779  1.0000 0.0835570959
C   C193      1.0  0.73780  0.43900  0.29221  1.0000 0.0850451594
C   C194      1.0  0.70120  0.26220  0.62554  1.0000 0.0850451594
C   C195      1.0  0.56100  0.29880  0.95887  1.0000 0.0835570959
C   C196      1.0  0.26220  0.56100  0.79221  1.0000 0.0835570959
C   C197      1.0  0.29880  0.73780  0.12554  1.0000 0.0835570959
C   C198      1.0  0.43900  0.70120  0.45887  1.0000 0.0835570959
C   C199      1.0  0.53330  0.77810  0.36037  1.0000 -0.2108484914
C   C200      1.0  0.22190  0.75520  0.02704  1.0000 -0.2108484914
C   C201      1.0  0.24480  0.46670  0.69370  1.0000 -0.2108484914
C   C202      1.0  0.46670  0.22190  0.86037  1.0000 -0.2108484914
C   C203      1.0  0.77810  0.24480  0.52704  1.0000 -0.2108484914
C   C204      1.0  0.75520  0.53330  0.19370  1.0000 -0.2108484914
C   C205      1.0  0.77810  0.53330  0.30630  1.0000 -0.2108484914
C   C206      1.0  0.75520  0.22190  0.63963  1.0000 -0.2108484914
C   C207      1.0  0.46670  0.24480  0.97296  1.0000 -0.2108484914
C   C208      1.0  0.22190  0.46670  0.80630  1.0000 -0.2108484914
C   C209      1.0  0.24480  0.77810  0.13963  1.0000 -0.2108484914
C   C210      1.0  0.53330  0.75520  0.47296  1.0000 -0.2108484914
C   C211      1.0  0.63650  0.76960  0.36521  1.0000 0.1756926916
C   C212      1.0  0.23040  0.86690  0.03188  1.0000 0.1756926916
C   C213      1.0  0.13310  0.36350  0.69854  1.0000 0.1756926916
C   C214      1.0  0.36350  0.23040  0.86521  1.0000 0.1756926916
C   C215      1.0  0.76960  0.13310  0.53188  1.0000 0.1756926916
C   C216      1.0  0.86690  0.63650  0.19854  1.0000 0.1756926916
C   C217      1.0  0.76960  0.63650  0.30146  1.0000 0.1756926916
C   C218      1.0  0.86690  0.23040  0.63479  1.0000 0.1756926916
C   C219      1.0  0.36350  0.13310  0.96812  1.0000 0.1756926916
C   C220      1.0  0.23040  0.36350  0.80146  1.0000 0.1756926916
C   C221      1.0  0.13310  0.76960  0.13479  1.0000 0.1756926916
C   C222      1.0  0.63650  0.86690  0.46812  1.0000 0.1756926916
C   C223      1.0  0.63510  0.71390  0.38463  1.0000 -0.2200036528
C   C224      1.0  0.28610  0.92120  0.05130  1.0000 -0.2200036528
C   C225      1.0  0.07880  0.36490  0.71796  1.0000 -0.2200036528
C   C226      1.0  0.36490  0.28610  0.88463  1.0000 -0.2200036528
C   C227      1.0  0.71390  0.07880  0.55130  1.0000 -0.2200036528
C   C228      1.0  0.92120  0.63510  0.21796  1.0000 -0.2200036528
C   C229      1.0  0.71390  0.63510  0.28204  1.0000 -0.2200036528
C   C230      1.0  0.92120  0.28610  0.61537  1.0000 -0.2200036528
C   C231      1.0  0.36490  0.07880  0.94870  1.0000 -0.2200036528
C   C232      1.0  0.28610  0.36490  0.78204  1.0000 -0.2200036528
C   C233      1.0  0.07880  0.71390  0.11537  1.0000 -0.2200036528
C   C234      1.0  0.63510  0.92120  0.44870  1.0000 -0.2200036528
C   C235      1.0  0.53590  0.67560  0.39786  1.0000 0.0666638021
C   C236      1.0  0.32440  0.86030  0.06453  1.0000 0.0666638021
C   C237      1.0  0.13970  0.46410  0.73119  1.0000 0.0666638021
C   C238      1.0  0.46410  0.32440  0.89786  1.0000 0.0666638021
C   C239      1.0  0.67560  0.13970  0.56453  1.0000 0.0666638021
C   C240      1.0  0.86030  0.53590  0.23119  1.0000 0.0666638021
C   C241      1.0  0.67560  0.53590  0.26881  1.0000 0.0666638021
C   C242      1.0  0.86030  0.32440  0.60214  1.0000 0.0666638021
C   C243      1.0  0.46410  0.13970  0.93547  1.0000 0.0666638021
C   C244      1.0  0.32440  0.46410  0.76881  1.0000 0.0666638021
C   C245      1.0  0.13970  0.67560  0.10214  1.0000 0.0666638021
C   C246      1.0  0.53590  0.86030  0.43547  1.0000 0.0666638021
C   C247      1.0  0.74370  0.81020  0.34970  1.0000 -0.2518211486
C   C248      1.0  0.18980  0.93350  0.01637  1.0000 -0.2518211486
C   C249      1.0  0.06650  0.25630  0.68303  1.0000 -0.2518211486
C   C250      1.0  0.25630  0.18980  0.84970  1.0000 -0.2518211486
C   C251      1.0  0.81020  0.06650  0.51637  1.0000 -0.2518211486
C   C252      1.0  0.93350  0.74370  0.18303  1.0000 -0.2518211486
C   C253      1.0  0.81020  0.74370  0.31697  1.0000 -0.2518211486
C   C254      1.0  0.93350  0.18980  0.65030  1.0000 -0.2518211486
C   C255      1.0  0.25630  0.06650  0.98363  1.0000 -0.2518211486
C   C256      1.0  0.18980  0.25630  0.81697  1.0000 -0.2518211486
C   C257      1.0  0.06650  0.81020  0.15030  1.0000 -0.2518211486
C   C258      1.0  0.74370  0.93350  0.48363  1.0000 -0.2518211486
C   C259      1.0  0.71230  0.71230  0.33333  1.0000 -0.1280223188
C   C260      1.0  0.28770  0.00000  0.00000  1.0000 -0.1280223188
C   C261      1.0  0.00000  0.28770  0.66667  1.0000 -0.1280223188
C   C262      1.0  0.28770  0.28770  0.83333  1.0000 -0.1280223188
C   C263      1.0  0.71230  0.00000  0.50000  1.0000 -0.1280223188
C   C264      1.0  0.00000  0.71230  0.16667  1.0000 -0.1280223188
N   N1        1.0  0.05290  0.48280  0.54405  1.0000 -0.5495380854
N   N2        1.0  0.51720  0.57010  0.21072  1.0000 -0.5495380854
N   N3        1.0  0.42990  0.94710  0.87738  1.0000 -0.5495380854
N   N4        1.0  0.94710  0.51720  0.04405  1.0000 -0.5495380854
N   N5        1.0  0.48280  0.42990  0.71072  1.0000 -0.5495380854
N   N6        1.0  0.57010  0.05290  0.37738  1.0000 -0.5495380854
N   N7        1.0  0.48280  0.05290  0.12262  1.0000 -0.5495380854
N   N8        1.0  0.57010  0.51720  0.45595  1.0000 -0.5495380854
N   N9        1.0  0.94710  0.42990  0.78928  1.0000 -0.5495380854
N   N10       1.0  0.51720  0.94710  0.62262  1.0000 -0.5495380854
N   N11       1.0  0.42990  0.48280  0.95595  1.0000 -0.5495380854
N   N12       1.0  0.05290  0.57010  0.28928  1.0000 -0.5495380854
N   N13       1.0  0.09110  0.43460  0.50914  1.0000 -0.6069185878
N   N14       1.0  0.56540  0.65650  0.17581  1.0000 -0.6069185878
N   N15       1.0  0.34350  0.90890  0.84247  1.0000 -0.6069185878
N   N16       1.0  0.90890  0.56540  0.00914  1.0000 -0.6069185878
N   N17       1.0  0.43460  0.34350  0.67581  1.0000 -0.6069185878
N   N18       1.0  0.65650  0.09110  0.34247  1.0000 -0.6069185878
N   N19       1.0  0.43460  0.09110  0.15753  1.0000 -0.6069185878
N   N20       1.0  0.65650  0.56540  0.49086  1.0000 -0.6069185878
N   N21       1.0  0.90890  0.34350  0.82419  1.0000 -0.6069185878
N   N22       1.0  0.56540  0.90890  0.65753  1.0000 -0.6069185878
N   N23       1.0  0.34350  0.43460  0.99086  1.0000 -0.6069185878
N   N24       1.0  0.09110  0.65650  0.32419  1.0000 -0.6069185878
N   N25       1.0  0.04860  0.59790  0.51328  1.0000 -0.5592577055
N   N26       1.0  0.40210  0.45070  0.17995  1.0000 -0.5592577055
N   N27       1.0  0.54930  0.95140  0.84661  1.0000 -0.5592577055
N   N28       1.0  0.95140  0.40210  0.01328  1.0000 -0.5592577055
N   N29       1.0  0.59790  0.54930  0.67995  1.0000 -0.5592577055
N   N30       1.0  0.45070  0.04860  0.34661  1.0000 -0.5592577055
N   N31       1.0  0.59790  0.04860  0.15339  1.0000 -0.5592577055
N   N32       1.0  0.45070  0.40210  0.48672  1.0000 -0.5592577055
N   N33       1.0  0.95140  0.54930  0.82005  1.0000 -0.5592577055
N   N34       1.0  0.40210  0.95140  0.65339  1.0000 -0.5592577055
N   N35       1.0  0.54930  0.59790  0.98672  1.0000 -0.5592577055
N   N36       1.0  0.04860  0.45070  0.32005  1.0000 -0.5592577055
N   N37       1.0  0.08370  0.31960  0.53775  1.0000 -0.2902228442
N   N38       1.0  0.68040  0.76410  0.20442  1.0000 -0.2902228442
N   N39       1.0  0.23590  0.91630  0.87108  1.0000 -0.2902228442
N   N40       1.0  0.91630  0.68040  0.03775  1.0000 -0.2902228442
N   N41       1.0  0.31960  0.23590  0.70442  1.0000 -0.2902228442
N   N42       1.0  0.76410  0.08370  0.37108  1.0000 -0.2902228442
N   N43       1.0  0.31960  0.08370  0.12892  1.0000 -0.2902228442
N   N44       1.0  0.76410  0.68040  0.46225  1.0000 -0.2902228442
N   N45       1.0  0.91630  0.23590  0.79558  1.0000 -0.2902228442
N   N46       1.0  0.68040  0.91630  0.62892  1.0000 -0.2902228442
N   N47       1.0  0.23590  0.31960  0.96225  1.0000 -0.2902228442
N   N48       1.0  0.08370  0.76410  0.29558  1.0000 -0.2902228442
N   N49       1.0  0.08960  0.54730  0.48047  1.0000 -0.3081285514
N   N50       1.0  0.45270  0.54230  0.14714  1.0000 -0.3081285514
N   N51       1.0  0.45770  0.91040  0.81380  1.0000 -0.3081285514
N   N52       1.0  0.91040  0.45270  0.98047  1.0000 -0.3081285514
N   N53       1.0  0.54730  0.45770  0.64714  1.0000 -0.3081285514
N   N54       1.0  0.54230  0.08960  0.31380  1.0000 -0.3081285514
N   N55       1.0  0.54730  0.08960  0.18620  1.0000 -0.3081285514
N   N56       1.0  0.54230  0.45270  0.51953  1.0000 -0.3081285514
N   N57       1.0  0.91040  0.45770  0.85286  1.0000 -0.3081285514
N   N58       1.0  0.45270  0.91040  0.68620  1.0000 -0.3081285514
N   N59       1.0  0.45770  0.54730  0.01953  1.0000 -0.3081285514
N   N60       1.0  0.08960  0.54230  0.35286  1.0000 -0.3081285514
N   N61       1.0  0.02180  0.64710  0.54720  1.0000 -0.3081285514
N   N62       1.0  0.35290  0.37470  0.21387  1.0000 -0.3081285514
N   N63       1.0  0.62530  0.97820  0.88053  1.0000 -0.3081285514
N   N64       1.0  0.97820  0.35290  0.04720  1.0000 -0.3081285514
N   N65       1.0  0.64710  0.62530  0.71387  1.0000 -0.3081285514
N   N66       1.0  0.37470  0.02180  0.38053  1.0000 -0.3081285514
N   N67       1.0  0.64710  0.02180  0.11947  1.0000 -0.3081285514
N   N68       1.0  0.37470  0.35290  0.45280  1.0000 -0.3081285514
N   N69       1.0  0.97820  0.62530  0.78613  1.0000 -0.3081285514
N   N70       1.0  0.35290  0.97820  0.61947  1.0000 -0.3081285514
N   N71       1.0  0.62530  0.64710  0.95280  1.0000 -0.3081285514
N   N72       1.0  0.02180  0.37470  0.28613  1.0000 -0.3081285514
N   N73       1.0  0.39370  0.71720  0.56165  1.0000 -0.2668177357
N   N74       1.0  0.28280  0.67650  0.22832  1.0000 -0.2668177357
N   N75       1.0  0.32350  0.60630  0.89498  1.0000 -0.2668177357
N   N76       1.0  0.60630  0.28280  0.06165  1.0000 -0.2668177357
N   N77       1.0  0.71720  0.32350  0.72832  1.0000 -0.2668177357
N   N78       1.0  0.67650  0.39370  0.39498  1.0000 -0.2668177357
N   N79       1.0  0.71720  0.39370  0.10502  1.0000 -0.2668177357
N   N80       1.0  0.67650  0.28280  0.43835  1.0000 -0.2668177357
N   N81       1.0  0.60630  0.32350  0.77168  1.0000 -0.2668177357
N   N82       1.0  0.28280  0.60630  0.60502  1.0000 -0.2668177357
N   N83       1.0  0.32350  0.71720  0.93835  1.0000 -0.2668177357
N   N84       1.0  0.39370  0.67650  0.27168  1.0000 -0.2668177357
N   N85       1.0  0.43730  0.68860  0.39365  1.0000 -0.2902228442
N   N86       1.0  0.31140  0.74870  0.06032  1.0000 -0.2902228442
N   N87       1.0  0.25130  0.56270  0.72698  1.0000 -0.2902228442
N   N88       1.0  0.56270  0.31140  0.89365  1.0000 -0.2902228442
N   N89       1.0  0.68860  0.25130  0.56032  1.0000 -0.2902228442
N   N90       1.0  0.74870  0.43730  0.22698  1.0000 -0.2902228442
N   N91       1.0  0.68860  0.43730  0.27302  1.0000 -0.2902228442
N   N92       1.0  0.74870  0.31140  0.60635  1.0000 -0.2902228442
N   N93       1.0  0.56270  0.25130  0.93968  1.0000 -0.2902228442
N   N94       1.0  0.31140  0.56270  0.77302  1.0000 -0.2902228442
N   N95       1.0  0.25130  0.68860  0.10635  1.0000 -0.2902228442
N   N96       1.0  0.43730  0.74870  0.43968  1.0000 -0.2902228442
O   O1        1.0  0.26720  0.45170  0.56650  1.0000 -0.5592577055
O   O2        1.0  0.54830  0.81550  0.23317  1.0000 -0.5592577055
O   O3        1.0  0.18450  0.73280  0.89983  1.0000 -0.5592577055
O   O4        1.0  0.73280  0.54830  0.06650  1.0000 -0.5592577055
O   O5        1.0  0.45170  0.18450  0.73317  1.0000 -0.5592577055
O   O6        1.0  0.81550  0.26720  0.39983  1.0000 -0.5592577055
O   O7        1.0  0.45170  0.26720  0.10017  1.0000 -0.5592577055
O   O8        1.0  0.81550  0.54830  0.43350  1.0000 -0.5592577055
O   O9        1.0  0.73280  0.18450  0.76683  1.0000 -0.5592577055
O   O10       1.0  0.54830  0.73280  0.60017  1.0000 -0.5592577055
O   O11       1.0  0.18450  0.45170  0.93350  1.0000 -0.5592577055
O   O12       1.0  0.26720  0.81550  0.26683  1.0000 -0.5592577055
O   O13       1.0  0.17940  0.30960  0.59185  1.0000 -0.5592577055
O   O14       1.0  0.69040  0.86980  0.25852  1.0000 -0.5592577055
O   O15       1.0  0.13020  0.82060  0.92518  1.0000 -0.5592577055
O   O16       1.0  0.82060  0.69040  0.09185  1.0000 -0.5592577055
O   O17       1.0  0.30960  0.13020  0.75852  1.0000 -0.5592577055
O   O18       1.0  0.86980  0.17940  0.42518  1.0000 -0.5592577055
O   O19       1.0  0.30960  0.17940  0.07482  1.0000 -0.5592577055
O   O20       1.0  0.86980  0.69040  0.40815  1.0000 -0.5592577055
O   O21       1.0  0.82060  0.13020  0.74148  1.0000 -0.5592577055
O   O22       1.0  0.69040  0.82060  0.57482  1.0000 -0.5592577055
O   O23       1.0  0.13020  0.30960  0.90815  1.0000 -0.5592577055
O   O24       1.0  0.17940  0.86980  0.24148  1.0000 -0.5592577055
O   O25       1.0  0.17100  0.61400  0.43995  1.0000 -0.5792278295
O   O26       1.0  0.38600  0.55700  0.10662  1.0000 -0.5792278295
O   O27       1.0  0.44300  0.82900  0.77328  1.0000 -0.5792278295
O   O28       1.0  0.82900  0.38600  0.93995  1.0000 -0.5792278295
O   O29       1.0  0.61400  0.44300  0.60662  1.0000 -0.5792278295
O   O30       1.0  0.55700  0.17100  0.27328  1.0000 -0.5792278295
O   O31       1.0  0.61400  0.17100  0.22672  1.0000 -0.5792278295
O   O32       1.0  0.55700  0.38600  0.56005  1.0000 -0.5792278295
O   O33       1.0  0.82900  0.44300  0.89338  1.0000 -0.5792278295
O   O34       1.0  0.38600  0.82900  0.72672  1.0000 -0.5792278295
O   O35       1.0  0.44300  0.61400  0.06005  1.0000 -0.5792278295
O   O36       1.0  0.17100  0.55700  0.39338  1.0000 -0.5792278295
O   O37       1.0  0.17210  0.79290  0.44338  1.0000 -0.5792278295
O   O38       1.0  0.20710  0.37920  0.11005  1.0000 -0.5792278295
O   O39       1.0  0.62080  0.82790  0.77671  1.0000 -0.5792278295
O   O40       1.0  0.82790  0.20710  0.94338  1.0000 -0.5792278295
O   O41       1.0  0.79290  0.62080  0.61005  1.0000 -0.5792278295
O   O42       1.0  0.37920  0.17210  0.27671  1.0000 -0.5792278295
O   O43       1.0  0.79290  0.17210  0.22329  1.0000 -0.5792278295
O   O44       1.0  0.37920  0.20710  0.55662  1.0000 -0.5792278295
O   O45       1.0  0.82790  0.62080  0.88995  1.0000 -0.5792278295
O   O46       1.0  0.20710  0.82790  0.72329  1.0000 -0.5792278295
O   O47       1.0  0.62080  0.79290  0.05662  1.0000 -0.5792278295
O   O48       1.0  0.17210  0.37920  0.38995  1.0000 -0.5792278295
O   O49       1.0  0.85700  0.73180  0.51154  1.0000 -0.4402407328
O   O50       1.0  0.26820  0.12520  0.17821  1.0000 -0.4402407328
O   O51       1.0  0.87480  0.14300  0.84487  1.0000 -0.4402407328
O   O52       1.0  0.14300  0.26820  0.01154  1.0000 -0.4402407328
O   O53       1.0  0.73180  0.87480  0.67821  1.0000 -0.4402407328
O   O54       1.0  0.12520  0.85700  0.34487  1.0000 -0.4402407328
O   O55       1.0  0.73180  0.85700  0.15513  1.0000 -0.4402407328
O   O56       1.0  0.12520  0.26820  0.48846  1.0000 -0.4402407328
O   O57       1.0  0.14300  0.87480  0.82179  1.0000 -0.4402407328
O   O58       1.0  0.26820  0.14300  0.65513  1.0000 -0.4402407328
O   O59       1.0  0.87480  0.73180  0.98846  1.0000 -0.4402407328
O   O60       1.0  0.85700  0.12520  0.32179  1.0000 -0.4402407328
O   O61       1.0  0.78260  0.58880  0.53683  1.0000 -0.5294000799
O   O62       1.0  0.41120  0.19380  0.20350  1.0000 -0.5294000799
O   O63       1.0  0.80620  0.21740  0.87016  1.0000 -0.5294000799
O   O64       1.0  0.21740  0.41120  0.03683  1.0000 -0.5294000799
O   O65       1.0  0.58880  0.80620  0.70350  1.0000 -0.5294000799
O   O66       1.0  0.19380  0.78260  0.37016  1.0000 -0.5294000799
O   O67       1.0  0.58880  0.78260  0.12984  1.0000 -0.5294000799
O   O68       1.0  0.19380  0.41120  0.46317  1.0000 -0.5294000799
O   O69       1.0  0.21740  0.80620  0.79650  1.0000 -0.5294000799
O   O70       1.0  0.41120  0.21740  0.62984  1.0000 -0.5294000799
O   O71       1.0  0.80620  0.58880  0.96317  1.0000 -0.5294000799
O   O72       1.0  0.78260  0.19380  0.29650  1.0000 -0.5294000799
O   O73       1.0  0.53480  0.59480  0.56238  1.0000 -0.6828316694
O   O74       1.0  0.40520  0.94000  0.22905  1.0000 -0.6828316694
O   O75       1.0  0.06000  0.46520  0.89571  1.0000 -0.6828316694
O   O76       1.0  0.46520  0.40520  0.06238  1.0000 -0.6828316694
O   O77       1.0  0.59480  0.06000  0.72905  1.0000 -0.6828316694
O   O78       1.0  0.94000  0.53480  0.39571  1.0000 -0.6828316694
O   O79       1.0  0.59480  0.53480  0.10429  1.0000 -0.6828316694
O   O80       1.0  0.94000  0.40520  0.43762  1.0000 -0.6828316694
O   O81       1.0  0.46520  0.06000  0.77095  1.0000 -0.6828316694
O   O82       1.0  0.40520  0.46520  0.60429  1.0000 -0.6828316694
O   O83       1.0  0.06000  0.59480  0.93762  1.0000 -0.6828316694
O   O84       1.0  0.53480  0.94000  0.27095  1.0000 -0.6828316694
O   O85       1.0  0.29670  0.80760  0.40854  1.0000 -0.6970446005
O   O86       1.0  0.19240  0.48910  0.07521  1.0000 -0.6970446005
O   O87       1.0  0.51090  0.70330  0.74187  1.0000 -0.6970446005
O   O88       1.0  0.70330  0.19240  0.90854  1.0000 -0.6970446005
O   O89       1.0  0.80760  0.51090  0.57521  1.0000 -0.6970446005
O   O90       1.0  0.48910  0.29670  0.24187  1.0000 -0.6970446005
O   O91       1.0  0.80760  0.29670  0.25813  1.0000 -0.6970446005
O   O92       1.0  0.48910  0.19240  0.59146  1.0000 -0.6970446005
O   O93       1.0  0.70330  0.51090  0.92479  1.0000 -0.6970446005
O   O94       1.0  0.19240  0.70330  0.75813  1.0000 -0.6970446005
O   O95       1.0  0.51090  0.80760  0.09146  1.0000 -0.6970446005
O   O96       1.0  0.29670  0.48910  0.42479  1.0000 -0.6970446005
