# DDEC6 charges by PACMAN v1.1 (https://github.com/mtap-research/PACMAN-charge/)
data_2007[Zn][lta]3[FSR]1
_chemical_formula_sum              "Zn48 H480 C480 N384"
_cell_length_a       32.1539
_cell_length_b       32.1539
_cell_length_c       32.1539
_cell_angle_alpha    60
_cell_angle_beta     60
_cell_angle_gamma    60

_symmetry_space_group_name_H-M    "P 1"
_symmetry_Int_Tables_number       1

loop_
  _symmetry_equiv_pos_as_xyz
  'x, y, z'

loop_
  _atom_site_type_symbol
  _atom_site_label
  _atom_site_symmetry_multiplicity
  _atom_site_fract_x
  _atom_site_fract_y
  _atom_site_fract_z
  _atom_site_occupancy
  _atom_site_charge
Zn  Zn1       1.0  0.97347  0.15773  0.52559  1.0000 0.6483910684
Zn  Zn2       1.0  0.52559  0.97347  0.15773  1.0000 0.6483910684
Zn  Zn3       1.0  0.15773  0.52559  0.97347  1.0000 0.6483910684
Zn  Zn4       1.0  0.02653  0.84227  0.65679  1.0000 0.6483910684
Zn  Zn5       1.0  0.47441  0.65679  0.84227  1.0000 0.6483910684
Zn  Zn6       1.0  0.65679  0.47441  0.02653  1.0000 0.6483910684
Zn  Zn7       1.0  0.47441  0.02653  0.65679  1.0000 0.6483910684
Zn  Zn8       1.0  0.65679  0.84227  0.47441  1.0000 0.6483910684
Zn  Zn9       1.0  0.84227  0.65679  0.02653  1.0000 0.6483910684
Zn  Zn10      1.0  0.84227  0.47441  0.65679  1.0000 0.6483910684
Zn  Zn11      1.0  0.02653  0.65679  0.47441  1.0000 0.6483910684
Zn  Zn12      1.0  0.65679  0.02653  0.84227  1.0000 0.6483910684
Zn  Zn13      1.0  0.15773  0.97347  0.34321  1.0000 0.6483910684
Zn  Zn14      1.0  0.52559  0.34321  0.97347  1.0000 0.6483910684
Zn  Zn15      1.0  0.34321  0.52559  0.15773  1.0000 0.6483910684
Zn  Zn16      1.0  0.34321  0.15773  0.97347  1.0000 0.6483910684
Zn  Zn17      1.0  0.97347  0.52559  0.34321  1.0000 0.6483910684
Zn  Zn18      1.0  0.15773  0.34321  0.52559  1.0000 0.6483910684
Zn  Zn19      1.0  0.97347  0.34321  0.15773  1.0000 0.6483910684
Zn  Zn20      1.0  0.34321  0.97347  0.52559  1.0000 0.6483910684
Zn  Zn21      1.0  0.52559  0.15773  0.34321  1.0000 0.6483910684
Zn  Zn22      1.0  0.84227  0.02653  0.47441  1.0000 0.6483910684
Zn  Zn23      1.0  0.02653  0.47441  0.84227  1.0000 0.6483910684
Zn  Zn24      1.0  0.47441  0.84227  0.02653  1.0000 0.6483910684
Zn  Zn25      1.0  0.02653  0.84227  0.47441  1.0000 0.6483910684
Zn  Zn26      1.0  0.47441  0.02653  0.84227  1.0000 0.6483910684
Zn  Zn27      1.0  0.84227  0.47441  0.02653  1.0000 0.6483910684
Zn  Zn28      1.0  0.97347  0.15773  0.34321  1.0000 0.6483910684
Zn  Zn29      1.0  0.52559  0.34321  0.15773  1.0000 0.6483910684
Zn  Zn30      1.0  0.34321  0.52559  0.97347  1.0000 0.6483910684
Zn  Zn31      1.0  0.52559  0.97347  0.34321  1.0000 0.6483910684
Zn  Zn32      1.0  0.34321  0.15773  0.52559  1.0000 0.6483910684
Zn  Zn33      1.0  0.15773  0.34321  0.97347  1.0000 0.6483910684
Zn  Zn34      1.0  0.15773  0.52559  0.34321  1.0000 0.6483910684
Zn  Zn35      1.0  0.97347  0.34321  0.52559  1.0000 0.6483910684
Zn  Zn36      1.0  0.34321  0.97347  0.15773  1.0000 0.6483910684
Zn  Zn37      1.0  0.84227  0.02653  0.65679  1.0000 0.6483910684
Zn  Zn38      1.0  0.47441  0.65679  0.02653  1.0000 0.6483910684
Zn  Zn39      1.0  0.65679  0.47441  0.84227  1.0000 0.6483910684
Zn  Zn40      1.0  0.65679  0.84227  0.02653  1.0000 0.6483910684
Zn  Zn41      1.0  0.02653  0.47441  0.65679  1.0000 0.6483910684
Zn  Zn42      1.0  0.84227  0.65679  0.47441  1.0000 0.6483910684
Zn  Zn43      1.0  0.02653  0.65679  0.84227  1.0000 0.6483910684
Zn  Zn44      1.0  0.65679  0.02653  0.47441  1.0000 0.6483910684
Zn  Zn45      1.0  0.47441  0.84227  0.65679  1.0000 0.6483910684
Zn  Zn46      1.0  0.15773  0.97347  0.52559  1.0000 0.6483910684
Zn  Zn47      1.0  0.97347  0.52559  0.15773  1.0000 0.6483910684
Zn  Zn48      1.0  0.52559  0.15773  0.97347  1.0000 0.6483910684
H   H1        1.0  0.94680  0.15080  0.45120  1.0000 0.0998576625
H   H2        1.0  0.45120  0.94680  0.15080  1.0000 0.0998576625
H   H3        1.0  0.15080  0.45120  0.94680  1.0000 0.0998576625
H   H4        1.0  0.05320  0.84920  0.54880  1.0000 0.0998576625
H   H5        1.0  0.54880  0.54880  0.84920  1.0000 0.0998576625
H   H6        1.0  0.54880  0.54880  0.05320  1.0000 0.0998576625
H   H7        1.0  0.54880  0.05320  0.54880  1.0000 0.0998576625
H   H8        1.0  0.54880  0.84920  0.54880  1.0000 0.0998576625
H   H9        1.0  0.84920  0.54880  0.05320  1.0000 0.0998576625
H   H10       1.0  0.84920  0.54880  0.54880  1.0000 0.0998576625
H   H11       1.0  0.05320  0.54880  0.54880  1.0000 0.0998576625
H   H12       1.0  0.54880  0.05320  0.84920  1.0000 0.0998576625
H   H13       1.0  0.15080  0.94680  0.45120  1.0000 0.0998576625
H   H14       1.0  0.45120  0.45120  0.94680  1.0000 0.0998576625
H   H15       1.0  0.45120  0.45120  0.15080  1.0000 0.0998576625
H   H16       1.0  0.45120  0.15080  0.94680  1.0000 0.0998576625
H   H17       1.0  0.94680  0.45120  0.45120  1.0000 0.0998576625
H   H18       1.0  0.15080  0.45120  0.45120  1.0000 0.0998576625
H   H19       1.0  0.94680  0.45120  0.15080  1.0000 0.0998576625
H   H20       1.0  0.45120  0.94680  0.45120  1.0000 0.0998576625
H   H21       1.0  0.45120  0.15080  0.45120  1.0000 0.0998576625
H   H22       1.0  0.84920  0.05320  0.54880  1.0000 0.0998576625
H   H23       1.0  0.05320  0.54880  0.84920  1.0000 0.0998576625
H   H24       1.0  0.54880  0.84920  0.05320  1.0000 0.0998576625
H   H25       1.0  0.12900  0.22220  0.35840  1.0000 0.0913209066
H   H26       1.0  0.35840  0.12900  0.22220  1.0000 0.0913209066
H   H27       1.0  0.22220  0.35840  0.12900  1.0000 0.0913209066
H   H28       1.0  0.87100  0.77780  0.70960  1.0000 0.0913209066
H   H29       1.0  0.64160  0.70960  0.77780  1.0000 0.0913209066
H   H30       1.0  0.70960  0.64160  0.87100  1.0000 0.0913209066
H   H31       1.0  0.64160  0.87100  0.70960  1.0000 0.0913209066
H   H32       1.0  0.70960  0.77780  0.64160  1.0000 0.0913209066
H   H33       1.0  0.77780  0.70960  0.87100  1.0000 0.0913209066
H   H34       1.0  0.77780  0.64160  0.70960  1.0000 0.0913209066
H   H35       1.0  0.87100  0.70960  0.64160  1.0000 0.0913209066
H   H36       1.0  0.70960  0.87100  0.77780  1.0000 0.0913209066
H   H37       1.0  0.22220  0.12900  0.29040  1.0000 0.0913209066
H   H38       1.0  0.35840  0.29040  0.12900  1.0000 0.0913209066
H   H39       1.0  0.29040  0.35840  0.22220  1.0000 0.0913209066
H   H40       1.0  0.29040  0.22220  0.12900  1.0000 0.0913209066
H   H41       1.0  0.12900  0.35840  0.29040  1.0000 0.0913209066
H   H42       1.0  0.22220  0.29040  0.35840  1.0000 0.0913209066
H   H43       1.0  0.12900  0.29040  0.22220  1.0000 0.0913209066
H   H44       1.0  0.29040  0.12900  0.35840  1.0000 0.0913209066
H   H45       1.0  0.35840  0.22220  0.29040  1.0000 0.0913209066
H   H46       1.0  0.77780  0.87100  0.64160  1.0000 0.0913209066
H   H47       1.0  0.87100  0.64160  0.77780  1.0000 0.0913209066
H   H48       1.0  0.64160  0.77780  0.87100  1.0000 0.0913209066
H   H49       1.0  0.87100  0.77780  0.64160  1.0000 0.0913209066
H   H50       1.0  0.64160  0.87100  0.77780  1.0000 0.0913209066
H   H51       1.0  0.77780  0.64160  0.87100  1.0000 0.0913209066
H   H52       1.0  0.12900  0.22220  0.29040  1.0000 0.0913209066
H   H53       1.0  0.35840  0.29040  0.22220  1.0000 0.0913209066
H   H54       1.0  0.29040  0.35840  0.12900  1.0000 0.0913209066
H   H55       1.0  0.35840  0.12900  0.29040  1.0000 0.0913209066
H   H56       1.0  0.29040  0.22220  0.35840  1.0000 0.0913209066
H   H57       1.0  0.22220  0.29040  0.12900  1.0000 0.0913209066
H   H58       1.0  0.22220  0.35840  0.29040  1.0000 0.0913209066
H   H59       1.0  0.12900  0.29040  0.35840  1.0000 0.0913209066
H   H60       1.0  0.29040  0.12900  0.22220  1.0000 0.0913209066
H   H61       1.0  0.77780  0.87100  0.70960  1.0000 0.0913209066
H   H62       1.0  0.64160  0.70960  0.87100  1.0000 0.0913209066
H   H63       1.0  0.70960  0.64160  0.77780  1.0000 0.0913209066
H   H64       1.0  0.70960  0.77780  0.87100  1.0000 0.0913209066
H   H65       1.0  0.87100  0.64160  0.70960  1.0000 0.0913209066
H   H66       1.0  0.77780  0.70960  0.64160  1.0000 0.0913209066
H   H67       1.0  0.87100  0.70960  0.77780  1.0000 0.0913209066
H   H68       1.0  0.70960  0.87100  0.64160  1.0000 0.0913209066
H   H69       1.0  0.64160  0.77780  0.70960  1.0000 0.0913209066
H   H70       1.0  0.22220  0.12900  0.35840  1.0000 0.0913209066
H   H71       1.0  0.12900  0.35840  0.22220  1.0000 0.0913209066
H   H72       1.0  0.35840  0.22220  0.12900  1.0000 0.0913209066
H   H73       1.0  0.93910  0.06090  0.59350  1.0000 0.0998576625
H   H74       1.0  0.59350  0.93910  0.06090  1.0000 0.0998576625
H   H75       1.0  0.06090  0.59350  0.93910  1.0000 0.0998576625
H   H76       1.0  0.06090  0.93910  0.59350  1.0000 0.0998576625
H   H77       1.0  0.40650  0.59350  0.93910  1.0000 0.0998576625
H   H78       1.0  0.59350  0.40650  0.06090  1.0000 0.0998576625
H   H79       1.0  0.40650  0.06090  0.59350  1.0000 0.0998576625
H   H80       1.0  0.59350  0.93910  0.40650  1.0000 0.0998576625
H   H81       1.0  0.93910  0.59350  0.06090  1.0000 0.0998576625
H   H82       1.0  0.93910  0.40650  0.59350  1.0000 0.0998576625
H   H83       1.0  0.06090  0.59350  0.40650  1.0000 0.0998576625
H   H84       1.0  0.59350  0.06090  0.93910  1.0000 0.0998576625
H   H85       1.0  0.06090  0.93910  0.40650  1.0000 0.0998576625
H   H86       1.0  0.59350  0.40650  0.93910  1.0000 0.0998576625
H   H87       1.0  0.40650  0.59350  0.06090  1.0000 0.0998576625
H   H88       1.0  0.40650  0.06090  0.93910  1.0000 0.0998576625
H   H89       1.0  0.93910  0.59350  0.40650  1.0000 0.0998576625
H   H90       1.0  0.06090  0.40650  0.59350  1.0000 0.0998576625
H   H91       1.0  0.93910  0.40650  0.06090  1.0000 0.0998576625
H   H92       1.0  0.40650  0.93910  0.59350  1.0000 0.0998576625
H   H93       1.0  0.59350  0.06090  0.40650  1.0000 0.0998576625
H   H94       1.0  0.93910  0.06090  0.40650  1.0000 0.0998576625
H   H95       1.0  0.06090  0.40650  0.93910  1.0000 0.0998576625
H   H96       1.0  0.40650  0.93910  0.06090  1.0000 0.0998576625
H   H97       1.0  0.86670  0.23690  0.51110  1.0000 0.1187004191
H   H98       1.0  0.51110  0.86670  0.23690  1.0000 0.1187004191
H   H99       1.0  0.23690  0.51110  0.86670  1.0000 0.1187004191
H   H100      1.0  0.13330  0.76310  0.61470  1.0000 0.1187004191
H   H101      1.0  0.48890  0.61470  0.76310  1.0000 0.1187004191
H   H102      1.0  0.61470  0.48890  0.13330  1.0000 0.1187004191
H   H103      1.0  0.48890  0.13330  0.61470  1.0000 0.1187004191
H   H104      1.0  0.61470  0.76310  0.48890  1.0000 0.1187004191
H   H105      1.0  0.76310  0.61470  0.13330  1.0000 0.1187004191
H   H106      1.0  0.76310  0.48890  0.61470  1.0000 0.1187004191
H   H107      1.0  0.13330  0.61470  0.48890  1.0000 0.1187004191
H   H108      1.0  0.61470  0.13330  0.76310  1.0000 0.1187004191
H   H109      1.0  0.23690  0.86670  0.38530  1.0000 0.1187004191
H   H110      1.0  0.51110  0.38530  0.86670  1.0000 0.1187004191
H   H111      1.0  0.38530  0.51110  0.23690  1.0000 0.1187004191
H   H112      1.0  0.38530  0.23690  0.86670  1.0000 0.1187004191
H   H113      1.0  0.86670  0.51110  0.38530  1.0000 0.1187004191
H   H114      1.0  0.23690  0.38530  0.51110  1.0000 0.1187004191
H   H115      1.0  0.86670  0.38530  0.23690  1.0000 0.1187004191
H   H116      1.0  0.38530  0.86670  0.51110  1.0000 0.1187004191
H   H117      1.0  0.51110  0.23690  0.38530  1.0000 0.1187004191
H   H118      1.0  0.76310  0.13330  0.48890  1.0000 0.1187004191
H   H119      1.0  0.13330  0.48890  0.76310  1.0000 0.1187004191
H   H120      1.0  0.48890  0.76310  0.13330  1.0000 0.1187004191
H   H121      1.0  0.13330  0.76310  0.48890  1.0000 0.1187004191
H   H122      1.0  0.48890  0.13330  0.76310  1.0000 0.1187004191
H   H123      1.0  0.76310  0.48890  0.13330  1.0000 0.1187004191
H   H124      1.0  0.86670  0.23690  0.38530  1.0000 0.1187004191
H   H125      1.0  0.51110  0.38530  0.23690  1.0000 0.1187004191
H   H126      1.0  0.38530  0.51110  0.86670  1.0000 0.1187004191
H   H127      1.0  0.51110  0.86670  0.38530  1.0000 0.1187004191
H   H128      1.0  0.38530  0.23690  0.51110  1.0000 0.1187004191
H   H129      1.0  0.23690  0.38530  0.86670  1.0000 0.1187004191
H   H130      1.0  0.23690  0.51110  0.38530  1.0000 0.1187004191
H   H131      1.0  0.86670  0.38530  0.51110  1.0000 0.1187004191
H   H132      1.0  0.38530  0.86670  0.23690  1.0000 0.1187004191
H   H133      1.0  0.76310  0.13330  0.61470  1.0000 0.1187004191
H   H134      1.0  0.48890  0.61470  0.13330  1.0000 0.1187004191
H   H135      1.0  0.61470  0.48890  0.76310  1.0000 0.1187004191
H   H136      1.0  0.61470  0.76310  0.13330  1.0000 0.1187004191
H   H137      1.0  0.13330  0.48890  0.61470  1.0000 0.1187004191
H   H138      1.0  0.76310  0.61470  0.48890  1.0000 0.1187004191
H   H139      1.0  0.13330  0.61470  0.76310  1.0000 0.1187004191
H   H140      1.0  0.61470  0.13330  0.48890  1.0000 0.1187004191
H   H141      1.0  0.48890  0.76310  0.61470  1.0000 0.1187004191
H   H142      1.0  0.23690  0.86670  0.51110  1.0000 0.1187004191
H   H143      1.0  0.86670  0.51110  0.23690  1.0000 0.1187004191
H   H144      1.0  0.51110  0.23690  0.86670  1.0000 0.1187004191
H   H145      1.0  0.99480  0.25940  0.48640  1.0000 0.0830139287
H   H146      1.0  0.48640  0.99480  0.25940  1.0000 0.0830139287
H   H147      1.0  0.25940  0.48640  0.99480  1.0000 0.0830139287
H   H148      1.0  0.00520  0.74060  0.74060  1.0000 0.0830139287
H   H149      1.0  0.51360  0.74060  0.74060  1.0000 0.0830139287
H   H150      1.0  0.74060  0.51360  0.00520  1.0000 0.0830139287
H   H151      1.0  0.51360  0.00520  0.74060  1.0000 0.0830139287
H   H152      1.0  0.74060  0.74060  0.51360  1.0000 0.0830139287
H   H153      1.0  0.74060  0.74060  0.00520  1.0000 0.0830139287
H   H154      1.0  0.74060  0.51360  0.74060  1.0000 0.0830139287
H   H155      1.0  0.00520  0.74060  0.51360  1.0000 0.0830139287
H   H156      1.0  0.74060  0.00520  0.74060  1.0000 0.0830139287
H   H157      1.0  0.25940  0.99480  0.25940  1.0000 0.0830139287
H   H158      1.0  0.48640  0.25940  0.99480  1.0000 0.0830139287
H   H159      1.0  0.25940  0.48640  0.25940  1.0000 0.0830139287
H   H160      1.0  0.25940  0.25940  0.99480  1.0000 0.0830139287
H   H161      1.0  0.99480  0.48640  0.25940  1.0000 0.0830139287
H   H162      1.0  0.25940  0.25940  0.48640  1.0000 0.0830139287
H   H163      1.0  0.99480  0.25940  0.25940  1.0000 0.0830139287
H   H164      1.0  0.25940  0.99480  0.48640  1.0000 0.0830139287
H   H165      1.0  0.48640  0.25940  0.25940  1.0000 0.0830139287
H   H166      1.0  0.74060  0.00520  0.51360  1.0000 0.0830139287
H   H167      1.0  0.00520  0.51360  0.74060  1.0000 0.0830139287
H   H168      1.0  0.51360  0.74060  0.00520  1.0000 0.0830139287
H   H169      1.0  0.89470  0.16170  0.63490  1.0000 0.1109452311
H   H170      1.0  0.63490  0.89470  0.16170  1.0000 0.1109452311
H   H171      1.0  0.16170  0.63490  0.89470  1.0000 0.1109452311
H   H172      1.0  0.10530  0.83830  0.69130  1.0000 0.1109452311
H   H173      1.0  0.36510  0.69130  0.83830  1.0000 0.1109452311
H   H174      1.0  0.69130  0.36510  0.10530  1.0000 0.1109452311
H   H175      1.0  0.36510  0.10530  0.69130  1.0000 0.1109452311
H   H176      1.0  0.69130  0.83830  0.36510  1.0000 0.1109452311
H   H177      1.0  0.83830  0.69130  0.10530  1.0000 0.1109452311
H   H178      1.0  0.83830  0.36510  0.69130  1.0000 0.1109452311
H   H179      1.0  0.10530  0.69130  0.36510  1.0000 0.1109452311
H   H180      1.0  0.69130  0.10530  0.83830  1.0000 0.1109452311
H   H181      1.0  0.16170  0.89470  0.30870  1.0000 0.1109452311
H   H182      1.0  0.63490  0.30870  0.89470  1.0000 0.1109452311
H   H183      1.0  0.30870  0.63490  0.16170  1.0000 0.1109452311
H   H184      1.0  0.30870  0.16170  0.89470  1.0000 0.1109452311
H   H185      1.0  0.89470  0.63490  0.30870  1.0000 0.1109452311
H   H186      1.0  0.16170  0.30870  0.63490  1.0000 0.1109452311
H   H187      1.0  0.89470  0.30870  0.16170  1.0000 0.1109452311
H   H188      1.0  0.30870  0.89470  0.63490  1.0000 0.1109452311
H   H189      1.0  0.63490  0.16170  0.30870  1.0000 0.1109452311
H   H190      1.0  0.83830  0.10530  0.36510  1.0000 0.1109452311
H   H191      1.0  0.10530  0.36510  0.83830  1.0000 0.1109452311
H   H192      1.0  0.36510  0.83830  0.10530  1.0000 0.1109452311
H   H193      1.0  0.10530  0.83830  0.36510  1.0000 0.1109452311
H   H194      1.0  0.36510  0.10530  0.83830  1.0000 0.1109452311
H   H195      1.0  0.83830  0.36510  0.10530  1.0000 0.1109452311
H   H196      1.0  0.89470  0.16170  0.30870  1.0000 0.1109452311
H   H197      1.0  0.63490  0.30870  0.16170  1.0000 0.1109452311
H   H198      1.0  0.30870  0.63490  0.89470  1.0000 0.1109452311
H   H199      1.0  0.63490  0.89470  0.30870  1.0000 0.1109452311
H   H200      1.0  0.30870  0.16170  0.63490  1.0000 0.1109452311
H   H201      1.0  0.16170  0.30870  0.89470  1.0000 0.1109452311
H   H202      1.0  0.16170  0.63490  0.30870  1.0000 0.1109452311
H   H203      1.0  0.89470  0.30870  0.63490  1.0000 0.1109452311
H   H204      1.0  0.30870  0.89470  0.16170  1.0000 0.1109452311
H   H205      1.0  0.83830  0.10530  0.69130  1.0000 0.1109452311
H   H206      1.0  0.36510  0.69130  0.10530  1.0000 0.1109452311
H   H207      1.0  0.69130  0.36510  0.83830  1.0000 0.1109452311
H   H208      1.0  0.69130  0.83830  0.10530  1.0000 0.1109452311
H   H209      1.0  0.10530  0.36510  0.69130  1.0000 0.1109452311
H   H210      1.0  0.83830  0.69130  0.36510  1.0000 0.1109452311
H   H211      1.0  0.10530  0.69130  0.83830  1.0000 0.1109452311
H   H212      1.0  0.69130  0.10530  0.36510  1.0000 0.1109452311
H   H213      1.0  0.36510  0.83830  0.69130  1.0000 0.1109452311
H   H214      1.0  0.16170  0.89470  0.63490  1.0000 0.1109452311
H   H215      1.0  0.89470  0.63490  0.16170  1.0000 0.1109452311
H   H216      1.0  0.63490  0.16170  0.89470  1.0000 0.1109452311
H   H217      1.0  0.06160  0.06160  0.50140  1.0000 0.0998576625
H   H218      1.0  0.50140  0.06160  0.06160  1.0000 0.0998576625
H   H219      1.0  0.06160  0.50140  0.06160  1.0000 0.0998576625
H   H220      1.0  0.93840  0.93840  0.62460  1.0000 0.0998576625
H   H221      1.0  0.49860  0.62460  0.93840  1.0000 0.0998576625
H   H222      1.0  0.62460  0.49860  0.93840  1.0000 0.0998576625
H   H223      1.0  0.49860  0.93840  0.62460  1.0000 0.0998576625
H   H224      1.0  0.62460  0.93840  0.49860  1.0000 0.0998576625
H   H225      1.0  0.93840  0.62460  0.93840  1.0000 0.0998576625
H   H226      1.0  0.93840  0.49860  0.62460  1.0000 0.0998576625
H   H227      1.0  0.93840  0.62460  0.49860  1.0000 0.0998576625
H   H228      1.0  0.62460  0.93840  0.93840  1.0000 0.0998576625
H   H229      1.0  0.06160  0.06160  0.37540  1.0000 0.0998576625
H   H230      1.0  0.50140  0.37540  0.06160  1.0000 0.0998576625
H   H231      1.0  0.37540  0.50140  0.06160  1.0000 0.0998576625
H   H232      1.0  0.37540  0.06160  0.06160  1.0000 0.0998576625
H   H233      1.0  0.06160  0.50140  0.37540  1.0000 0.0998576625
H   H234      1.0  0.06160  0.37540  0.50140  1.0000 0.0998576625
H   H235      1.0  0.06160  0.37540  0.06160  1.0000 0.0998576625
H   H236      1.0  0.37540  0.06160  0.50140  1.0000 0.0998576625
H   H237      1.0  0.50140  0.06160  0.37540  1.0000 0.0998576625
H   H238      1.0  0.93840  0.93840  0.49860  1.0000 0.0998576625
H   H239      1.0  0.93840  0.49860  0.93840  1.0000 0.0998576625
H   H240      1.0  0.49860  0.93840  0.93840  1.0000 0.0998576625
H   H241      1.0  0.04320  0.11140  0.67360  1.0000 0.0998576625
H   H242      1.0  0.67360  0.04320  0.11140  1.0000 0.0998576625
H   H243      1.0  0.11140  0.67360  0.04320  1.0000 0.0998576625
H   H244      1.0  0.95680  0.88860  0.82820  1.0000 0.0998576625
H   H245      1.0  0.32640  0.82820  0.88860  1.0000 0.0998576625
H   H246      1.0  0.82820  0.32640  0.95680  1.0000 0.0998576625
H   H247      1.0  0.32640  0.95680  0.82820  1.0000 0.0998576625
H   H248      1.0  0.82820  0.88860  0.32640  1.0000 0.0998576625
H   H249      1.0  0.88860  0.82820  0.95680  1.0000 0.0998576625
H   H250      1.0  0.88860  0.32640  0.82820  1.0000 0.0998576625
H   H251      1.0  0.95680  0.82820  0.32640  1.0000 0.0998576625
H   H252      1.0  0.82820  0.95680  0.88860  1.0000 0.0998576625
H   H253      1.0  0.11140  0.04320  0.17180  1.0000 0.0998576625
H   H254      1.0  0.67360  0.17180  0.04320  1.0000 0.0998576625
H   H255      1.0  0.17180  0.67360  0.11140  1.0000 0.0998576625
H   H256      1.0  0.17180  0.11140  0.04320  1.0000 0.0998576625
H   H257      1.0  0.04320  0.67360  0.17180  1.0000 0.0998576625
H   H258      1.0  0.11140  0.17180  0.67360  1.0000 0.0998576625
H   H259      1.0  0.04320  0.17180  0.11140  1.0000 0.0998576625
H   H260      1.0  0.17180  0.04320  0.67360  1.0000 0.0998576625
H   H261      1.0  0.67360  0.11140  0.17180  1.0000 0.0998576625
H   H262      1.0  0.88860  0.95680  0.32640  1.0000 0.0998576625
H   H263      1.0  0.95680  0.32640  0.88860  1.0000 0.0998576625
H   H264      1.0  0.32640  0.88860  0.95680  1.0000 0.0998576625
H   H265      1.0  0.95680  0.88860  0.32640  1.0000 0.0998576625
H   H266      1.0  0.32640  0.95680  0.88860  1.0000 0.0998576625
H   H267      1.0  0.88860  0.32640  0.95680  1.0000 0.0998576625
H   H268      1.0  0.04320  0.11140  0.17180  1.0000 0.0998576625
H   H269      1.0  0.67360  0.17180  0.11140  1.0000 0.0998576625
H   H270      1.0  0.17180  0.67360  0.04320  1.0000 0.0998576625
H   H271      1.0  0.67360  0.04320  0.17180  1.0000 0.0998576625
H   H272      1.0  0.17180  0.11140  0.67360  1.0000 0.0998576625
H   H273      1.0  0.11140  0.17180  0.04320  1.0000 0.0998576625
H   H274      1.0  0.11140  0.67360  0.17180  1.0000 0.0998576625
H   H275      1.0  0.04320  0.17180  0.67360  1.0000 0.0998576625
H   H276      1.0  0.17180  0.04320  0.11140  1.0000 0.0998576625
H   H277      1.0  0.88860  0.95680  0.82820  1.0000 0.0998576625
H   H278      1.0  0.32640  0.82820  0.95680  1.0000 0.0998576625
H   H279      1.0  0.82820  0.32640  0.88860  1.0000 0.0998576625
H   H280      1.0  0.82820  0.88860  0.95680  1.0000 0.0998576625
H   H281      1.0  0.95680  0.32640  0.82820  1.0000 0.0998576625
H   H282      1.0  0.88860  0.82820  0.32640  1.0000 0.0998576625
H   H283      1.0  0.95680  0.82820  0.88860  1.0000 0.0998576625
H   H284      1.0  0.82820  0.95680  0.32640  1.0000 0.0998576625
H   H285      1.0  0.32640  0.88860  0.82820  1.0000 0.0998576625
H   H286      1.0  0.11140  0.04320  0.67360  1.0000 0.0998576625
H   H287      1.0  0.04320  0.67360  0.11140  1.0000 0.0998576625
H   H288      1.0  0.67360  0.11140  0.04320  1.0000 0.0998576625
H   H289      1.0  0.06960  0.20100  0.43800  1.0000 0.256540885
H   H290      1.0  0.43800  0.06960  0.20100  1.0000 0.256540885
H   H291      1.0  0.20100  0.43800  0.06960  1.0000 0.256540885
H   H292      1.0  0.93040  0.79900  0.70860  1.0000 0.256540885
H   H293      1.0  0.56200  0.70860  0.79900  1.0000 0.256540885
H   H294      1.0  0.70860  0.56200  0.93040  1.0000 0.256540885
H   H295      1.0  0.56200  0.93040  0.70860  1.0000 0.256540885
H   H296      1.0  0.70860  0.79900  0.56200  1.0000 0.256540885
H   H297      1.0  0.79900  0.70860  0.93040  1.0000 0.256540885
H   H298      1.0  0.79900  0.56200  0.70860  1.0000 0.256540885
H   H299      1.0  0.93040  0.70860  0.56200  1.0000 0.256540885
H   H300      1.0  0.70860  0.93040  0.79900  1.0000 0.256540885
H   H301      1.0  0.20100  0.06960  0.29140  1.0000 0.256540885
H   H302      1.0  0.43800  0.29140  0.06960  1.0000 0.256540885
H   H303      1.0  0.29140  0.43800  0.20100  1.0000 0.256540885
H   H304      1.0  0.29140  0.20100  0.06960  1.0000 0.256540885
H   H305      1.0  0.06960  0.43800  0.29140  1.0000 0.256540885
H   H306      1.0  0.20100  0.29140  0.43800  1.0000 0.256540885
H   H307      1.0  0.06960  0.29140  0.20100  1.0000 0.256540885
H   H308      1.0  0.29140  0.06960  0.43800  1.0000 0.256540885
H   H309      1.0  0.43800  0.20100  0.29140  1.0000 0.256540885
H   H310      1.0  0.79900  0.93040  0.56200  1.0000 0.256540885
H   H311      1.0  0.93040  0.56200  0.79900  1.0000 0.256540885
H   H312      1.0  0.56200  0.79900  0.93040  1.0000 0.256540885
H   H313      1.0  0.93040  0.79900  0.56200  1.0000 0.256540885
H   H314      1.0  0.56200  0.93040  0.79900  1.0000 0.256540885
H   H315      1.0  0.79900  0.56200  0.93040  1.0000 0.256540885
H   H316      1.0  0.06960  0.20100  0.29140  1.0000 0.256540885
H   H317      1.0  0.43800  0.29140  0.20100  1.0000 0.256540885
H   H318      1.0  0.29140  0.43800  0.06960  1.0000 0.256540885
H   H319      1.0  0.43800  0.06960  0.29140  1.0000 0.256540885
H   H320      1.0  0.29140  0.20100  0.43800  1.0000 0.256540885
H   H321      1.0  0.20100  0.29140  0.06960  1.0000 0.256540885
H   H322      1.0  0.20100  0.43800  0.29140  1.0000 0.256540885
H   H323      1.0  0.06960  0.29140  0.43800  1.0000 0.256540885
H   H324      1.0  0.29140  0.06960  0.20100  1.0000 0.256540885
H   H325      1.0  0.79900  0.93040  0.70860  1.0000 0.256540885
H   H326      1.0  0.56200  0.70860  0.93040  1.0000 0.256540885
H   H327      1.0  0.70860  0.56200  0.79900  1.0000 0.256540885
H   H328      1.0  0.70860  0.79900  0.93040  1.0000 0.256540885
H   H329      1.0  0.93040  0.56200  0.70860  1.0000 0.256540885
H   H330      1.0  0.79900  0.70860  0.56200  1.0000 0.256540885
H   H331      1.0  0.93040  0.70860  0.79900  1.0000 0.256540885
H   H332      1.0  0.70860  0.93040  0.56200  1.0000 0.256540885
H   H333      1.0  0.56200  0.79900  0.70860  1.0000 0.256540885
H   H334      1.0  0.20100  0.06960  0.43800  1.0000 0.256540885
H   H335      1.0  0.06960  0.43800  0.20100  1.0000 0.256540885
H   H336      1.0  0.43800  0.20100  0.06960  1.0000 0.256540885
H   H337      1.0  0.78080  0.26660  0.52180  1.0000 0.2085835826
H   H338      1.0  0.52180  0.78080  0.26660  1.0000 0.2085835826
H   H339      1.0  0.26660  0.52180  0.78080  1.0000 0.2085835826
H   H340      1.0  0.21920  0.73340  0.56920  1.0000 0.2085835826
H   H341      1.0  0.47820  0.56920  0.73340  1.0000 0.2085835826
H   H342      1.0  0.56920  0.47820  0.21920  1.0000 0.2085835826
H   H343      1.0  0.47820  0.21920  0.56920  1.0000 0.2085835826
H   H344      1.0  0.56920  0.73340  0.47820  1.0000 0.2085835826
H   H345      1.0  0.73340  0.56920  0.21920  1.0000 0.2085835826
H   H346      1.0  0.73340  0.47820  0.56920  1.0000 0.2085835826
H   H347      1.0  0.21920  0.56920  0.47820  1.0000 0.2085835826
H   H348      1.0  0.56920  0.21920  0.73340  1.0000 0.2085835826
H   H349      1.0  0.26660  0.78080  0.43080  1.0000 0.2085835826
H   H350      1.0  0.52180  0.43080  0.78080  1.0000 0.2085835826
H   H351      1.0  0.43080  0.52180  0.26660  1.0000 0.2085835826
H   H352      1.0  0.43080  0.26660  0.78080  1.0000 0.2085835826
H   H353      1.0  0.78080  0.52180  0.43080  1.0000 0.2085835826
H   H354      1.0  0.26660  0.43080  0.52180  1.0000 0.2085835826
H   H355      1.0  0.78080  0.43080  0.26660  1.0000 0.2085835826
H   H356      1.0  0.43080  0.78080  0.52180  1.0000 0.2085835826
H   H357      1.0  0.52180  0.26660  0.43080  1.0000 0.2085835826
H   H358      1.0  0.73340  0.21920  0.47820  1.0000 0.2085835826
H   H359      1.0  0.21920  0.47820  0.73340  1.0000 0.2085835826
H   H360      1.0  0.47820  0.73340  0.21920  1.0000 0.2085835826
H   H361      1.0  0.21920  0.73340  0.47820  1.0000 0.2085835826
H   H362      1.0  0.47820  0.21920  0.73340  1.0000 0.2085835826
H   H363      1.0  0.73340  0.47820  0.21920  1.0000 0.2085835826
H   H364      1.0  0.78080  0.26660  0.43080  1.0000 0.2085835826
H   H365      1.0  0.52180  0.43080  0.26660  1.0000 0.2085835826
H   H366      1.0  0.43080  0.52180  0.78080  1.0000 0.2085835826
H   H367      1.0  0.52180  0.78080  0.43080  1.0000 0.2085835826
H   H368      1.0  0.43080  0.26660  0.52180  1.0000 0.2085835826
H   H369      1.0  0.26660  0.43080  0.78080  1.0000 0.2085835826
H   H370      1.0  0.26660  0.52180  0.43080  1.0000 0.2085835826
H   H371      1.0  0.78080  0.43080  0.52180  1.0000 0.2085835826
H   H372      1.0  0.43080  0.78080  0.26660  1.0000 0.2085835826
H   H373      1.0  0.73340  0.21920  0.56920  1.0000 0.2085835826
H   H374      1.0  0.47820  0.56920  0.21920  1.0000 0.2085835826
H   H375      1.0  0.56920  0.47820  0.73340  1.0000 0.2085835826
H   H376      1.0  0.56920  0.73340  0.21920  1.0000 0.2085835826
H   H377      1.0  0.21920  0.47820  0.56920  1.0000 0.2085835826
H   H378      1.0  0.73340  0.56920  0.47820  1.0000 0.2085835826
H   H379      1.0  0.21920  0.56920  0.73340  1.0000 0.2085835826
H   H380      1.0  0.56920  0.21920  0.47820  1.0000 0.2085835826
H   H381      1.0  0.47820  0.73340  0.56920  1.0000 0.2085835826
H   H382      1.0  0.26660  0.78080  0.52180  1.0000 0.2085835826
H   H383      1.0  0.78080  0.52180  0.26660  1.0000 0.2085835826
H   H384      1.0  0.52180  0.26660  0.78080  1.0000 0.2085835826
H   H385      1.0  0.84670  0.18990  0.70530  1.0000 0.1688641957
H   H386      1.0  0.70530  0.84670  0.18990  1.0000 0.1688641957
H   H387      1.0  0.18990  0.70530  0.84670  1.0000 0.1688641957
H   H388      1.0  0.15330  0.81010  0.74190  1.0000 0.1688641957
H   H389      1.0  0.29470  0.74190  0.81010  1.0000 0.1688641957
H   H390      1.0  0.74190  0.29470  0.15330  1.0000 0.1688641957
H   H391      1.0  0.29470  0.15330  0.74190  1.0000 0.1688641957
H   H392      1.0  0.74190  0.81010  0.29470  1.0000 0.1688641957
H   H393      1.0  0.81010  0.74190  0.15330  1.0000 0.1688641957
H   H394      1.0  0.81010  0.29470  0.74190  1.0000 0.1688641957
H   H395      1.0  0.15330  0.74190  0.29470  1.0000 0.1688641957
H   H396      1.0  0.74190  0.15330  0.81010  1.0000 0.1688641957
H   H397      1.0  0.18990  0.84670  0.25810  1.0000 0.1688641957
H   H398      1.0  0.70530  0.25810  0.84670  1.0000 0.1688641957
H   H399      1.0  0.25810  0.70530  0.18990  1.0000 0.1688641957
H   H400      1.0  0.25810  0.18990  0.84670  1.0000 0.1688641957
H   H401      1.0  0.84670  0.70530  0.25810  1.0000 0.1688641957
H   H402      1.0  0.18990  0.25810  0.70530  1.0000 0.1688641957
H   H403      1.0  0.84670  0.25810  0.18990  1.0000 0.1688641957
H   H404      1.0  0.25810  0.84670  0.70530  1.0000 0.1688641957
H   H405      1.0  0.70530  0.18990  0.25810  1.0000 0.1688641957
H   H406      1.0  0.81010  0.15330  0.29470  1.0000 0.1688641957
H   H407      1.0  0.15330  0.29470  0.81010  1.0000 0.1688641957
H   H408      1.0  0.29470  0.81010  0.15330  1.0000 0.1688641957
H   H409      1.0  0.15330  0.81010  0.29470  1.0000 0.1688641957
H   H410      1.0  0.29470  0.15330  0.81010  1.0000 0.1688641957
H   H411      1.0  0.81010  0.29470  0.15330  1.0000 0.1688641957
H   H412      1.0  0.84670  0.18990  0.25810  1.0000 0.1688641957
H   H413      1.0  0.70530  0.25810  0.18990  1.0000 0.1688641957
H   H414      1.0  0.25810  0.70530  0.84670  1.0000 0.1688641957
H   H415      1.0  0.70530  0.84670  0.25810  1.0000 0.1688641957
H   H416      1.0  0.25810  0.18990  0.70530  1.0000 0.1688641957
H   H417      1.0  0.18990  0.25810  0.84670  1.0000 0.1688641957
H   H418      1.0  0.18990  0.70530  0.25810  1.0000 0.1688641957
H   H419      1.0  0.84670  0.25810  0.70530  1.0000 0.1688641957
H   H420      1.0  0.25810  0.84670  0.18990  1.0000 0.1688641957
H   H421      1.0  0.81010  0.15330  0.74190  1.0000 0.1688641957
H   H422      1.0  0.29470  0.74190  0.15330  1.0000 0.1688641957
H   H423      1.0  0.74190  0.29470  0.81010  1.0000 0.1688641957
H   H424      1.0  0.74190  0.81010  0.15330  1.0000 0.1688641957
H   H425      1.0  0.15330  0.29470  0.74190  1.0000 0.1688641957
H   H426      1.0  0.81010  0.74190  0.29470  1.0000 0.1688641957
H   H427      1.0  0.15330  0.74190  0.81010  1.0000 0.1688641957
H   H428      1.0  0.74190  0.15330  0.29470  1.0000 0.1688641957
H   H429      1.0  0.29470  0.81010  0.74190  1.0000 0.1688641957
H   H430      1.0  0.18990  0.84670  0.70530  1.0000 0.1688641957
H   H431      1.0  0.84670  0.70530  0.18990  1.0000 0.1688641957
H   H432      1.0  0.70530  0.18990  0.84670  1.0000 0.1688641957
H   H433      1.0  0.99990  0.14710  0.61750  1.0000 0.2801777601
H   H434      1.0  0.61750  0.99990  0.14710  1.0000 0.2801777601
H   H435      1.0  0.14710  0.61750  0.99990  1.0000 0.2801777601
H   H436      1.0  0.00010  0.85290  0.76450  1.0000 0.2801777601
H   H437      1.0  0.38250  0.76450  0.85290  1.0000 0.2801777601
H   H438      1.0  0.76450  0.38250  0.00010  1.0000 0.2801777601
H   H439      1.0  0.38250  0.00010  0.76450  1.0000 0.2801777601
H   H440      1.0  0.76450  0.85290  0.38250  1.0000 0.2801777601
H   H441      1.0  0.85290  0.76450  0.00010  1.0000 0.2801777601
H   H442      1.0  0.85290  0.38250  0.76450  1.0000 0.2801777601
H   H443      1.0  0.00010  0.76450  0.38250  1.0000 0.2801777601
H   H444      1.0  0.76450  0.00010  0.85290  1.0000 0.2801777601
H   H445      1.0  0.14710  0.99990  0.23550  1.0000 0.2801777601
H   H446      1.0  0.61750  0.23550  0.99990  1.0000 0.2801777601
H   H447      1.0  0.23550  0.61750  0.14710  1.0000 0.2801777601
H   H448      1.0  0.23550  0.14710  0.99990  1.0000 0.2801777601
H   H449      1.0  0.99990  0.61750  0.23550  1.0000 0.2801777601
H   H450      1.0  0.14710  0.23550  0.61750  1.0000 0.2801777601
H   H451      1.0  0.99990  0.23550  0.14710  1.0000 0.2801777601
H   H452      1.0  0.23550  0.99990  0.61750  1.0000 0.2801777601
H   H453      1.0  0.61750  0.14710  0.23550  1.0000 0.2801777601
H   H454      1.0  0.85290  0.00010  0.38250  1.0000 0.2801777601
H   H455      1.0  0.00010  0.38250  0.85290  1.0000 0.2801777601
H   H456      1.0  0.38250  0.85290  0.00010  1.0000 0.2801777601
H   H457      1.0  0.00010  0.85290  0.38250  1.0000 0.2801777601
H   H458      1.0  0.38250  0.00010  0.85290  1.0000 0.2801777601
H   H459      1.0  0.85290  0.38250  0.00010  1.0000 0.2801777601
H   H460      1.0  0.99990  0.14710  0.23550  1.0000 0.2801777601
H   H461      1.0  0.61750  0.23550  0.14710  1.0000 0.2801777601
H   H462      1.0  0.23550  0.61750  0.99990  1.0000 0.2801777601
H   H463      1.0  0.61750  0.99990  0.23550  1.0000 0.2801777601
H   H464      1.0  0.23550  0.14710  0.61750  1.0000 0.2801777601
H   H465      1.0  0.14710  0.23550  0.99990  1.0000 0.2801777601
H   H466      1.0  0.14710  0.61750  0.23550  1.0000 0.2801777601
H   H467      1.0  0.99990  0.23550  0.61750  1.0000 0.2801777601
H   H468      1.0  0.23550  0.99990  0.14710  1.0000 0.2801777601
H   H469      1.0  0.85290  0.00010  0.76450  1.0000 0.2801777601
H   H470      1.0  0.38250  0.76450  0.00010  1.0000 0.2801777601
H   H471      1.0  0.76450  0.38250  0.85290  1.0000 0.2801777601
H   H472      1.0  0.76450  0.85290  0.00010  1.0000 0.2801777601
H   H473      1.0  0.00010  0.38250  0.76450  1.0000 0.2801777601
H   H474      1.0  0.85290  0.76450  0.38250  1.0000 0.2801777601
H   H475      1.0  0.00010  0.76450  0.85290  1.0000 0.2801777601
H   H476      1.0  0.76450  0.00010  0.38250  1.0000 0.2801777601
H   H477      1.0  0.38250  0.85290  0.76450  1.0000 0.2801777601
H   H478      1.0  0.14710  0.99990  0.61750  1.0000 0.2801777601
H   H479      1.0  0.99990  0.61750  0.14710  1.0000 0.2801777601
H   H480      1.0  0.61750  0.14710  0.99990  1.0000 0.2801777601
C   C1        1.0  0.97472  0.16308  0.43110  1.0000 0.1688641957
C   C2        1.0  0.43110  0.97472  0.16308  1.0000 0.1688641957
C   C3        1.0  0.16308  0.43110  0.97472  1.0000 0.1688641957
C   C4        1.0  0.02528  0.83692  0.56890  1.0000 0.1688641957
C   C5        1.0  0.56890  0.56890  0.83692  1.0000 0.1688641957
C   C6        1.0  0.56890  0.56890  0.02528  1.0000 0.1688641957
C   C7        1.0  0.56890  0.02528  0.56890  1.0000 0.1688641957
C   C8        1.0  0.56890  0.83692  0.56890  1.0000 0.1688641957
C   C9        1.0  0.83692  0.56890  0.02528  1.0000 0.1688641957
C   C10       1.0  0.83692  0.56890  0.56890  1.0000 0.1688641957
C   C11       1.0  0.02528  0.56890  0.56890  1.0000 0.1688641957
C   C12       1.0  0.56890  0.02528  0.83692  1.0000 0.1688641957
C   C13       1.0  0.16308  0.97472  0.43110  1.0000 0.1688641957
C   C14       1.0  0.43110  0.43110  0.97472  1.0000 0.1688641957
C   C15       1.0  0.43110  0.43110  0.16308  1.0000 0.1688641957
C   C16       1.0  0.43110  0.16308  0.97472  1.0000 0.1688641957
C   C17       1.0  0.97472  0.43110  0.43110  1.0000 0.1688641957
C   C18       1.0  0.16308  0.43110  0.43110  1.0000 0.1688641957
C   C19       1.0  0.97472  0.43110  0.16308  1.0000 0.1688641957
C   C20       1.0  0.43110  0.97472  0.43110  1.0000 0.1688641957
C   C21       1.0  0.43110  0.16308  0.43110  1.0000 0.1688641957
C   C22       1.0  0.83692  0.02528  0.56890  1.0000 0.1688641957
C   C23       1.0  0.02528  0.56890  0.83692  1.0000 0.1688641957
C   C24       1.0  0.56890  0.83692  0.02528  1.0000 0.1688641957
C   C25       1.0  0.03487  0.18677  0.41091  1.0000 0.1688641957
C   C26       1.0  0.41091  0.03487  0.18677  1.0000 0.1688641957
C   C27       1.0  0.18677  0.41091  0.03487  1.0000 0.1688641957
C   C28       1.0  0.96513  0.81323  0.63255  1.0000 0.1688641957
C   C29       1.0  0.58909  0.63255  0.81323  1.0000 0.1688641957
C   C30       1.0  0.63255  0.58909  0.96513  1.0000 0.1688641957
C   C31       1.0  0.58909  0.96513  0.63255  1.0000 0.1688641957
C   C32       1.0  0.63255  0.81323  0.58909  1.0000 0.1688641957
C   C33       1.0  0.81323  0.63255  0.96513  1.0000 0.1688641957
C   C34       1.0  0.81323  0.58909  0.63255  1.0000 0.1688641957
C   C35       1.0  0.96513  0.63255  0.58909  1.0000 0.1688641957
C   C36       1.0  0.63255  0.96513  0.81323  1.0000 0.1688641957
C   C37       1.0  0.18677  0.03487  0.36745  1.0000 0.1688641957
C   C38       1.0  0.41091  0.36745  0.03487  1.0000 0.1688641957
C   C39       1.0  0.36745  0.41091  0.18677  1.0000 0.1688641957
C   C40       1.0  0.36745  0.18677  0.03487  1.0000 0.1688641957
C   C41       1.0  0.03487  0.41091  0.36745  1.0000 0.1688641957
C   C42       1.0  0.18677  0.36745  0.41091  1.0000 0.1688641957
C   C43       1.0  0.03487  0.36745  0.18677  1.0000 0.1688641957
C   C44       1.0  0.36745  0.03487  0.41091  1.0000 0.1688641957
C   C45       1.0  0.41091  0.18677  0.36745  1.0000 0.1688641957
C   C46       1.0  0.81323  0.96513  0.58909  1.0000 0.1688641957
C   C47       1.0  0.96513  0.58909  0.81323  1.0000 0.1688641957
C   C48       1.0  0.58909  0.81323  0.96513  1.0000 0.1688641957
C   C49       1.0  0.96513  0.81323  0.58909  1.0000 0.1688641957
C   C50       1.0  0.58909  0.96513  0.81323  1.0000 0.1688641957
C   C51       1.0  0.81323  0.58909  0.96513  1.0000 0.1688641957
C   C52       1.0  0.03487  0.18677  0.36745  1.0000 0.1688641957
C   C53       1.0  0.41091  0.36745  0.18677  1.0000 0.1688641957
C   C54       1.0  0.36745  0.41091  0.03487  1.0000 0.1688641957
C   C55       1.0  0.41091  0.03487  0.36745  1.0000 0.1688641957
C   C56       1.0  0.36745  0.18677  0.41091  1.0000 0.1688641957
C   C57       1.0  0.18677  0.36745  0.03487  1.0000 0.1688641957
C   C58       1.0  0.18677  0.41091  0.36745  1.0000 0.1688641957
C   C59       1.0  0.03487  0.36745  0.41091  1.0000 0.1688641957
C   C60       1.0  0.36745  0.03487  0.18677  1.0000 0.1688641957
C   C61       1.0  0.81323  0.96513  0.63255  1.0000 0.1688641957
C   C62       1.0  0.58909  0.63255  0.96513  1.0000 0.1688641957
C   C63       1.0  0.63255  0.58909  0.81323  1.0000 0.1688641957
C   C64       1.0  0.63255  0.81323  0.96513  1.0000 0.1688641957
C   C65       1.0  0.96513  0.58909  0.63255  1.0000 0.1688641957
C   C66       1.0  0.81323  0.63255  0.58909  1.0000 0.1688641957
C   C67       1.0  0.96513  0.63255  0.81323  1.0000 0.1688641957
C   C68       1.0  0.63255  0.96513  0.58909  1.0000 0.1688641957
C   C69       1.0  0.58909  0.81323  0.63255  1.0000 0.1688641957
C   C70       1.0  0.18677  0.03487  0.41091  1.0000 0.1688641957
C   C71       1.0  0.03487  0.41091  0.18677  1.0000 0.1688641957
C   C72       1.0  0.41091  0.18677  0.03487  1.0000 0.1688641957
C   C73       1.0  0.10340  0.21280  0.36220  1.0000 -0.0876526252
C   C74       1.0  0.36220  0.10340  0.21280  1.0000 -0.0876526252
C   C75       1.0  0.21280  0.36220  0.10340  1.0000 -0.0876526252
C   C76       1.0  0.89660  0.78720  0.67840  1.0000 -0.0876526252
C   C77       1.0  0.63780  0.67840  0.78720  1.0000 -0.0876526252
C   C78       1.0  0.67840  0.63780  0.89660  1.0000 -0.0876526252
C   C79       1.0  0.63780  0.89660  0.67840  1.0000 -0.0876526252
C   C80       1.0  0.67840  0.78720  0.63780  1.0000 -0.0876526252
C   C81       1.0  0.78720  0.67840  0.89660  1.0000 -0.0876526252
C   C82       1.0  0.78720  0.63780  0.67840  1.0000 -0.0876526252
C   C83       1.0  0.89660  0.67840  0.63780  1.0000 -0.0876526252
C   C84       1.0  0.67840  0.89660  0.78720  1.0000 -0.0876526252
C   C85       1.0  0.21280  0.10340  0.32160  1.0000 -0.0876526252
C   C86       1.0  0.36220  0.32160  0.10340  1.0000 -0.0876526252
C   C87       1.0  0.32160  0.36220  0.21280  1.0000 -0.0876526252
C   C88       1.0  0.32160  0.21280  0.10340  1.0000 -0.0876526252
C   C89       1.0  0.10340  0.36220  0.32160  1.0000 -0.0876526252
C   C90       1.0  0.21280  0.32160  0.36220  1.0000 -0.0876526252
C   C91       1.0  0.10340  0.32160  0.21280  1.0000 -0.0876526252
C   C92       1.0  0.32160  0.10340  0.36220  1.0000 -0.0876526252
C   C93       1.0  0.36220  0.21280  0.32160  1.0000 -0.0876526252
C   C94       1.0  0.78720  0.89660  0.63780  1.0000 -0.0876526252
C   C95       1.0  0.89660  0.63780  0.78720  1.0000 -0.0876526252
C   C96       1.0  0.63780  0.78720  0.89660  1.0000 -0.0876526252
C   C97       1.0  0.89660  0.78720  0.63780  1.0000 -0.0876526252
C   C98       1.0  0.63780  0.89660  0.78720  1.0000 -0.0876526252
C   C99       1.0  0.78720  0.63780  0.89660  1.0000 -0.0876526252
C   C100      1.0  0.10340  0.21280  0.32160  1.0000 -0.0876526252
C   C101      1.0  0.36220  0.32160  0.21280  1.0000 -0.0876526252
C   C102      1.0  0.32160  0.36220  0.10340  1.0000 -0.0876526252
C   C103      1.0  0.36220  0.10340  0.32160  1.0000 -0.0876526252
C   C104      1.0  0.32160  0.21280  0.36220  1.0000 -0.0876526252
C   C105      1.0  0.21280  0.32160  0.10340  1.0000 -0.0876526252
C   C106      1.0  0.21280  0.36220  0.32160  1.0000 -0.0876526252
C   C107      1.0  0.10340  0.32160  0.36220  1.0000 -0.0876526252
C   C108      1.0  0.32160  0.10340  0.21280  1.0000 -0.0876526252
C   C109      1.0  0.78720  0.89660  0.67840  1.0000 -0.0876526252
C   C110      1.0  0.63780  0.67840  0.89660  1.0000 -0.0876526252
C   C111      1.0  0.67840  0.63780  0.78720  1.0000 -0.0876526252
C   C112      1.0  0.67840  0.78720  0.89660  1.0000 -0.0876526252
C   C113      1.0  0.89660  0.63780  0.67840  1.0000 -0.0876526252
C   C114      1.0  0.78720  0.67840  0.63780  1.0000 -0.0876526252
C   C115      1.0  0.89660  0.67840  0.78720  1.0000 -0.0876526252
C   C116      1.0  0.67840  0.89660  0.63780  1.0000 -0.0876526252
C   C117      1.0  0.63780  0.78720  0.67840  1.0000 -0.0876526252
C   C118      1.0  0.21280  0.10340  0.36220  1.0000 -0.0876526252
C   C119      1.0  0.10340  0.36220  0.21280  1.0000 -0.0876526252
C   C120      1.0  0.36220  0.21280  0.10340  1.0000 -0.0876526252
C   C121      1.0  0.91046  0.08954  0.58626  1.0000 0.1365088353
C   C122      1.0  0.58626  0.91046  0.08954  1.0000 0.1365088353
C   C123      1.0  0.08954  0.58626  0.91046  1.0000 0.1365088353
C   C124      1.0  0.08954  0.91046  0.58626  1.0000 0.1365088353
C   C125      1.0  0.41374  0.58626  0.91046  1.0000 0.1365088353
C   C126      1.0  0.58626  0.41374  0.08954  1.0000 0.1365088353
C   C127      1.0  0.41374  0.08954  0.58626  1.0000 0.1365088353
C   C128      1.0  0.58626  0.91046  0.41374  1.0000 0.1365088353
C   C129      1.0  0.91046  0.58626  0.08954  1.0000 0.1365088353
C   C130      1.0  0.91046  0.41374  0.58626  1.0000 0.1365088353
C   C131      1.0  0.08954  0.58626  0.41374  1.0000 0.1365088353
C   C132      1.0  0.58626  0.08954  0.91046  1.0000 0.1365088353
C   C133      1.0  0.08954  0.91046  0.41374  1.0000 0.1365088353
C   C134      1.0  0.58626  0.41374  0.91046  1.0000 0.1365088353
C   C135      1.0  0.41374  0.58626  0.08954  1.0000 0.1365088353
C   C136      1.0  0.41374  0.08954  0.91046  1.0000 0.1365088353
C   C137      1.0  0.91046  0.58626  0.41374  1.0000 0.1365088353
C   C138      1.0  0.08954  0.41374  0.58626  1.0000 0.1365088353
C   C139      1.0  0.91046  0.41374  0.08954  1.0000 0.1365088353
C   C140      1.0  0.41374  0.91046  0.58626  1.0000 0.1365088353
C   C141      1.0  0.58626  0.08954  0.41374  1.0000 0.1365088353
C   C142      1.0  0.91046  0.08954  0.41374  1.0000 0.1365088353
C   C143      1.0  0.08954  0.41374  0.91046  1.0000 0.1365088353
C   C144      1.0  0.41374  0.91046  0.08954  1.0000 0.1365088353
C   C145      1.0  0.86494  0.16522  0.55598  1.0000 0.0538397225
C   C146      1.0  0.55598  0.86494  0.16522  1.0000 0.0538397225
C   C147      1.0  0.16522  0.55598  0.86494  1.0000 0.0538397225
C   C148      1.0  0.13506  0.83478  0.58614  1.0000 0.0538397225
C   C149      1.0  0.44402  0.58614  0.83478  1.0000 0.0538397225
C   C150      1.0  0.58614  0.44402  0.13506  1.0000 0.0538397225
C   C151      1.0  0.44402  0.13506  0.58614  1.0000 0.0538397225
C   C152      1.0  0.58614  0.83478  0.44402  1.0000 0.0538397225
C   C153      1.0  0.83478  0.58614  0.13506  1.0000 0.0538397225
C   C154      1.0  0.83478  0.44402  0.58614  1.0000 0.0538397225
C   C155      1.0  0.13506  0.58614  0.44402  1.0000 0.0538397225
C   C156      1.0  0.58614  0.13506  0.83478  1.0000 0.0538397225
C   C157      1.0  0.16522  0.86494  0.41386  1.0000 0.0538397225
C   C158      1.0  0.55598  0.41386  0.86494  1.0000 0.0538397225
C   C159      1.0  0.41386  0.55598  0.16522  1.0000 0.0538397225
C   C160      1.0  0.41386  0.16522  0.86494  1.0000 0.0538397225
C   C161      1.0  0.86494  0.55598  0.41386  1.0000 0.0538397225
C   C162      1.0  0.16522  0.41386  0.55598  1.0000 0.0538397225
C   C163      1.0  0.86494  0.41386  0.16522  1.0000 0.0538397225
C   C164      1.0  0.41386  0.86494  0.55598  1.0000 0.0538397225
C   C165      1.0  0.55598  0.16522  0.41386  1.0000 0.0538397225
C   C166      1.0  0.83478  0.13506  0.44402  1.0000 0.0538397225
C   C167      1.0  0.13506  0.44402  0.83478  1.0000 0.0538397225
C   C168      1.0  0.44402  0.83478  0.13506  1.0000 0.0538397225
C   C169      1.0  0.13506  0.83478  0.44402  1.0000 0.0538397225
C   C170      1.0  0.44402  0.13506  0.83478  1.0000 0.0538397225
C   C171      1.0  0.83478  0.44402  0.13506  1.0000 0.0538397225
C   C172      1.0  0.86494  0.16522  0.41386  1.0000 0.0538397225
C   C173      1.0  0.55598  0.41386  0.16522  1.0000 0.0538397225
C   C174      1.0  0.41386  0.55598  0.86494  1.0000 0.0538397225
C   C175      1.0  0.55598  0.86494  0.41386  1.0000 0.0538397225
C   C176      1.0  0.41386  0.16522  0.55598  1.0000 0.0538397225
C   C177      1.0  0.16522  0.41386  0.86494  1.0000 0.0538397225
C   C178      1.0  0.16522  0.55598  0.41386  1.0000 0.0538397225
C   C179      1.0  0.86494  0.41386  0.55598  1.0000 0.0538397225
C   C180      1.0  0.41386  0.86494  0.16522  1.0000 0.0538397225
C   C181      1.0  0.83478  0.13506  0.58614  1.0000 0.0538397225
C   C182      1.0  0.44402  0.58614  0.13506  1.0000 0.0538397225
C   C183      1.0  0.58614  0.44402  0.83478  1.0000 0.0538397225
C   C184      1.0  0.58614  0.83478  0.13506  1.0000 0.0538397225
C   C185      1.0  0.13506  0.44402  0.58614  1.0000 0.0538397225
C   C186      1.0  0.83478  0.58614  0.44402  1.0000 0.0538397225
C   C187      1.0  0.13506  0.58614  0.83478  1.0000 0.0538397225
C   C188      1.0  0.58614  0.13506  0.44402  1.0000 0.0538397225
C   C189      1.0  0.44402  0.83478  0.58614  1.0000 0.0538397225
C   C190      1.0  0.16522  0.86494  0.55598  1.0000 0.0538397225
C   C191      1.0  0.86494  0.55598  0.16522  1.0000 0.0538397225
C   C192      1.0  0.55598  0.16522  0.86494  1.0000 0.0538397225
C   C193      1.0  0.84660  0.21540  0.53140  1.0000 -0.1489735887
C   C194      1.0  0.53140  0.84660  0.21540  1.0000 -0.1489735887
C   C195      1.0  0.21540  0.53140  0.84660  1.0000 -0.1489735887
C   C196      1.0  0.15340  0.78460  0.59340  1.0000 -0.1489735887
C   C197      1.0  0.46860  0.59340  0.78460  1.0000 -0.1489735887
C   C198      1.0  0.59340  0.46860  0.15340  1.0000 -0.1489735887
C   C199      1.0  0.46860  0.15340  0.59340  1.0000 -0.1489735887
C   C200      1.0  0.59340  0.78460  0.46860  1.0000 -0.1489735887
C   C201      1.0  0.78460  0.59340  0.15340  1.0000 -0.1489735887
C   C202      1.0  0.78460  0.46860  0.59340  1.0000 -0.1489735887
C   C203      1.0  0.15340  0.59340  0.46860  1.0000 -0.1489735887
C   C204      1.0  0.59340  0.15340  0.78460  1.0000 -0.1489735887
C   C205      1.0  0.21540  0.84660  0.40660  1.0000 -0.1489735887
C   C206      1.0  0.53140  0.40660  0.84660  1.0000 -0.1489735887
C   C207      1.0  0.40660  0.53140  0.21540  1.0000 -0.1489735887
C   C208      1.0  0.40660  0.21540  0.84660  1.0000 -0.1489735887
C   C209      1.0  0.84660  0.53140  0.40660  1.0000 -0.1489735887
C   C210      1.0  0.21540  0.40660  0.53140  1.0000 -0.1489735887
C   C211      1.0  0.84660  0.40660  0.21540  1.0000 -0.1489735887
C   C212      1.0  0.40660  0.84660  0.53140  1.0000 -0.1489735887
C   C213      1.0  0.53140  0.21540  0.40660  1.0000 -0.1489735887
C   C214      1.0  0.78460  0.15340  0.46860  1.0000 -0.1489735887
C   C215      1.0  0.15340  0.46860  0.78460  1.0000 -0.1489735887
C   C216      1.0  0.46860  0.78460  0.15340  1.0000 -0.1489735887
C   C217      1.0  0.15340  0.78460  0.46860  1.0000 -0.1489735887
C   C218      1.0  0.46860  0.15340  0.78460  1.0000 -0.1489735887
C   C219      1.0  0.78460  0.46860  0.15340  1.0000 -0.1489735887
C   C220      1.0  0.84660  0.21540  0.40660  1.0000 -0.1489735887
C   C221      1.0  0.53140  0.40660  0.21540  1.0000 -0.1489735887
C   C222      1.0  0.40660  0.53140  0.84660  1.0000 -0.1489735887
C   C223      1.0  0.53140  0.84660  0.40660  1.0000 -0.1489735887
C   C224      1.0  0.40660  0.21540  0.53140  1.0000 -0.1489735887
C   C225      1.0  0.21540  0.40660  0.84660  1.0000 -0.1489735887
C   C226      1.0  0.21540  0.53140  0.40660  1.0000 -0.1489735887
C   C227      1.0  0.84660  0.40660  0.53140  1.0000 -0.1489735887
C   C228      1.0  0.40660  0.84660  0.21540  1.0000 -0.1489735887
C   C229      1.0  0.78460  0.15340  0.59340  1.0000 -0.1489735887
C   C230      1.0  0.46860  0.59340  0.15340  1.0000 -0.1489735887
C   C231      1.0  0.59340  0.46860  0.78460  1.0000 -0.1489735887
C   C232      1.0  0.59340  0.78460  0.15340  1.0000 -0.1489735887
C   C233      1.0  0.15340  0.46860  0.59340  1.0000 -0.1489735887
C   C234      1.0  0.78460  0.59340  0.46860  1.0000 -0.1489735887
C   C235      1.0  0.15340  0.59340  0.78460  1.0000 -0.1489735887
C   C236      1.0  0.59340  0.15340  0.46860  1.0000 -0.1489735887
C   C237      1.0  0.46860  0.78460  0.59340  1.0000 -0.1489735887
C   C238      1.0  0.21540  0.84660  0.53140  1.0000 -0.1489735887
C   C239      1.0  0.84660  0.53140  0.21540  1.0000 -0.1489735887
C   C240      1.0  0.53140  0.21540  0.84660  1.0000 -0.1489735887
C   C241      1.0  0.97090  0.25458  0.51994  1.0000 0.1109452311
C   C242      1.0  0.51994  0.97090  0.25458  1.0000 0.1109452311
C   C243      1.0  0.25458  0.51994  0.97090  1.0000 0.1109452311
C   C244      1.0  0.02910  0.74542  0.74542  1.0000 0.1109452311
C   C245      1.0  0.48006  0.74542  0.74542  1.0000 0.1109452311
C   C246      1.0  0.74542  0.48006  0.02910  1.0000 0.1109452311
C   C247      1.0  0.48006  0.02910  0.74542  1.0000 0.1109452311
C   C248      1.0  0.74542  0.74542  0.48006  1.0000 0.1109452311
C   C249      1.0  0.74542  0.74542  0.02910  1.0000 0.1109452311
C   C250      1.0  0.74542  0.48006  0.74542  1.0000 0.1109452311
C   C251      1.0  0.02910  0.74542  0.48006  1.0000 0.1109452311
C   C252      1.0  0.74542  0.02910  0.74542  1.0000 0.1109452311
C   C253      1.0  0.25458  0.97090  0.25458  1.0000 0.1109452311
C   C254      1.0  0.51994  0.25458  0.97090  1.0000 0.1109452311
C   C255      1.0  0.25458  0.51994  0.25458  1.0000 0.1109452311
C   C256      1.0  0.25458  0.25458  0.97090  1.0000 0.1109452311
C   C257      1.0  0.97090  0.51994  0.25458  1.0000 0.1109452311
C   C258      1.0  0.25458  0.25458  0.51994  1.0000 0.1109452311
C   C259      1.0  0.97090  0.25458  0.25458  1.0000 0.1109452311
C   C260      1.0  0.25458  0.97090  0.51994  1.0000 0.1109452311
C   C261      1.0  0.51994  0.25458  0.25458  1.0000 0.1109452311
C   C262      1.0  0.74542  0.02910  0.48006  1.0000 0.1109452311
C   C263      1.0  0.02910  0.48006  0.74542  1.0000 0.1109452311
C   C264      1.0  0.48006  0.74542  0.02910  1.0000 0.1109452311
C   C265      1.0  0.92077  0.22223  0.59211  1.0000 0.0685410551
C   C266      1.0  0.59211  0.92077  0.22223  1.0000 0.0685410551
C   C267      1.0  0.22223  0.59211  0.92077  1.0000 0.0685410551
C   C268      1.0  0.07923  0.77777  0.73511  1.0000 0.0685410551
C   C269      1.0  0.40789  0.73511  0.77777  1.0000 0.0685410551
C   C270      1.0  0.73511  0.40789  0.07923  1.0000 0.0685410551
C   C271      1.0  0.40789  0.07923  0.73511  1.0000 0.0685410551
C   C272      1.0  0.73511  0.77777  0.40789  1.0000 0.0685410551
C   C273      1.0  0.77777  0.73511  0.07923  1.0000 0.0685410551
C   C274      1.0  0.77777  0.40789  0.73511  1.0000 0.0685410551
C   C275      1.0  0.07923  0.73511  0.40789  1.0000 0.0685410551
C   C276      1.0  0.73511  0.07923  0.77777  1.0000 0.0685410551
C   C277      1.0  0.22223  0.92077  0.26489  1.0000 0.0685410551
C   C278      1.0  0.59211  0.26489  0.92077  1.0000 0.0685410551
C   C279      1.0  0.26489  0.59211  0.22223  1.0000 0.0685410551
C   C280      1.0  0.26489  0.22223  0.92077  1.0000 0.0685410551
C   C281      1.0  0.92077  0.59211  0.26489  1.0000 0.0685410551
C   C282      1.0  0.22223  0.26489  0.59211  1.0000 0.0685410551
C   C283      1.0  0.92077  0.26489  0.22223  1.0000 0.0685410551
C   C284      1.0  0.26489  0.92077  0.59211  1.0000 0.0685410551
C   C285      1.0  0.59211  0.22223  0.26489  1.0000 0.0685410551
C   C286      1.0  0.77777  0.07923  0.40789  1.0000 0.0685410551
C   C287      1.0  0.07923  0.40789  0.77777  1.0000 0.0685410551
C   C288      1.0  0.40789  0.77777  0.07923  1.0000 0.0685410551
C   C289      1.0  0.07923  0.77777  0.40789  1.0000 0.0685410551
C   C290      1.0  0.40789  0.07923  0.77777  1.0000 0.0685410551
C   C291      1.0  0.77777  0.40789  0.07923  1.0000 0.0685410551
C   C292      1.0  0.92077  0.22223  0.26489  1.0000 0.0685410551
C   C293      1.0  0.59211  0.26489  0.22223  1.0000 0.0685410551
C   C294      1.0  0.26489  0.59211  0.92077  1.0000 0.0685410551
C   C295      1.0  0.59211  0.92077  0.26489  1.0000 0.0685410551
C   C296      1.0  0.26489  0.22223  0.59211  1.0000 0.0685410551
C   C297      1.0  0.22223  0.26489  0.92077  1.0000 0.0685410551
C   C298      1.0  0.22223  0.59211  0.26489  1.0000 0.0685410551
C   C299      1.0  0.92077  0.26489  0.59211  1.0000 0.0685410551
C   C300      1.0  0.26489  0.92077  0.22223  1.0000 0.0685410551
C   C301      1.0  0.77777  0.07923  0.73511  1.0000 0.0685410551
C   C302      1.0  0.40789  0.73511  0.07923  1.0000 0.0685410551
C   C303      1.0  0.73511  0.40789  0.77777  1.0000 0.0685410551
C   C304      1.0  0.73511  0.77777  0.07923  1.0000 0.0685410551
C   C305      1.0  0.07923  0.40789  0.73511  1.0000 0.0685410551
C   C306      1.0  0.77777  0.73511  0.40789  1.0000 0.0685410551
C   C307      1.0  0.07923  0.73511  0.77777  1.0000 0.0685410551
C   C308      1.0  0.73511  0.07923  0.40789  1.0000 0.0685410551
C   C309      1.0  0.40789  0.77777  0.73511  1.0000 0.0685410551
C   C310      1.0  0.22223  0.92077  0.59211  1.0000 0.0685410551
C   C311      1.0  0.92077  0.59211  0.22223  1.0000 0.0685410551
C   C312      1.0  0.59211  0.22223  0.92077  1.0000 0.0685410551
C   C313      1.0  0.89424  0.19178  0.63416  1.0000 -0.1598283049
C   C314      1.0  0.63416  0.89424  0.19178  1.0000 -0.1598283049
C   C315      1.0  0.19178  0.63416  0.89424  1.0000 -0.1598283049
C   C316      1.0  0.10576  0.80822  0.72018  1.0000 -0.1598283049
C   C317      1.0  0.36584  0.72018  0.80822  1.0000 -0.1598283049
C   C318      1.0  0.72018  0.36584  0.10576  1.0000 -0.1598283049
C   C319      1.0  0.36584  0.10576  0.72018  1.0000 -0.1598283049
C   C320      1.0  0.72018  0.80822  0.36584  1.0000 -0.1598283049
C   C321      1.0  0.80822  0.72018  0.10576  1.0000 -0.1598283049
C   C322      1.0  0.80822  0.36584  0.72018  1.0000 -0.1598283049
C   C323      1.0  0.10576  0.72018  0.36584  1.0000 -0.1598283049
C   C324      1.0  0.72018  0.10576  0.80822  1.0000 -0.1598283049
C   C325      1.0  0.19178  0.89424  0.27982  1.0000 -0.1598283049
C   C326      1.0  0.63416  0.27982  0.89424  1.0000 -0.1598283049
C   C327      1.0  0.27982  0.63416  0.19178  1.0000 -0.1598283049
C   C328      1.0  0.27982  0.19178  0.89424  1.0000 -0.1598283049
C   C329      1.0  0.89424  0.63416  0.27982  1.0000 -0.1598283049
C   C330      1.0  0.19178  0.27982  0.63416  1.0000 -0.1598283049
C   C331      1.0  0.89424  0.27982  0.19178  1.0000 -0.1598283049
C   C332      1.0  0.27982  0.89424  0.63416  1.0000 -0.1598283049
C   C333      1.0  0.63416  0.19178  0.27982  1.0000 -0.1598283049
C   C334      1.0  0.80822  0.10576  0.36584  1.0000 -0.1598283049
C   C335      1.0  0.10576  0.36584  0.80822  1.0000 -0.1598283049
C   C336      1.0  0.36584  0.80822  0.10576  1.0000 -0.1598283049
C   C337      1.0  0.10576  0.80822  0.36584  1.0000 -0.1598283049
C   C338      1.0  0.36584  0.10576  0.80822  1.0000 -0.1598283049
C   C339      1.0  0.80822  0.36584  0.10576  1.0000 -0.1598283049
C   C340      1.0  0.89424  0.19178  0.27982  1.0000 -0.1598283049
C   C341      1.0  0.63416  0.27982  0.19178  1.0000 -0.1598283049
C   C342      1.0  0.27982  0.63416  0.89424  1.0000 -0.1598283049
C   C343      1.0  0.63416  0.89424  0.27982  1.0000 -0.1598283049
C   C344      1.0  0.27982  0.19178  0.63416  1.0000 -0.1598283049
C   C345      1.0  0.19178  0.27982  0.89424  1.0000 -0.1598283049
C   C346      1.0  0.19178  0.63416  0.27982  1.0000 -0.1598283049
C   C347      1.0  0.89424  0.27982  0.63416  1.0000 -0.1598283049
C   C348      1.0  0.27982  0.89424  0.19178  1.0000 -0.1598283049
C   C349      1.0  0.80822  0.10576  0.72018  1.0000 -0.1598283049
C   C350      1.0  0.36584  0.72018  0.10576  1.0000 -0.1598283049
C   C351      1.0  0.72018  0.36584  0.80822  1.0000 -0.1598283049
C   C352      1.0  0.72018  0.80822  0.10576  1.0000 -0.1598283049
C   C353      1.0  0.10576  0.36584  0.72018  1.0000 -0.1598283049
C   C354      1.0  0.80822  0.72018  0.36584  1.0000 -0.1598283049
C   C355      1.0  0.10576  0.72018  0.80822  1.0000 -0.1598283049
C   C356      1.0  0.72018  0.10576  0.36584  1.0000 -0.1598283049
C   C357      1.0  0.36584  0.80822  0.72018  1.0000 -0.1598283049
C   C358      1.0  0.19178  0.89424  0.63416  1.0000 -0.1598283049
C   C359      1.0  0.89424  0.63416  0.19178  1.0000 -0.1598283049
C   C360      1.0  0.63416  0.19178  0.89424  1.0000 -0.1598283049
C   C361      1.0  0.06395  0.06395  0.52843  1.0000 0.1613890966
C   C362      1.0  0.52843  0.06395  0.06395  1.0000 0.1613890966
C   C363      1.0  0.06395  0.52843  0.06395  1.0000 0.1613890966
C   C364      1.0  0.93605  0.93605  0.65633  1.0000 0.1613890966
C   C365      1.0  0.47157  0.65633  0.93605  1.0000 0.1613890966
C   C366      1.0  0.65633  0.47157  0.93605  1.0000 0.1613890966
C   C367      1.0  0.47157  0.93605  0.65633  1.0000 0.1613890966
C   C368      1.0  0.65633  0.93605  0.47157  1.0000 0.1613890966
C   C369      1.0  0.93605  0.65633  0.93605  1.0000 0.1613890966
C   C370      1.0  0.93605  0.47157  0.65633  1.0000 0.1613890966
C   C371      1.0  0.93605  0.65633  0.47157  1.0000 0.1613890966
C   C372      1.0  0.65633  0.93605  0.93605  1.0000 0.1613890966
C   C373      1.0  0.06395  0.06395  0.34367  1.0000 0.1613890966
C   C374      1.0  0.52843  0.34367  0.06395  1.0000 0.1613890966
C   C375      1.0  0.34367  0.52843  0.06395  1.0000 0.1613890966
C   C376      1.0  0.34367  0.06395  0.06395  1.0000 0.1613890966
C   C377      1.0  0.06395  0.52843  0.34367  1.0000 0.1613890966
C   C378      1.0  0.06395  0.34367  0.52843  1.0000 0.1613890966
C   C379      1.0  0.06395  0.34367  0.06395  1.0000 0.1613890966
C   C380      1.0  0.34367  0.06395  0.52843  1.0000 0.1613890966
C   C381      1.0  0.52843  0.06395  0.34367  1.0000 0.1613890966
C   C382      1.0  0.93605  0.93605  0.47157  1.0000 0.1613890966
C   C383      1.0  0.93605  0.47157  0.93605  1.0000 0.1613890966
C   C384      1.0  0.47157  0.93605  0.93605  1.0000 0.1613890966
C   C385      1.0  0.04807  0.09085  0.58523  1.0000 0.1613890966
C   C386      1.0  0.58523  0.04807  0.09085  1.0000 0.1613890966
C   C387      1.0  0.09085  0.58523  0.04807  1.0000 0.1613890966
C   C388      1.0  0.95193  0.90915  0.72415  1.0000 0.1613890966
C   C389      1.0  0.41477  0.72415  0.90915  1.0000 0.1613890966
C   C390      1.0  0.72415  0.41477  0.95193  1.0000 0.1613890966
C   C391      1.0  0.41477  0.95193  0.72415  1.0000 0.1613890966
C   C392      1.0  0.72415  0.90915  0.41477  1.0000 0.1613890966
C   C393      1.0  0.90915  0.72415  0.95193  1.0000 0.1613890966
C   C394      1.0  0.90915  0.41477  0.72415  1.0000 0.1613890966
C   C395      1.0  0.95193  0.72415  0.41477  1.0000 0.1613890966
C   C396      1.0  0.72415  0.95193  0.90915  1.0000 0.1613890966
C   C397      1.0  0.09085  0.04807  0.27585  1.0000 0.1613890966
C   C398      1.0  0.58523  0.27585  0.04807  1.0000 0.1613890966
C   C399      1.0  0.27585  0.58523  0.09085  1.0000 0.1613890966
C   C400      1.0  0.27585  0.09085  0.04807  1.0000 0.1613890966
C   C401      1.0  0.04807  0.58523  0.27585  1.0000 0.1613890966
C   C402      1.0  0.09085  0.27585  0.58523  1.0000 0.1613890966
C   C403      1.0  0.04807  0.27585  0.09085  1.0000 0.1613890966
C   C404      1.0  0.27585  0.04807  0.58523  1.0000 0.1613890966
C   C405      1.0  0.58523  0.09085  0.27585  1.0000 0.1613890966
C   C406      1.0  0.90915  0.95193  0.41477  1.0000 0.1613890966
C   C407      1.0  0.95193  0.41477  0.90915  1.0000 0.1613890966
C   C408      1.0  0.41477  0.90915  0.95193  1.0000 0.1613890966
C   C409      1.0  0.95193  0.90915  0.41477  1.0000 0.1613890966
C   C410      1.0  0.41477  0.95193  0.90915  1.0000 0.1613890966
C   C411      1.0  0.90915  0.41477  0.95193  1.0000 0.1613890966
C   C412      1.0  0.04807  0.09085  0.27585  1.0000 0.1613890966
C   C413      1.0  0.58523  0.27585  0.09085  1.0000 0.1613890966
C   C414      1.0  0.27585  0.58523  0.04807  1.0000 0.1613890966
C   C415      1.0  0.58523  0.04807  0.27585  1.0000 0.1613890966
C   C416      1.0  0.27585  0.09085  0.58523  1.0000 0.1613890966
C   C417      1.0  0.09085  0.27585  0.04807  1.0000 0.1613890966
C   C418      1.0  0.09085  0.58523  0.27585  1.0000 0.1613890966
C   C419      1.0  0.04807  0.27585  0.58523  1.0000 0.1613890966
C   C420      1.0  0.27585  0.04807  0.09085  1.0000 0.1613890966
C   C421      1.0  0.90915  0.95193  0.72415  1.0000 0.1613890966
C   C422      1.0  0.41477  0.72415  0.95193  1.0000 0.1613890966
C   C423      1.0  0.72415  0.41477  0.90915  1.0000 0.1613890966
C   C424      1.0  0.72415  0.90915  0.95193  1.0000 0.1613890966
C   C425      1.0  0.95193  0.41477  0.72415  1.0000 0.1613890966
C   C426      1.0  0.90915  0.72415  0.41477  1.0000 0.1613890966
C   C427      1.0  0.95193  0.72415  0.90915  1.0000 0.1613890966
C   C428      1.0  0.72415  0.95193  0.41477  1.0000 0.1613890966
C   C429      1.0  0.41477  0.90915  0.72415  1.0000 0.1613890966
C   C430      1.0  0.09085  0.04807  0.58523  1.0000 0.1613890966
C   C431      1.0  0.04807  0.58523  0.09085  1.0000 0.1613890966
C   C432      1.0  0.58523  0.09085  0.04807  1.0000 0.1613890966
C   C433      1.0  0.05507  0.09579  0.64941  1.0000 -0.0876526252
C   C434      1.0  0.64941  0.05507  0.09579  1.0000 -0.0876526252
C   C435      1.0  0.09579  0.64941  0.05507  1.0000 -0.0876526252
C   C436      1.0  0.94493  0.90421  0.80027  1.0000 -0.0876526252
C   C437      1.0  0.35059  0.80027  0.90421  1.0000 -0.0876526252
C   C438      1.0  0.80027  0.35059  0.94493  1.0000 -0.0876526252
C   C439      1.0  0.35059  0.94493  0.80027  1.0000 -0.0876526252
C   C440      1.0  0.80027  0.90421  0.35059  1.0000 -0.0876526252
C   C441      1.0  0.90421  0.80027  0.94493  1.0000 -0.0876526252
C   C442      1.0  0.90421  0.35059  0.80027  1.0000 -0.0876526252
C   C443      1.0  0.94493  0.80027  0.35059  1.0000 -0.0876526252
C   C444      1.0  0.80027  0.94493  0.90421  1.0000 -0.0876526252
C   C445      1.0  0.09579  0.05507  0.19973  1.0000 -0.0876526252
C   C446      1.0  0.64941  0.19973  0.05507  1.0000 -0.0876526252
C   C447      1.0  0.19973  0.64941  0.09579  1.0000 -0.0876526252
C   C448      1.0  0.19973  0.09579  0.05507  1.0000 -0.0876526252
C   C449      1.0  0.05507  0.64941  0.19973  1.0000 -0.0876526252
C   C450      1.0  0.09579  0.19973  0.64941  1.0000 -0.0876526252
C   C451      1.0  0.05507  0.19973  0.09579  1.0000 -0.0876526252
C   C452      1.0  0.19973  0.05507  0.64941  1.0000 -0.0876526252
C   C453      1.0  0.64941  0.09579  0.19973  1.0000 -0.0876526252
C   C454      1.0  0.90421  0.94493  0.35059  1.0000 -0.0876526252
C   C455      1.0  0.94493  0.35059  0.90421  1.0000 -0.0876526252
C   C456      1.0  0.35059  0.90421  0.94493  1.0000 -0.0876526252
C   C457      1.0  0.94493  0.90421  0.35059  1.0000 -0.0876526252
C   C458      1.0  0.35059  0.94493  0.90421  1.0000 -0.0876526252
C   C459      1.0  0.90421  0.35059  0.94493  1.0000 -0.0876526252
C   C460      1.0  0.05507  0.09579  0.19973  1.0000 -0.0876526252
C   C461      1.0  0.64941  0.19973  0.09579  1.0000 -0.0876526252
C   C462      1.0  0.19973  0.64941  0.05507  1.0000 -0.0876526252
C   C463      1.0  0.64941  0.05507  0.19973  1.0000 -0.0876526252
C   C464      1.0  0.19973  0.09579  0.64941  1.0000 -0.0876526252
C   C465      1.0  0.09579  0.19973  0.05507  1.0000 -0.0876526252
C   C466      1.0  0.09579  0.64941  0.19973  1.0000 -0.0876526252
C   C467      1.0  0.05507  0.19973  0.64941  1.0000 -0.0876526252
C   C468      1.0  0.19973  0.05507  0.09579  1.0000 -0.0876526252
C   C469      1.0  0.90421  0.94493  0.80027  1.0000 -0.0876526252
C   C470      1.0  0.35059  0.80027  0.94493  1.0000 -0.0876526252
C   C471      1.0  0.80027  0.35059  0.90421  1.0000 -0.0876526252
C   C472      1.0  0.80027  0.90421  0.94493  1.0000 -0.0876526252
C   C473      1.0  0.94493  0.35059  0.80027  1.0000 -0.0876526252
C   C474      1.0  0.90421  0.80027  0.35059  1.0000 -0.0876526252
C   C475      1.0  0.94493  0.80027  0.90421  1.0000 -0.0876526252
C   C476      1.0  0.80027  0.94493  0.35059  1.0000 -0.0876526252
C   C477      1.0  0.35059  0.90421  0.80027  1.0000 -0.0876526252
C   C478      1.0  0.09579  0.05507  0.64941  1.0000 -0.0876526252
C   C479      1.0  0.05507  0.64941  0.09579  1.0000 -0.0876526252
C   C480      1.0  0.64941  0.09579  0.05507  1.0000 -0.0876526252
N   N1        1.0  0.06936  0.20024  0.40904  1.0000 -0.298011911
N   N2        1.0  0.40904  0.06936  0.20024  1.0000 -0.298011911
N   N3        1.0  0.20024  0.40904  0.06936  1.0000 -0.298011911
N   N4        1.0  0.93064  0.79976  0.67864  1.0000 -0.298011911
N   N5        1.0  0.59096  0.67864  0.79976  1.0000 -0.298011911
N   N6        1.0  0.67864  0.59096  0.93064  1.0000 -0.298011911
N   N7        1.0  0.59096  0.93064  0.67864  1.0000 -0.298011911
N   N8        1.0  0.67864  0.79976  0.59096  1.0000 -0.298011911
N   N9        1.0  0.79976  0.67864  0.93064  1.0000 -0.298011911
N   N10       1.0  0.79976  0.59096  0.67864  1.0000 -0.298011911
N   N11       1.0  0.93064  0.67864  0.59096  1.0000 -0.298011911
N   N12       1.0  0.67864  0.93064  0.79976  1.0000 -0.298011911
N   N13       1.0  0.20024  0.06936  0.32136  1.0000 -0.298011911
N   N14       1.0  0.40904  0.32136  0.06936  1.0000 -0.298011911
N   N15       1.0  0.32136  0.40904  0.20024  1.0000 -0.298011911
N   N16       1.0  0.32136  0.20024  0.06936  1.0000 -0.298011911
N   N17       1.0  0.06936  0.40904  0.32136  1.0000 -0.298011911
N   N18       1.0  0.20024  0.32136  0.40904  1.0000 -0.298011911
N   N19       1.0  0.06936  0.32136  0.20024  1.0000 -0.298011911
N   N20       1.0  0.32136  0.06936  0.40904  1.0000 -0.298011911
N   N21       1.0  0.40904  0.20024  0.32136  1.0000 -0.298011911
N   N22       1.0  0.79976  0.93064  0.59096  1.0000 -0.298011911
N   N23       1.0  0.93064  0.59096  0.79976  1.0000 -0.298011911
N   N24       1.0  0.59096  0.79976  0.93064  1.0000 -0.298011911
N   N25       1.0  0.93064  0.79976  0.59096  1.0000 -0.298011911
N   N26       1.0  0.59096  0.93064  0.79976  1.0000 -0.298011911
N   N27       1.0  0.79976  0.59096  0.93064  1.0000 -0.298011911
N   N28       1.0  0.06936  0.20024  0.32136  1.0000 -0.298011911
N   N29       1.0  0.40904  0.32136  0.20024  1.0000 -0.298011911
N   N30       1.0  0.32136  0.40904  0.06936  1.0000 -0.298011911
N   N31       1.0  0.40904  0.06936  0.32136  1.0000 -0.298011911
N   N32       1.0  0.32136  0.20024  0.40904  1.0000 -0.298011911
N   N33       1.0  0.20024  0.32136  0.06936  1.0000 -0.298011911
N   N34       1.0  0.20024  0.40904  0.32136  1.0000 -0.298011911
N   N35       1.0  0.06936  0.32136  0.40904  1.0000 -0.298011911
N   N36       1.0  0.32136  0.06936  0.20024  1.0000 -0.298011911
N   N37       1.0  0.79976  0.93064  0.67864  1.0000 -0.298011911
N   N38       1.0  0.59096  0.67864  0.93064  1.0000 -0.298011911
N   N39       1.0  0.67864  0.59096  0.79976  1.0000 -0.298011911
N   N40       1.0  0.67864  0.79976  0.93064  1.0000 -0.298011911
N   N41       1.0  0.93064  0.59096  0.67864  1.0000 -0.298011911
N   N42       1.0  0.79976  0.67864  0.59096  1.0000 -0.298011911
N   N43       1.0  0.93064  0.67864  0.79976  1.0000 -0.298011911
N   N44       1.0  0.67864  0.93064  0.59096  1.0000 -0.298011911
N   N45       1.0  0.59096  0.79976  0.67864  1.0000 -0.298011911
N   N46       1.0  0.20024  0.06936  0.40904  1.0000 -0.298011911
N   N47       1.0  0.06936  0.40904  0.20024  1.0000 -0.298011911
N   N48       1.0  0.40904  0.20024  0.06936  1.0000 -0.298011911
N   N49       1.0  0.79630  0.23170  0.53870  1.0000 -0.1655587269
N   N50       1.0  0.53870  0.79630  0.23170  1.0000 -0.1598283049
N   N51       1.0  0.23170  0.53870  0.79630  1.0000 -0.1598283049
N   N52       1.0  0.20370  0.76830  0.56670  1.0000 -0.1598283049
N   N53       1.0  0.46130  0.56670  0.76830  1.0000 -0.1655587269
N   N54       1.0  0.56670  0.46130  0.20370  1.0000 -0.1655587269
N   N55       1.0  0.46130  0.20370  0.56670  1.0000 -0.1655587269
N   N56       1.0  0.56670  0.76830  0.46130  1.0000 -0.1655587269
N   N57       1.0  0.76830  0.56670  0.20370  1.0000 -0.1598283049
N   N58       1.0  0.76830  0.46130  0.56670  1.0000 -0.1598283049
N   N59       1.0  0.20370  0.56670  0.46130  1.0000 -0.1598283049
N   N60       1.0  0.56670  0.20370  0.76830  1.0000 -0.1655587269
N   N61       1.0  0.23170  0.79630  0.43330  1.0000 -0.1598283049
N   N62       1.0  0.53870  0.43330  0.79630  1.0000 -0.1655587269
N   N63       1.0  0.43330  0.53870  0.23170  1.0000 -0.1598283049
N   N64       1.0  0.43330  0.23170  0.79630  1.0000 -0.1655587269
N   N65       1.0  0.79630  0.53870  0.43330  1.0000 -0.1655587269
N   N66       1.0  0.23170  0.43330  0.53870  1.0000 -0.1655587269
N   N67       1.0  0.79630  0.43330  0.23170  1.0000 -0.1655587269
N   N68       1.0  0.43330  0.79630  0.53870  1.0000 -0.1655587269
N   N69       1.0  0.53870  0.23170  0.43330  1.0000 -0.1655587269
N   N70       1.0  0.76830  0.20370  0.46130  1.0000 -0.1655587269
N   N71       1.0  0.20370  0.46130  0.76830  1.0000 -0.1655587269
N   N72       1.0  0.46130  0.76830  0.20370  1.0000 -0.1655587269
N   N73       1.0  0.20370  0.76830  0.46130  1.0000 -0.1598283049
N   N74       1.0  0.46130  0.20370  0.76830  1.0000 -0.1655587269
N   N75       1.0  0.76830  0.46130  0.20370  1.0000 -0.1598283049
N   N76       1.0  0.79630  0.23170  0.43330  1.0000 -0.1598283049
N   N77       1.0  0.53870  0.43330  0.23170  1.0000 -0.1655587269
N   N78       1.0  0.43330  0.53870  0.79630  1.0000 -0.1598283049
N   N79       1.0  0.53870  0.79630  0.43330  1.0000 -0.1598283049
N   N80       1.0  0.43330  0.23170  0.53870  1.0000 -0.1655587269
N   N81       1.0  0.23170  0.43330  0.79630  1.0000 -0.1655587269
N   N82       1.0  0.23170  0.53870  0.43330  1.0000 -0.1598283049
N   N83       1.0  0.79630  0.43330  0.53870  1.0000 -0.1598283049
N   N84       1.0  0.43330  0.79630  0.23170  1.0000 -0.1655587269
N   N85       1.0  0.76830  0.20370  0.56670  1.0000 -0.1655587269
N   N86       1.0  0.46130  0.56670  0.20370  1.0000 -0.1655587269
N   N87       1.0  0.56670  0.46130  0.76830  1.0000 -0.1598283049
N   N88       1.0  0.56670  0.76830  0.20370  1.0000 -0.1598283049
N   N89       1.0  0.20370  0.46130  0.56670  1.0000 -0.1655587269
N   N90       1.0  0.76830  0.56670  0.46130  1.0000 -0.1598283049
N   N91       1.0  0.20370  0.56670  0.76830  1.0000 -0.1655587269
N   N92       1.0  0.56670  0.20370  0.46130  1.0000 -0.1655587269
N   N93       1.0  0.46130  0.76830  0.56670  1.0000 -0.1598283049
N   N94       1.0  0.23170  0.79630  0.53870  1.0000 -0.1655587269
N   N95       1.0  0.79630  0.53870  0.23170  1.0000 -0.1655587269
N   N96       1.0  0.53870  0.23170  0.79630  1.0000 -0.1655587269
N   N97       1.0  0.86675  0.20883  0.67525  1.0000 -0.1381172793
N   N98       1.0  0.67525  0.86675  0.20883  1.0000 -0.1381172793
N   N99       1.0  0.20883  0.67525  0.86675  1.0000 -0.1381172793
N   N100      1.0  0.13325  0.79117  0.75083  1.0000 -0.1381172793
N   N101      1.0  0.32475  0.75083  0.79117  1.0000 -0.1381172793
N   N102      1.0  0.75083  0.32475  0.13325  1.0000 -0.1381172793
N   N103      1.0  0.32475  0.13325  0.75083  1.0000 -0.1338976926
N   N104      1.0  0.75083  0.79117  0.32475  1.0000 -0.1381172793
N   N105      1.0  0.79117  0.75083  0.13325  1.0000 -0.1381172793
N   N106      1.0  0.79117  0.32475  0.75083  1.0000 -0.1381172793
N   N107      1.0  0.13325  0.75083  0.32475  1.0000 -0.1381172793
N   N108      1.0  0.75083  0.13325  0.79117  1.0000 -0.1381172793
N   N109      1.0  0.20883  0.86675  0.24917  1.0000 -0.1381172793
N   N110      1.0  0.67525  0.24917  0.86675  1.0000 -0.1381172793
N   N111      1.0  0.24917  0.67525  0.20883  1.0000 -0.1338976926
N   N112      1.0  0.24917  0.20883  0.86675  1.0000 -0.1381172793
N   N113      1.0  0.86675  0.67525  0.24917  1.0000 -0.1381172793
N   N114      1.0  0.20883  0.24917  0.67525  1.0000 -0.1381172793
N   N115      1.0  0.86675  0.24917  0.20883  1.0000 -0.1381172793
N   N116      1.0  0.24917  0.86675  0.67525  1.0000 -0.1381172793
N   N117      1.0  0.67525  0.20883  0.24917  1.0000 -0.1381172793
N   N118      1.0  0.79117  0.13325  0.32475  1.0000 -0.1381172793
N   N119      1.0  0.13325  0.32475  0.79117  1.0000 -0.1381172793
N   N120      1.0  0.32475  0.79117  0.13325  1.0000 -0.1381172793
N   N121      1.0  0.13325  0.79117  0.32475  1.0000 -0.1381172793
N   N122      1.0  0.32475  0.13325  0.79117  1.0000 -0.1381172793
N   N123      1.0  0.79117  0.32475  0.13325  1.0000 -0.1381172793
N   N124      1.0  0.86675  0.20883  0.24917  1.0000 -0.1381172793
N   N125      1.0  0.67525  0.24917  0.20883  1.0000 -0.1381172793
N   N126      1.0  0.24917  0.67525  0.86675  1.0000 -0.1381172793
N   N127      1.0  0.67525  0.86675  0.24917  1.0000 -0.1381172793
N   N128      1.0  0.24917  0.20883  0.67525  1.0000 -0.1381172793
N   N129      1.0  0.20883  0.24917  0.86675  1.0000 -0.1381172793
N   N130      1.0  0.20883  0.67525  0.24917  1.0000 -0.1381172793
N   N131      1.0  0.86675  0.24917  0.67525  1.0000 -0.1381172793
N   N132      1.0  0.24917  0.86675  0.20883  1.0000 -0.1338976926
N   N133      1.0  0.79117  0.13325  0.75083  1.0000 -0.1338976926
N   N134      1.0  0.32475  0.75083  0.13325  1.0000 -0.1338976926
N   N135      1.0  0.75083  0.32475  0.79117  1.0000 -0.1381172793
N   N136      1.0  0.75083  0.79117  0.13325  1.0000 -0.1338976926
N   N137      1.0  0.13325  0.32475  0.75083  1.0000 -0.1381172793
N   N138      1.0  0.79117  0.75083  0.32475  1.0000 -0.1338976926
N   N139      1.0  0.13325  0.75083  0.79117  1.0000 -0.1381172793
N   N140      1.0  0.75083  0.13325  0.32475  1.0000 -0.1381172793
N   N141      1.0  0.32475  0.79117  0.75083  1.0000 -0.1381172793
N   N142      1.0  0.20883  0.86675  0.67525  1.0000 -0.1381172793
N   N143      1.0  0.86675  0.67525  0.20883  1.0000 -0.1381172793
N   N144      1.0  0.67525  0.20883  0.86675  1.0000 -0.1381172793
N   N145      1.0  0.02884  0.11698  0.61754  1.0000 -0.3119864888
N   N146      1.0  0.61754  0.02884  0.11698  1.0000 -0.3119864888
N   N147      1.0  0.11698  0.61754  0.02884  1.0000 -0.3119864888
N   N148      1.0  0.97116  0.88302  0.76336  1.0000 -0.3119864888
N   N149      1.0  0.38246  0.76336  0.88302  1.0000 -0.3119864888
N   N150      1.0  0.76336  0.38246  0.97116  1.0000 -0.3119864888
N   N151      1.0  0.38246  0.97116  0.76336  1.0000 -0.3119864888
N   N152      1.0  0.76336  0.88302  0.38246  1.0000 -0.3119864888
N   N153      1.0  0.88302  0.76336  0.97116  1.0000 -0.3119864888
N   N154      1.0  0.88302  0.38246  0.76336  1.0000 -0.3119864888
N   N155      1.0  0.97116  0.76336  0.38246  1.0000 -0.3119864888
N   N156      1.0  0.76336  0.97116  0.88302  1.0000 -0.3119864888
N   N157      1.0  0.11698  0.02884  0.23664  1.0000 -0.3119864888
N   N158      1.0  0.61754  0.23664  0.02884  1.0000 -0.3119864888
N   N159      1.0  0.23664  0.61754  0.11698  1.0000 -0.3119864888
N   N160      1.0  0.23664  0.11698  0.02884  1.0000 -0.3119864888
N   N161      1.0  0.02884  0.61754  0.23664  1.0000 -0.3119864888
N   N162      1.0  0.11698  0.23664  0.61754  1.0000 -0.3119864888
N   N163      1.0  0.02884  0.23664  0.11698  1.0000 -0.3119864888
N   N164      1.0  0.23664  0.02884  0.61754  1.0000 -0.3119864888
N   N165      1.0  0.61754  0.11698  0.23664  1.0000 -0.3119864888
N   N166      1.0  0.88302  0.97116  0.38246  1.0000 -0.3119864888
N   N167      1.0  0.97116  0.38246  0.88302  1.0000 -0.3119864888
N   N168      1.0  0.38246  0.88302  0.97116  1.0000 -0.3119864888
N   N169      1.0  0.97116  0.88302  0.38246  1.0000 -0.3119864888
N   N170      1.0  0.38246  0.97116  0.88302  1.0000 -0.3119864888
N   N171      1.0  0.88302  0.38246  0.97116  1.0000 -0.3119864888
N   N172      1.0  0.02884  0.11698  0.23664  1.0000 -0.3119864888
N   N173      1.0  0.61754  0.23664  0.11698  1.0000 -0.3119864888
N   N174      1.0  0.23664  0.61754  0.02884  1.0000 -0.3119864888
N   N175      1.0  0.61754  0.02884  0.23664  1.0000 -0.3119864888
N   N176      1.0  0.23664  0.11698  0.61754  1.0000 -0.3119864888
N   N177      1.0  0.11698  0.23664  0.02884  1.0000 -0.3119864888
N   N178      1.0  0.11698  0.61754  0.23664  1.0000 -0.3119864888
N   N179      1.0  0.02884  0.23664  0.61754  1.0000 -0.3119864888
N   N180      1.0  0.23664  0.02884  0.11698  1.0000 -0.3119864888
N   N181      1.0  0.88302  0.97116  0.76336  1.0000 -0.3119864888
N   N182      1.0  0.38246  0.76336  0.97116  1.0000 -0.3119864888
N   N183      1.0  0.76336  0.38246  0.88302  1.0000 -0.3119864888
N   N184      1.0  0.76336  0.88302  0.97116  1.0000 -0.3119864888
N   N185      1.0  0.97116  0.38246  0.76336  1.0000 -0.3119864888
N   N186      1.0  0.88302  0.76336  0.38246  1.0000 -0.3119864888
N   N187      1.0  0.97116  0.76336  0.88302  1.0000 -0.3119864888
N   N188      1.0  0.76336  0.97116  0.38246  1.0000 -0.3119864888
N   N189      1.0  0.38246  0.88302  0.76336  1.0000 -0.3119864888
N   N190      1.0  0.11698  0.02884  0.61754  1.0000 -0.3119864888
N   N191      1.0  0.02884  0.61754  0.11698  1.0000 -0.3119864888
N   N192      1.0  0.61754  0.11698  0.02884  1.0000 -0.3119864888
N   N193      1.0  0.99540  0.17212  0.45144  1.0000 -0.3901556192
N   N194      1.0  0.45144  0.99540  0.17212  1.0000 -0.3901556192
N   N195      1.0  0.17212  0.45144  0.99540  1.0000 -0.3901556192
N   N196      1.0  0.00460  0.82788  0.61896  1.0000 -0.3901556192
N   N197      1.0  0.54856  0.61896  0.82788  1.0000 -0.3901556192
N   N198      1.0  0.61896  0.54856  0.00460  1.0000 -0.3901556192
N   N199      1.0  0.54856  0.00460  0.61896  1.0000 -0.3901556192
N   N200      1.0  0.61896  0.82788  0.54856  1.0000 -0.3901556192
N   N201      1.0  0.82788  0.61896  0.00460  1.0000 -0.3901556192
N   N202      1.0  0.82788  0.54856  0.61896  1.0000 -0.3901556192
N   N203      1.0  0.00460  0.61896  0.54856  1.0000 -0.3901556192
N   N204      1.0  0.61896  0.00460  0.82788  1.0000 -0.3901556192
N   N205      1.0  0.17212  0.99540  0.38104  1.0000 -0.3901556192
N   N206      1.0  0.45144  0.38104  0.99540  1.0000 -0.3901556192
N   N207      1.0  0.38104  0.45144  0.17212  1.0000 -0.3901556192
N   N208      1.0  0.38104  0.17212  0.99540  1.0000 -0.3901556192
N   N209      1.0  0.99540  0.45144  0.38104  1.0000 -0.3901556192
N   N210      1.0  0.17212  0.38104  0.45144  1.0000 -0.3901556192
N   N211      1.0  0.99540  0.38104  0.17212  1.0000 -0.3901556192
N   N212      1.0  0.38104  0.99540  0.45144  1.0000 -0.3901556192
N   N213      1.0  0.45144  0.17212  0.38104  1.0000 -0.3901556192
N   N214      1.0  0.82788  0.00460  0.54856  1.0000 -0.3901556192
N   N215      1.0  0.00460  0.54856  0.82788  1.0000 -0.3901556192
N   N216      1.0  0.54856  0.82788  0.00460  1.0000 -0.3901556192
N   N217      1.0  0.00460  0.82788  0.54856  1.0000 -0.3901556192
N   N218      1.0  0.54856  0.00460  0.82788  1.0000 -0.3901556192
N   N219      1.0  0.82788  0.54856  0.00460  1.0000 -0.3901556192
N   N220      1.0  0.99540  0.17212  0.38104  1.0000 -0.3901556192
N   N221      1.0  0.45144  0.38104  0.17212  1.0000 -0.3901556192
N   N222      1.0  0.38104  0.45144  0.99540  1.0000 -0.3901556192
N   N223      1.0  0.45144  0.99540  0.38104  1.0000 -0.3901556192
N   N224      1.0  0.38104  0.17212  0.45144  1.0000 -0.3901556192
N   N225      1.0  0.17212  0.38104  0.99540  1.0000 -0.3901556192
N   N226      1.0  0.17212  0.45144  0.38104  1.0000 -0.3901556192
N   N227      1.0  0.99540  0.38104  0.45144  1.0000 -0.3901556192
N   N228      1.0  0.38104  0.99540  0.17212  1.0000 -0.3901556192
N   N229      1.0  0.82788  0.00460  0.61896  1.0000 -0.3901556192
N   N230      1.0  0.54856  0.61896  0.00460  1.0000 -0.3901556192
N   N231      1.0  0.61896  0.54856  0.82788  1.0000 -0.3901556192
N   N232      1.0  0.61896  0.82788  0.00460  1.0000 -0.3901556192
N   N233      1.0  0.00460  0.54856  0.61896  1.0000 -0.3901556192
N   N234      1.0  0.82788  0.61896  0.54856  1.0000 -0.3901556192
N   N235      1.0  0.00460  0.61896  0.82788  1.0000 -0.3901556192
N   N236      1.0  0.61896  0.00460  0.54856  1.0000 -0.3901556192
N   N237      1.0  0.54856  0.82788  0.61896  1.0000 -0.3901556192
N   N238      1.0  0.17212  0.99540  0.45144  1.0000 -0.3901556192
N   N239      1.0  0.99540  0.45144  0.17212  1.0000 -0.3901556192
N   N240      1.0  0.45144  0.17212  0.99540  1.0000 -0.3901556192
N   N241      1.0  0.91382  0.13594  0.55586  1.0000 -0.3586115013
N   N242      1.0  0.55586  0.91382  0.13594  1.0000 -0.3586115013
N   N243      1.0  0.13594  0.55586  0.91382  1.0000 -0.3586115013
N   N244      1.0  0.08618  0.86406  0.60562  1.0000 -0.3586115013
N   N245      1.0  0.44414  0.60562  0.86406  1.0000 -0.3586115013
N   N246      1.0  0.60562  0.44414  0.08618  1.0000 -0.3586115013
N   N247      1.0  0.44414  0.08618  0.60562  1.0000 -0.3586115013
N   N248      1.0  0.60562  0.86406  0.44414  1.0000 -0.3586115013
N   N249      1.0  0.86406  0.60562  0.08618  1.0000 -0.3586115013
N   N250      1.0  0.86406  0.44414  0.60562  1.0000 -0.3586115013
N   N251      1.0  0.08618  0.60562  0.44414  1.0000 -0.3586115013
N   N252      1.0  0.60562  0.08618  0.86406  1.0000 -0.3586115013
N   N253      1.0  0.13594  0.91382  0.39438  1.0000 -0.3586115013
N   N254      1.0  0.55586  0.39438  0.91382  1.0000 -0.3586115013
N   N255      1.0  0.39438  0.55586  0.13594  1.0000 -0.3586115013
N   N256      1.0  0.39438  0.13594  0.91382  1.0000 -0.3586115013
N   N257      1.0  0.91382  0.55586  0.39438  1.0000 -0.3586115013
N   N258      1.0  0.13594  0.39438  0.55586  1.0000 -0.3586115013
N   N259      1.0  0.91382  0.39438  0.13594  1.0000 -0.3586115013
N   N260      1.0  0.39438  0.91382  0.55586  1.0000 -0.3586115013
N   N261      1.0  0.55586  0.13594  0.39438  1.0000 -0.3586115013
N   N262      1.0  0.86406  0.08618  0.44414  1.0000 -0.3586115013
N   N263      1.0  0.08618  0.44414  0.86406  1.0000 -0.3586115013
N   N264      1.0  0.44414  0.86406  0.08618  1.0000 -0.3586115013
N   N265      1.0  0.08618  0.86406  0.44414  1.0000 -0.3586115013
N   N266      1.0  0.44414  0.08618  0.86406  1.0000 -0.3586115013
N   N267      1.0  0.86406  0.44414  0.08618  1.0000 -0.3586115013
N   N268      1.0  0.91382  0.13594  0.39438  1.0000 -0.3586115013
N   N269      1.0  0.55586  0.39438  0.13594  1.0000 -0.3586115013
N   N270      1.0  0.39438  0.55586  0.91382  1.0000 -0.3586115013
N   N271      1.0  0.55586  0.91382  0.39438  1.0000 -0.3586115013
N   N272      1.0  0.39438  0.13594  0.55586  1.0000 -0.3586115013
N   N273      1.0  0.13594  0.39438  0.91382  1.0000 -0.3586115013
N   N274      1.0  0.13594  0.55586  0.39438  1.0000 -0.3586115013
N   N275      1.0  0.91382  0.39438  0.55586  1.0000 -0.3586115013
N   N276      1.0  0.39438  0.91382  0.13594  1.0000 -0.3586115013
N   N277      1.0  0.86406  0.08618  0.60562  1.0000 -0.3586115013
N   N278      1.0  0.44414  0.60562  0.08618  1.0000 -0.3586115013
N   N279      1.0  0.60562  0.44414  0.86406  1.0000 -0.3586115013
N   N280      1.0  0.60562  0.86406  0.08618  1.0000 -0.3586115013
N   N281      1.0  0.08618  0.44414  0.60562  1.0000 -0.3586115013
N   N282      1.0  0.86406  0.60562  0.44414  1.0000 -0.3586115013
N   N283      1.0  0.08618  0.60562  0.86406  1.0000 -0.3586115013
N   N284      1.0  0.60562  0.08618  0.44414  1.0000 -0.3586115013
N   N285      1.0  0.44414  0.86406  0.60562  1.0000 -0.3586115013
N   N286      1.0  0.13594  0.91382  0.55586  1.0000 -0.3586115013
N   N287      1.0  0.91382  0.55586  0.13594  1.0000 -0.3586115013
N   N288      1.0  0.55586  0.13594  0.91382  1.0000 -0.3586115013
N   N289      1.0  0.95276  0.21582  0.54540  1.0000 -0.3652903154
N   N290      1.0  0.54540  0.95276  0.21582  1.0000 -0.3652903154
N   N291      1.0  0.21582  0.54540  0.95276  1.0000 -0.3652903154
N   N292      1.0  0.04724  0.78418  0.71398  1.0000 -0.3652903154
N   N293      1.0  0.45460  0.71398  0.78418  1.0000 -0.3652903154
N   N294      1.0  0.71398  0.45460  0.04724  1.0000 -0.3652903154
N   N295      1.0  0.45460  0.04724  0.71398  1.0000 -0.3652903154
N   N296      1.0  0.71398  0.78418  0.45460  1.0000 -0.3652903154
N   N297      1.0  0.78418  0.71398  0.04724  1.0000 -0.3652903154
N   N298      1.0  0.78418  0.45460  0.71398  1.0000 -0.3652903154
N   N299      1.0  0.04724  0.71398  0.45460  1.0000 -0.3652903154
N   N300      1.0  0.71398  0.04724  0.78418  1.0000 -0.3652903154
N   N301      1.0  0.21582  0.95276  0.28602  1.0000 -0.3652903154
N   N302      1.0  0.54540  0.28602  0.95276  1.0000 -0.3652903154
N   N303      1.0  0.28602  0.54540  0.21582  1.0000 -0.3652903154
N   N304      1.0  0.28602  0.21582  0.95276  1.0000 -0.3652903154
N   N305      1.0  0.95276  0.54540  0.28602  1.0000 -0.3652903154
N   N306      1.0  0.21582  0.28602  0.54540  1.0000 -0.3652903154
N   N307      1.0  0.95276  0.28602  0.21582  1.0000 -0.3652903154
N   N308      1.0  0.28602  0.95276  0.54540  1.0000 -0.3652903154
N   N309      1.0  0.54540  0.21582  0.28602  1.0000 -0.3652903154
N   N310      1.0  0.78418  0.04724  0.45460  1.0000 -0.3652903154
N   N311      1.0  0.04724  0.45460  0.78418  1.0000 -0.3652903154
N   N312      1.0  0.45460  0.78418  0.04724  1.0000 -0.3652903154
N   N313      1.0  0.04724  0.78418  0.45460  1.0000 -0.3652903154
N   N314      1.0  0.45460  0.04724  0.78418  1.0000 -0.3652903154
N   N315      1.0  0.78418  0.45460  0.04724  1.0000 -0.3652903154
N   N316      1.0  0.95276  0.21582  0.28602  1.0000 -0.3652903154
N   N317      1.0  0.54540  0.28602  0.21582  1.0000 -0.3652903154
N   N318      1.0  0.28602  0.54540  0.95276  1.0000 -0.3652903154
N   N319      1.0  0.54540  0.95276  0.28602  1.0000 -0.3652903154
N   N320      1.0  0.28602  0.21582  0.54540  1.0000 -0.3652903154
N   N321      1.0  0.21582  0.28602  0.95276  1.0000 -0.3652903154
N   N322      1.0  0.21582  0.54540  0.28602  1.0000 -0.3652903154
N   N323      1.0  0.95276  0.28602  0.54540  1.0000 -0.3652903154
N   N324      1.0  0.28602  0.95276  0.21582  1.0000 -0.3652903154
N   N325      1.0  0.78418  0.04724  0.71398  1.0000 -0.3652903154
N   N326      1.0  0.45460  0.71398  0.04724  1.0000 -0.3652903154
N   N327      1.0  0.71398  0.45460  0.78418  1.0000 -0.3652903154
N   N328      1.0  0.71398  0.78418  0.04724  1.0000 -0.3652903154
N   N329      1.0  0.04724  0.45460  0.71398  1.0000 -0.3652903154
N   N330      1.0  0.78418  0.71398  0.45460  1.0000 -0.3652903154
N   N331      1.0  0.04724  0.71398  0.78418  1.0000 -0.3652903154
N   N332      1.0  0.71398  0.04724  0.45460  1.0000 -0.3652903154
N   N333      1.0  0.45460  0.78418  0.71398  1.0000 -0.3652903154
N   N334      1.0  0.21582  0.95276  0.54540  1.0000 -0.3652903154
N   N335      1.0  0.95276  0.54540  0.21582  1.0000 -0.3652903154
N   N336      1.0  0.54540  0.21582  0.95276  1.0000 -0.3652903154
N   N337      1.0  0.03035  0.10103  0.54847  1.0000 -0.407207581
N   N338      1.0  0.54847  0.03035  0.10103  1.0000 -0.407207581
N   N339      1.0  0.10103  0.54847  0.03035  1.0000 -0.407207581
N   N340      1.0  0.96965  0.89897  0.67985  1.0000 -0.407207581
N   N341      1.0  0.45153  0.67985  0.89897  1.0000 -0.407207581
N   N342      1.0  0.67985  0.45153  0.96965  1.0000 -0.407207581
N   N343      1.0  0.45153  0.96965  0.67985  1.0000 -0.407207581
N   N344      1.0  0.67985  0.89897  0.45153  1.0000 -0.407207581
N   N345      1.0  0.89897  0.67985  0.96965  1.0000 -0.407207581
N   N346      1.0  0.89897  0.45153  0.67985  1.0000 -0.407207581
N   N347      1.0  0.96965  0.67985  0.45153  1.0000 -0.407207581
N   N348      1.0  0.67985  0.96965  0.89897  1.0000 -0.407207581
N   N349      1.0  0.10103  0.03035  0.32015  1.0000 -0.407207581
N   N350      1.0  0.54847  0.32015  0.03035  1.0000 -0.407207581
N   N351      1.0  0.32015  0.54847  0.10103  1.0000 -0.407207581
N   N352      1.0  0.32015  0.10103  0.03035  1.0000 -0.407207581
N   N353      1.0  0.03035  0.54847  0.32015  1.0000 -0.407207581
N   N354      1.0  0.10103  0.32015  0.54847  1.0000 -0.407207581
N   N355      1.0  0.03035  0.32015  0.10103  1.0000 -0.407207581
N   N356      1.0  0.32015  0.03035  0.54847  1.0000 -0.407207581
N   N357      1.0  0.54847  0.10103  0.32015  1.0000 -0.407207581
N   N358      1.0  0.89897  0.96965  0.45153  1.0000 -0.407207581
N   N359      1.0  0.96965  0.45153  0.89897  1.0000 -0.407207581
N   N360      1.0  0.45153  0.89897  0.96965  1.0000 -0.407207581
N   N361      1.0  0.96965  0.89897  0.45153  1.0000 -0.407207581
N   N362      1.0  0.45153  0.96965  0.89897  1.0000 -0.407207581
N   N363      1.0  0.89897  0.45153  0.96965  1.0000 -0.407207581
N   N364      1.0  0.03035  0.10103  0.32015  1.0000 -0.407207581
N   N365      1.0  0.54847  0.32015  0.10103  1.0000 -0.407207581
N   N366      1.0  0.32015  0.54847  0.03035  1.0000 -0.407207581
N   N367      1.0  0.54847  0.03035  0.32015  1.0000 -0.407207581
N   N368      1.0  0.32015  0.10103  0.54847  1.0000 -0.407207581
N   N369      1.0  0.10103  0.32015  0.03035  1.0000 -0.407207581
N   N370      1.0  0.10103  0.54847  0.32015  1.0000 -0.407207581
N   N371      1.0  0.03035  0.32015  0.54847  1.0000 -0.407207581
N   N372      1.0  0.32015  0.03035  0.10103  1.0000 -0.407207581
N   N373      1.0  0.89897  0.96965  0.67985  1.0000 -0.407207581
N   N374      1.0  0.45153  0.67985  0.96965  1.0000 -0.407207581
N   N375      1.0  0.67985  0.45153  0.89897  1.0000 -0.407207581
N   N376      1.0  0.67985  0.89897  0.96965  1.0000 -0.407207581
N   N377      1.0  0.96965  0.45153  0.67985  1.0000 -0.407207581
N   N378      1.0  0.89897  0.67985  0.45153  1.0000 -0.407207581
N   N379      1.0  0.96965  0.67985  0.89897  1.0000 -0.407207581
N   N380      1.0  0.67985  0.96965  0.45153  1.0000 -0.407207581
N   N381      1.0  0.45153  0.89897  0.67985  1.0000 -0.407207581
N   N382      1.0  0.10103  0.03035  0.54847  1.0000 -0.407207581
N   N383      1.0  0.03035  0.54847  0.10103  1.0000 -0.407207581
N   N384      1.0  0.54847  0.10103  0.03035  1.0000 -0.407207581
