# DDEC6 charges by PACMAN v1.1 (https://github.com/mtap-research/PACMAN-charge/)
data_2007[Ag][nbo]3[FSR]1
_chemical_formula_sum              "Ag6 H72 C54 N24"
_cell_length_a       17.6984
_cell_length_b       17.6984
_cell_length_c       17.6984
_cell_angle_alpha    116.66
_cell_angle_beta     116.66
_cell_angle_gamma    116.66

_symmetry_space_group_name_H-M    "P 1"
_symmetry_Int_Tables_number       1

loop_
  _symmetry_equiv_pos_as_xyz
  'x, y, z'

loop_
  _atom_site_type_symbol
  _atom_site_label
  _atom_site_symmetry_multiplicity
  _atom_site_fract_x
  _atom_site_fract_y
  _atom_site_fract_z
  _atom_site_occupancy
  _atom_site_charge
Ag  Ag1       1.0  0.44945  0.89773  0.36764  1.0000 0.2103924772
Ag  Ag2       1.0  0.89773  0.36764  0.44945  1.0000 0.2103924772
Ag  Ag3       1.0  0.36764  0.44945  0.89773  1.0000 0.2103924772
Ag  Ag4       1.0  0.55055  0.10227  0.63236  1.0000 0.2103924772
Ag  Ag5       1.0  0.10227  0.63236  0.55055  1.0000 0.2103924772
Ag  Ag6       1.0  0.63236  0.55055  0.10227  1.0000 0.2103924772
H   H1        1.0  0.89670  0.20290  0.54180  1.0000 0.1124670442
H   H2        1.0  0.20290  0.54180  0.89670  1.0000 0.1124670442
H   H3        1.0  0.54180  0.89670  0.20290  1.0000 0.1124670442
H   H4        1.0  0.10330  0.79710  0.45820  1.0000 0.1124670442
H   H5        1.0  0.79710  0.45820  0.10330  1.0000 0.1124670442
H   H6        1.0  0.45820  0.10330  0.79710  1.0000 0.1124670442
H   H7        1.0  0.70690  0.14680  0.46760  1.0000 0.1206700243
H   H8        1.0  0.14680  0.46760  0.70690  1.0000 0.1206700243
H   H9        1.0  0.46760  0.70690  0.14680  1.0000 0.1206700243
H   H10       1.0  0.29310  0.85320  0.53240  1.0000 0.1206700243
H   H11       1.0  0.85320  0.53240  0.29310  1.0000 0.1206700243
H   H12       1.0  0.53240  0.29310  0.85320  1.0000 0.1206700243
H   H13       1.0  0.57940  0.85620  0.46830  1.0000 0.1308237409
H   H14       1.0  0.85620  0.46830  0.57940  1.0000 0.1308237409
H   H15       1.0  0.46830  0.57940  0.85620  1.0000 0.1308237409
H   H16       1.0  0.42060  0.14380  0.53170  1.0000 0.1308237409
H   H17       1.0  0.14380  0.53170  0.42060  1.0000 0.1308237409
H   H18       1.0  0.53170  0.42060  0.14380  1.0000 0.1308237409
H   H19       1.0  0.73960  0.95420  0.59330  1.0000 0.1308237409
H   H20       1.0  0.95420  0.59330  0.73960  1.0000 0.1308237409
H   H21       1.0  0.59330  0.73960  0.95420  1.0000 0.1308237409
H   H22       1.0  0.26040  0.04580  0.40670  1.0000 0.1308237409
H   H23       1.0  0.04580  0.40670  0.26040  1.0000 0.1308237409
H   H24       1.0  0.40670  0.26040  0.04580  1.0000 0.1308237409
H   H25       1.0  0.63200  0.81940  0.43030  1.0000 0.1206700243
H   H26       1.0  0.81940  0.43030  0.63200  1.0000 0.1206700243
H   H27       1.0  0.43030  0.63200  0.81940  1.0000 0.1206700243
H   H28       1.0  0.36800  0.18060  0.56970  1.0000 0.1206700243
H   H29       1.0  0.18060  0.56970  0.36800  1.0000 0.1206700243
H   H30       1.0  0.56970  0.36800  0.18060  1.0000 0.1206700243
H   H31       1.0  0.79240  0.83220  0.20150  1.0000 0.1124670442
H   H32       1.0  0.83220  0.20150  0.79240  1.0000 0.1124670442
H   H33       1.0  0.20150  0.79240  0.83220  1.0000 0.1124670442
H   H34       1.0  0.20760  0.16780  0.79850  1.0000 0.1124670442
H   H35       1.0  0.16780  0.79850  0.20760  1.0000 0.1124670442
H   H36       1.0  0.79850  0.20760  0.16780  1.0000 0.1124670442
H   H37       1.0  0.90880  0.05210  0.40520  1.0000 0.1206700243
H   H38       1.0  0.05210  0.40520  0.90880  1.0000 0.1206700243
H   H39       1.0  0.40520  0.90880  0.05210  1.0000 0.1206700243
H   H40       1.0  0.09120  0.94790  0.59480  1.0000 0.1206700243
H   H41       1.0  0.94790  0.59480  0.09120  1.0000 0.1206700243
H   H42       1.0  0.59480  0.09120  0.94790  1.0000 0.1206700243
H   H43       1.0  0.91240  0.04050  0.60930  1.0000 0.1124670442
H   H44       1.0  0.04050  0.60930  0.91240  1.0000 0.1124670442
H   H45       1.0  0.60930  0.91240  0.04050  1.0000 0.1124670442
H   H46       1.0  0.08760  0.95950  0.39070  1.0000 0.1124670442
H   H47       1.0  0.95950  0.39070  0.08760  1.0000 0.1124670442
H   H48       1.0  0.39070  0.08760  0.95950  1.0000 0.1124670442
H   H49       1.0  0.00600  0.15820  0.64000  1.0000 0.1124670442
H   H50       1.0  0.15820  0.64000  0.00600  1.0000 0.1124670442
H   H51       1.0  0.64000  0.00600  0.15820  1.0000 0.1124670442
H   H52       1.0  0.99400  0.84180  0.36000  1.0000 0.1124670442
H   H53       1.0  0.84180  0.36000  0.99400  1.0000 0.1124670442
H   H54       1.0  0.36000  0.99400  0.84180  1.0000 0.1124670442
H   H55       1.0  0.70010  0.67290  0.33200  1.0000 0.1369792691
H   H56       1.0  0.67290  0.33200  0.70010  1.0000 0.1369792691
H   H57       1.0  0.33200  0.70010  0.67290  1.0000 0.1369792691
H   H58       1.0  0.29990  0.32710  0.66800  1.0000 0.1369792691
H   H59       1.0  0.32710  0.66800  0.29990  1.0000 0.1369792691
H   H60       1.0  0.66800  0.29990  0.32710  1.0000 0.1369792691
H   H61       1.0  0.69000  0.75760  0.39590  1.0000 0.1308237409
H   H62       1.0  0.75760  0.39590  0.69000  1.0000 0.1308237409
H   H63       1.0  0.39590  0.69000  0.75760  1.0000 0.1308237409
H   H64       1.0  0.31000  0.24240  0.60410  1.0000 0.1308237409
H   H65       1.0  0.24240  0.60410  0.31000  1.0000 0.1308237409
H   H66       1.0  0.60410  0.31000  0.24240  1.0000 0.1308237409
H   H67       1.0  0.83940  0.83140  0.49710  1.0000 0.1308237409
H   H68       1.0  0.83140  0.49710  0.83940  1.0000 0.1308237409
H   H69       1.0  0.49710  0.83940  0.83140  1.0000 0.1308237409
H   H70       1.0  0.16060  0.16860  0.50290  1.0000 0.1308237409
H   H71       1.0  0.16860  0.50290  0.16060  1.0000 0.1308237409
H   H72       1.0  0.50290  0.16060  0.16860  1.0000 0.1308237409
C   C1        1.0  0.82980  0.14140  0.52310  1.0000 -0.1544238234
C   C2        1.0  0.14140  0.52310  0.82980  1.0000 -0.1544238234
C   C3        1.0  0.52310  0.82980  0.14140  1.0000 -0.1544238234
C   C4        1.0  0.17020  0.85860  0.47690  1.0000 -0.1544238234
C   C5        1.0  0.85860  0.47690  0.17020  1.0000 -0.1544238234
C   C6        1.0  0.47690  0.17020  0.85860  1.0000 -0.1544238234
C   C7        1.0  0.72490  0.10970  0.48210  1.0000 -0.0752783174
C   C8        1.0  0.10970  0.48210  0.72490  1.0000 -0.0752783174
C   C9        1.0  0.48210  0.72490  0.10970  1.0000 -0.0752783174
C   C10       1.0  0.27510  0.89030  0.51790  1.0000 -0.0752783174
C   C11       1.0  0.89030  0.51790  0.27510  1.0000 -0.0752783174
C   C12       1.0  0.51790  0.27510  0.89030  1.0000 -0.0752783174
C   C13       1.0  0.70750  0.99090  0.49670  1.0000 0.2932371989
C   C14       1.0  0.99090  0.49670  0.70750  1.0000 0.2932371989
C   C15       1.0  0.49670  0.70750  0.99090  1.0000 0.2932371989
C   C16       1.0  0.29250  0.00910  0.50330  1.0000 0.2932371989
C   C17       1.0  0.00910  0.50330  0.29250  1.0000 0.2932371989
C   C18       1.0  0.50330  0.29250  0.00910  1.0000 0.2932371989
C   C19       1.0  0.66040  0.89670  0.49720  1.0000 -0.5276156143
C   C20       1.0  0.89670  0.49720  0.66040  1.0000 -0.5276156143
C   C21       1.0  0.49720  0.66040  0.89670  1.0000 -0.5276156143
C   C22       1.0  0.33960  0.10330  0.50280  1.0000 -0.5276156143
C   C23       1.0  0.10330  0.50280  0.33960  1.0000 -0.5276156143
C   C24       1.0  0.50280  0.33960  0.10330  1.0000 -0.5276156143
C   C25       1.0  0.80100  0.85140  0.26520  1.0000 -0.0752783174
C   C26       1.0  0.85140  0.26520  0.80100  1.0000 -0.0752783174
C   C27       1.0  0.26520  0.80100  0.85140  1.0000 -0.0752783174
C   C28       1.0  0.19900  0.14860  0.73480  1.0000 -0.0749748776
C   C29       1.0  0.14860  0.73480  0.19900  1.0000 -0.0752783174
C   C30       1.0  0.73480  0.19900  0.14860  1.0000 -0.0749748776
C   C31       1.0  0.86490  0.97270  0.37670  1.0000 -0.1327380754
C   C32       1.0  0.97270  0.37670  0.86490  1.0000 -0.1327380754
C   C33       1.0  0.37670  0.86490  0.97270  1.0000 -0.1327380754
C   C34       1.0  0.13510  0.02730  0.62330  1.0000 -0.1327380754
C   C35       1.0  0.02730  0.62330  0.13510  1.0000 -0.1327380754
C   C36       1.0  0.62330  0.13510  0.02730  1.0000 -0.1327380754
C   C37       1.0  0.78300  0.82580  0.36580  1.0000 0.2737744347
C   C38       1.0  0.82580  0.36580  0.78300  1.0000 0.2737744347
C   C39       1.0  0.36580  0.78300  0.82580  1.0000 0.2737744347
C   C40       1.0  0.21700  0.17420  0.63420  1.0000 0.2737744347
C   C41       1.0  0.17420  0.63420  0.21700  1.0000 0.2737744347
C   C42       1.0  0.63420  0.21700  0.17420  1.0000 0.2737744347
C   C43       1.0  0.90790  0.06250  0.56740  1.0000 -0.0582886988
C   C44       1.0  0.06250  0.56740  0.90790  1.0000 -0.0582886988
C   C45       1.0  0.56740  0.90790  0.06250  1.0000 -0.0582886988
C   C46       1.0  0.09210  0.93750  0.43260  1.0000 -0.0582886988
C   C47       1.0  0.93750  0.43260  0.09210  1.0000 -0.0582886988
C   C48       1.0  0.43260  0.09210  0.93750  1.0000 -0.0582886988
C   C49       1.0  0.75030  0.76680  0.40070  1.0000 -0.5247869397
C   C50       1.0  0.76680  0.40070  0.75030  1.0000 -0.5247869397
C   C51       1.0  0.40070  0.75030  0.76680  1.0000 -0.5247869397
C   C52       1.0  0.24970  0.23320  0.59930  1.0000 -0.5247869397
C   C53       1.0  0.23320  0.59930  0.24970  1.0000 -0.5276156143
C   C54       1.0  0.59930  0.24970  0.23320  1.0000 -0.5247869397
N   N1        1.0  0.81922  0.06501  0.53232  1.0000 -0.0420594575
N   N2        1.0  0.06501  0.53232  0.81922  1.0000 -0.0420594575
N   N3        1.0  0.53232  0.81922  0.06501  1.0000 -0.0420594575
N   N4        1.0  0.18078  0.93499  0.46768  1.0000 -0.0420594575
N   N5        1.0  0.93499  0.46768  0.18078  1.0000 -0.0420594575
N   N6        1.0  0.46768  0.18078  0.93499  1.0000 -0.0420594575
N   N7        1.0  0.64796  0.01529  0.46427  1.0000 -0.2983929022
N   N8        1.0  0.01529  0.46427  0.64796  1.0000 -0.2983929022
N   N9        1.0  0.46427  0.64796  0.01529  1.0000 -0.2983929022
N   N10       1.0  0.35204  0.98471  0.53573  1.0000 -0.2983929022
N   N11       1.0  0.98471  0.53573  0.35204  1.0000 -0.2983929022
N   N12       1.0  0.53573  0.35204  0.98471  1.0000 -0.2983929022
N   N13       1.0  0.75084  0.76099  0.25882  1.0000 -0.3154352808
N   N14       1.0  0.76099  0.25882  0.75084  1.0000 -0.3154352808
N   N15       1.0  0.25882  0.75084  0.76099  1.0000 -0.3154352808
N   N16       1.0  0.24916  0.23901  0.74118  1.0000 -0.3149727786
N   N17       1.0  0.23901  0.74118  0.24916  1.0000 -0.3154352808
N   N18       1.0  0.74118  0.24916  0.23901  1.0000 -0.3154352808
N   N19       1.0  0.85188  0.95509  0.44023  1.0000 -0.0455472494
N   N20       1.0  0.95509  0.44023  0.85188  1.0000 -0.0455472494
N   N21       1.0  0.44023  0.85188  0.95509  1.0000 -0.0455472494
N   N22       1.0  0.14812  0.04491  0.55977  1.0000 -0.0455472494
N   N23       1.0  0.04491  0.55977  0.14812  1.0000 -0.0455472494
N   N24       1.0  0.55977  0.14812  0.04491  1.0000 -0.0420594575
