# DDEC6 charges by PACMAN v1.1 (https://github.com/mtap-research/PACMAN-charge/)
data_2007[ZnSm][stp]3[FSR]1
_chemical_formula_sum              "Sm4 Zn6 H72 C48 O72"
_cell_length_a       14.8127
_cell_length_b       14.8127
_cell_length_c       15.613
_cell_angle_alpha    90
_cell_angle_beta     90
_cell_angle_gamma    120

_symmetry_space_group_name_H-M    "P 1"
_symmetry_Int_Tables_number       1

loop_
  _symmetry_equiv_pos_as_xyz
  'x, y, z'

loop_
  _atom_site_type_symbol
  _atom_site_label
  _atom_site_symmetry_multiplicity
  _atom_site_fract_x
  _atom_site_fract_y
  _atom_site_fract_z
  _atom_site_occupancy
  _atom_site_charge
Sm  Sm1       1.0  0.33333  0.66667  0.25000  1.0000 1.9412655482
Sm  Sm2       1.0  0.66667  0.33333  0.25000  1.0000 1.9412655482
Sm  Sm3       1.0  0.66667  0.33333  0.75000  1.0000 1.9412655482
Sm  Sm4       1.0  0.33333  0.66667  0.75000  1.0000 1.9412655482
Zn  Zn1       1.0  0.50000  0.00000  0.00000  1.0000 0.9838612626
Zn  Zn2       1.0  0.00000  0.50000  0.00000  1.0000 0.9838612626
Zn  Zn3       1.0  0.50000  0.50000  0.00000  1.0000 0.9838612626
Zn  Zn4       1.0  0.00000  0.50000  0.50000  1.0000 0.9838612626
Zn  Zn5       1.0  0.50000  0.00000  0.50000  1.0000 0.9850099335
Zn  Zn6       1.0  0.50000  0.50000  0.50000  1.0000 0.9850099335
H   H1        1.0  0.47707  0.82130  0.95360  1.0000 0.3799821088
H   H2        1.0  0.17870  0.65577  0.95360  1.0000 0.3799821088
H   H3        1.0  0.34423  0.52293  0.95360  1.0000 0.3799821088
H   H4        1.0  0.82130  0.34423  0.95360  1.0000 0.3799821088
H   H5        1.0  0.65577  0.47707  0.95360  1.0000 0.3799821088
H   H6        1.0  0.82130  0.47707  0.54640  1.0000 0.3799821088
H   H7        1.0  0.34423  0.82130  0.54640  1.0000 0.3799821088
H   H8        1.0  0.47707  0.65577  0.54640  1.0000 0.3799821088
H   H9        1.0  0.52293  0.17870  0.95360  1.0000 0.3799821088
H   H10       1.0  0.65577  0.17870  0.54640  1.0000 0.3799821088
H   H11       1.0  0.52293  0.34423  0.54640  1.0000 0.3799821088
H   H12       1.0  0.17870  0.52293  0.54640  1.0000 0.3799821088
H   H13       1.0  0.52293  0.17870  0.04640  1.0000 0.3799821088
H   H14       1.0  0.82130  0.34423  0.04640  1.0000 0.3799821088
H   H15       1.0  0.65577  0.47707  0.04640  1.0000 0.3799821088
H   H16       1.0  0.17870  0.65577  0.04640  1.0000 0.3799821088
H   H17       1.0  0.34423  0.52293  0.04640  1.0000 0.3799821088
H   H18       1.0  0.17870  0.52293  0.45360  1.0000 0.3799821088
H   H19       1.0  0.65577  0.17870  0.45360  1.0000 0.3799821088
H   H20       1.0  0.52293  0.34423  0.45360  1.0000 0.3799821088
H   H21       1.0  0.47707  0.82130  0.04640  1.0000 0.3799821088
H   H22       1.0  0.34423  0.82130  0.45360  1.0000 0.3799821088
H   H23       1.0  0.47707  0.65577  0.45360  1.0000 0.3799821088
H   H24       1.0  0.82130  0.47707  0.45360  1.0000 0.3799821088
H   H25       1.0  0.28057  0.91050  0.23030  1.0000 0.1284449534
H   H26       1.0  0.08950  0.37007  0.23030  1.0000 0.1284449534
H   H27       1.0  0.62993  0.71943  0.23030  1.0000 0.1284449534
H   H28       1.0  0.91050  0.62993  0.23030  1.0000 0.1284449534
H   H29       1.0  0.37007  0.28057  0.23030  1.0000 0.1284449534
H   H30       1.0  0.91050  0.28057  0.26970  1.0000 0.1284449534
H   H31       1.0  0.62993  0.91050  0.26970  1.0000 0.1284449534
H   H32       1.0  0.28057  0.37007  0.26970  1.0000 0.1284449534
H   H33       1.0  0.71943  0.08950  0.23030  1.0000 0.1284449534
H   H34       1.0  0.37007  0.08950  0.26970  1.0000 0.1284449534
H   H35       1.0  0.71943  0.62993  0.26970  1.0000 0.1284449534
H   H36       1.0  0.08950  0.71943  0.26970  1.0000 0.1284449534
H   H37       1.0  0.71943  0.08950  0.76970  1.0000 0.1284449534
H   H38       1.0  0.91050  0.62993  0.76970  1.0000 0.1284449534
H   H39       1.0  0.37007  0.28057  0.76970  1.0000 0.1284449534
H   H40       1.0  0.08950  0.37007  0.76970  1.0000 0.1284449534
H   H41       1.0  0.62993  0.71943  0.76970  1.0000 0.1284449534
H   H42       1.0  0.08950  0.71943  0.73030  1.0000 0.1284449534
H   H43       1.0  0.37007  0.08950  0.73030  1.0000 0.1284449534
H   H44       1.0  0.71943  0.62993  0.73030  1.0000 0.1284449534
H   H45       1.0  0.28057  0.91050  0.76970  1.0000 0.1284449534
H   H46       1.0  0.62993  0.91050  0.73030  1.0000 0.1284449534
H   H47       1.0  0.28057  0.37007  0.73030  1.0000 0.1284449534
H   H48       1.0  0.91050  0.28057  0.73030  1.0000 0.1284449534
H   H49       1.0  0.20277  0.83510  0.16090  1.0000 0.1398903379
H   H50       1.0  0.16490  0.36767  0.16090  1.0000 0.1398903379
H   H51       1.0  0.63233  0.79723  0.16090  1.0000 0.1398903379
H   H52       1.0  0.83510  0.63233  0.16090  1.0000 0.1398903379
H   H53       1.0  0.36767  0.20277  0.16090  1.0000 0.1398903379
H   H54       1.0  0.83510  0.20277  0.33910  1.0000 0.1398903379
H   H55       1.0  0.63233  0.83510  0.33910  1.0000 0.1398903379
H   H56       1.0  0.20277  0.36767  0.33910  1.0000 0.1398903379
H   H57       1.0  0.79723  0.16490  0.16090  1.0000 0.1398903379
H   H58       1.0  0.36767  0.16490  0.33910  1.0000 0.1398903379
H   H59       1.0  0.79723  0.63233  0.33910  1.0000 0.1398903379
H   H60       1.0  0.16490  0.79723  0.33910  1.0000 0.1398903379
H   H61       1.0  0.79723  0.16490  0.83910  1.0000 0.1398903379
H   H62       1.0  0.83510  0.63233  0.83910  1.0000 0.1398903379
H   H63       1.0  0.36767  0.20277  0.83910  1.0000 0.1398903379
H   H64       1.0  0.16490  0.36767  0.83910  1.0000 0.1398903379
H   H65       1.0  0.63233  0.79723  0.83910  1.0000 0.1398903379
H   H66       1.0  0.16490  0.79723  0.66090  1.0000 0.1398903379
H   H67       1.0  0.36767  0.16490  0.66090  1.0000 0.1398903379
H   H68       1.0  0.79723  0.63233  0.66090  1.0000 0.1398903379
H   H69       1.0  0.20277  0.83510  0.83910  1.0000 0.1398903379
H   H70       1.0  0.63233  0.83510  0.66090  1.0000 0.1398903379
H   H71       1.0  0.20277  0.36767  0.66090  1.0000 0.1398903379
H   H72       1.0  0.83510  0.20277  0.66090  1.0000 0.1398903379
C   C1        1.0  0.35167  0.86870  0.14030  1.0000 0.6230340848
C   C2        1.0  0.13130  0.48297  0.14030  1.0000 0.6230340848
C   C3        1.0  0.51703  0.64833  0.14030  1.0000 0.6230340848
C   C4        1.0  0.86870  0.51703  0.14030  1.0000 0.6230340848
C   C5        1.0  0.48297  0.35167  0.14030  1.0000 0.6230340848
C   C6        1.0  0.86870  0.35167  0.35970  1.0000 0.6230340848
C   C7        1.0  0.51703  0.86870  0.35970  1.0000 0.6230340848
C   C8        1.0  0.35167  0.48297  0.35970  1.0000 0.6230340848
C   C9        1.0  0.64833  0.13130  0.14030  1.0000 0.6230340848
C   C10       1.0  0.48297  0.13130  0.35970  1.0000 0.6230340848
C   C11       1.0  0.64833  0.51703  0.35970  1.0000 0.6230340848
C   C12       1.0  0.13130  0.64833  0.35970  1.0000 0.6230340848
C   C13       1.0  0.64833  0.13130  0.85970  1.0000 0.6230340848
C   C14       1.0  0.86870  0.51703  0.85970  1.0000 0.6230340848
C   C15       1.0  0.48297  0.35167  0.85970  1.0000 0.6230340848
C   C16       1.0  0.13130  0.48297  0.85970  1.0000 0.6230340848
C   C17       1.0  0.51703  0.64833  0.85970  1.0000 0.6230340848
C   C18       1.0  0.13130  0.64833  0.64030  1.0000 0.6230340848
C   C19       1.0  0.48297  0.13130  0.64030  1.0000 0.6230340848
C   C20       1.0  0.64833  0.51703  0.64030  1.0000 0.6230340848
C   C21       1.0  0.35167  0.86870  0.85970  1.0000 0.6230340848
C   C22       1.0  0.51703  0.86870  0.64030  1.0000 0.6230340848
C   C23       1.0  0.35167  0.48297  0.64030  1.0000 0.6230340848
C   C24       1.0  0.86870  0.35167  0.64030  1.0000 0.6230340848
C   C25       1.0  0.26217  0.84890  0.19620  1.0000 -0.189815905
C   C26       1.0  0.15110  0.41327  0.19620  1.0000 -0.189815905
C   C27       1.0  0.58673  0.73783  0.19620  1.0000 -0.189815905
C   C28       1.0  0.84890  0.58673  0.19620  1.0000 -0.189815905
C   C29       1.0  0.41327  0.26217  0.19620  1.0000 -0.189815905
C   C30       1.0  0.84890  0.26217  0.30380  1.0000 -0.189815905
C   C31       1.0  0.58673  0.84890  0.30380  1.0000 -0.189815905
C   C32       1.0  0.26217  0.41327  0.30380  1.0000 -0.189815905
C   C33       1.0  0.73783  0.15110  0.19620  1.0000 -0.189815905
C   C34       1.0  0.41327  0.15110  0.30380  1.0000 -0.189815905
C   C35       1.0  0.73783  0.58673  0.30380  1.0000 -0.189815905
C   C36       1.0  0.15110  0.73783  0.30380  1.0000 -0.189815905
C   C37       1.0  0.73783  0.15110  0.80380  1.0000 -0.189815905
C   C38       1.0  0.84890  0.58673  0.80380  1.0000 -0.189815905
C   C39       1.0  0.41327  0.26217  0.80380  1.0000 -0.189815905
C   C40       1.0  0.15110  0.41327  0.80380  1.0000 -0.189815905
C   C41       1.0  0.58673  0.73783  0.80380  1.0000 -0.189815905
C   C42       1.0  0.15110  0.73783  0.69620  1.0000 -0.189815905
C   C43       1.0  0.41327  0.15110  0.69620  1.0000 -0.189815905
C   C44       1.0  0.73783  0.58673  0.69620  1.0000 -0.189815905
C   C45       1.0  0.26217  0.84890  0.80380  1.0000 -0.189815905
C   C46       1.0  0.58673  0.84890  0.69620  1.0000 -0.189815905
C   C47       1.0  0.26217  0.41327  0.69620  1.0000 -0.189815905
C   C48       1.0  0.84890  0.26217  0.69620  1.0000 -0.189815905
O   O1        1.0  0.38507  0.80520  0.14460  1.0000 -0.6555531448
O   O2        1.0  0.19480  0.57987  0.14460  1.0000 -0.6555531448
O   O3        1.0  0.42013  0.61493  0.14460  1.0000 -0.6555531448
O   O4        1.0  0.80520  0.42013  0.14460  1.0000 -0.6555531448
O   O5        1.0  0.57987  0.38507  0.14460  1.0000 -0.6555531448
O   O6        1.0  0.80520  0.38507  0.35540  1.0000 -0.6555531448
O   O7        1.0  0.42013  0.80520  0.35540  1.0000 -0.6555531448
O   O8        1.0  0.38507  0.57987  0.35540  1.0000 -0.6555531448
O   O9        1.0  0.61493  0.19480  0.14460  1.0000 -0.6555531448
O   O10       1.0  0.57987  0.19480  0.35540  1.0000 -0.6555531448
O   O11       1.0  0.61493  0.42013  0.35540  1.0000 -0.6555531448
O   O12       1.0  0.19480  0.61493  0.35540  1.0000 -0.6555531448
O   O13       1.0  0.61493  0.19480  0.85540  1.0000 -0.6555531448
O   O14       1.0  0.80520  0.42013  0.85540  1.0000 -0.6555531448
O   O15       1.0  0.57987  0.38507  0.85540  1.0000 -0.6555531448
O   O16       1.0  0.19480  0.57987  0.85540  1.0000 -0.6555531448
O   O17       1.0  0.42013  0.61493  0.85540  1.0000 -0.6555531448
O   O18       1.0  0.19480  0.61493  0.64460  1.0000 -0.6555531448
O   O19       1.0  0.57987  0.19480  0.64460  1.0000 -0.6555531448
O   O20       1.0  0.61493  0.42013  0.64460  1.0000 -0.6555531448
O   O21       1.0  0.38507  0.80520  0.85540  1.0000 -0.6555531448
O   O22       1.0  0.42013  0.80520  0.64460  1.0000 -0.6555531448
O   O23       1.0  0.38507  0.57987  0.64460  1.0000 -0.6555531448
O   O24       1.0  0.80520  0.38507  0.64460  1.0000 -0.6555531448
O   O25       1.0  0.38537  0.94560  0.09240  1.0000 -0.5388012727
O   O26       1.0  0.05440  0.43977  0.09240  1.0000 -0.5388012727
O   O27       1.0  0.56023  0.61463  0.09240  1.0000 -0.5388012727
O   O28       1.0  0.94560  0.56023  0.09240  1.0000 -0.5388012727
O   O29       1.0  0.43977  0.38537  0.09240  1.0000 -0.5388012727
O   O30       1.0  0.94560  0.38537  0.40760  1.0000 -0.5388012727
O   O31       1.0  0.56023  0.94560  0.40760  1.0000 -0.5388012727
O   O32       1.0  0.38537  0.43977  0.40760  1.0000 -0.5388012727
O   O33       1.0  0.61463  0.05440  0.09240  1.0000 -0.5388012727
O   O34       1.0  0.43977  0.05440  0.40760  1.0000 -0.5388012727
O   O35       1.0  0.61463  0.56023  0.40760  1.0000 -0.5388012727
O   O36       1.0  0.05440  0.61463  0.40760  1.0000 -0.5388012727
O   O37       1.0  0.61463  0.05440  0.90760  1.0000 -0.5388012727
O   O38       1.0  0.94560  0.56023  0.90760  1.0000 -0.5388012727
O   O39       1.0  0.43977  0.38537  0.90760  1.0000 -0.5388012727
O   O40       1.0  0.05440  0.43977  0.90760  1.0000 -0.5388012727
O   O41       1.0  0.56023  0.61463  0.90760  1.0000 -0.5388012727
O   O42       1.0  0.05440  0.61463  0.59240  1.0000 -0.5388012727
O   O43       1.0  0.43977  0.05440  0.59240  1.0000 -0.5388012727
O   O44       1.0  0.61463  0.56023  0.59240  1.0000 -0.5388012727
O   O45       1.0  0.38537  0.94560  0.90760  1.0000 -0.5388012727
O   O46       1.0  0.56023  0.94560  0.59240  1.0000 -0.5388012727
O   O47       1.0  0.38537  0.43977  0.59240  1.0000 -0.5388012727
O   O48       1.0  0.94560  0.38537  0.59240  1.0000 -0.5388012727
O   O49       1.0  0.23543  0.76457  0.25000  1.0000 -0.2220647981
O   O50       1.0  0.23543  0.47087  0.25000  1.0000 -0.2220647981
O   O51       1.0  0.52913  0.76457  0.25000  1.0000 -0.2220647981
O   O52       1.0  0.76457  0.52913  0.25000  1.0000 -0.2220647981
O   O53       1.0  0.47087  0.23543  0.25000  1.0000 -0.2220647981
O   O54       1.0  0.76457  0.23543  0.25000  1.0000 -0.2220647981
O   O55       1.0  0.76457  0.23543  0.75000  1.0000 -0.2220647981
O   O56       1.0  0.76457  0.52913  0.75000  1.0000 -0.2220647981
O   O57       1.0  0.47087  0.23543  0.75000  1.0000 -0.2220647981
O   O58       1.0  0.23543  0.47087  0.75000  1.0000 -0.2220647981
O   O59       1.0  0.52913  0.76457  0.75000  1.0000 -0.2220647981
O   O60       1.0  0.23543  0.76457  0.75000  1.0000 -0.2220647981
O   O61       1.0  0.50747  0.85890  0.00000  1.0000 -0.6915081193
O   O62       1.0  0.14110  0.64857  0.00000  1.0000 -0.6915081193
O   O63       1.0  0.35143  0.49253  0.00000  1.0000 -0.6915081193
O   O64       1.0  0.85890  0.35143  0.00000  1.0000 -0.6915081193
O   O65       1.0  0.64857  0.50747  0.00000  1.0000 -0.6915081193
O   O66       1.0  0.85890  0.50747  0.50000  1.0000 -0.6915081193
O   O67       1.0  0.35143  0.85890  0.50000  1.0000 -0.6915081193
O   O68       1.0  0.50747  0.64857  0.50000  1.0000 -0.6915081193
O   O69       1.0  0.49253  0.14110  0.00000  1.0000 -0.6915081193
O   O70       1.0  0.64857  0.14110  0.50000  1.0000 -0.6915081193
O   O71       1.0  0.49253  0.35143  0.50000  1.0000 -0.6915081193
O   O72       1.0  0.14110  0.49253  0.50000  1.0000 -0.6915081193
