# DDEC6 charges by PACMAN v1.1 (https://github.com/mtap-research/PACMAN-charge/)
data_2007[Zn][srs]3[FSR]7
_chemical_formula_sum              "Zn24 H192 C288 I48 N96"
_cell_length_a       13.6997
_cell_length_b       27.286
_cell_length_c       45.829
_cell_angle_alpha    90
_cell_angle_beta     90
_cell_angle_gamma    90

_symmetry_space_group_name_H-M    "P 1"
_symmetry_Int_Tables_number       1

loop_
  _symmetry_equiv_pos_as_xyz
  'x, y, z'

loop_
  _atom_site_type_symbol
  _atom_site_label
  _atom_site_symmetry_multiplicity
  _atom_site_fract_x
  _atom_site_fract_y
  _atom_site_fract_z
  _atom_site_occupancy
  _atom_site_charge
Zn  Zn1       1.0  0.84340  0.24633  0.68856  1.0000 0.4685402423
Zn  Zn2       1.0  0.15660  0.25367  0.18856  1.0000 0.4685402423
Zn  Zn3       1.0  0.34340  0.75367  0.81144  1.0000 0.4685402423
Zn  Zn4       1.0  0.65660  0.74633  0.31144  1.0000 0.4685402423
Zn  Zn5       1.0  0.64159  0.03019  0.59069  1.0000 0.4505264335
Zn  Zn6       1.0  0.35841  0.46981  0.09069  1.0000 0.4505264335
Zn  Zn7       1.0  0.14159  0.96981  0.90931  1.0000 0.4505264335
Zn  Zn8       1.0  0.85841  0.53019  0.40931  1.0000 0.4505264335
Zn  Zn9       1.0  0.86030  0.04882  0.42801  1.0000 0.4505264335
Zn  Zn10      1.0  0.13970  0.45118  0.92801  1.0000 0.4505264335
Zn  Zn11      1.0  0.36030  0.95118  0.07199  1.0000 0.4505264335
Zn  Zn12      1.0  0.63970  0.54882  0.57199  1.0000 0.4505264335
Zn  Zn13      1.0  0.15660  0.75367  0.31144  1.0000 0.4685402423
Zn  Zn14      1.0  0.84340  0.74633  0.81144  1.0000 0.4685402423
Zn  Zn15      1.0  0.65660  0.24633  0.18856  1.0000 0.4685402423
Zn  Zn16      1.0  0.34340  0.25367  0.68856  1.0000 0.4685402423
Zn  Zn17      1.0  0.35841  0.96981  0.40931  1.0000 0.4505264335
Zn  Zn18      1.0  0.64159  0.53019  0.90931  1.0000 0.4505264335
Zn  Zn19      1.0  0.85841  0.03019  0.09069  1.0000 0.4505264335
Zn  Zn20      1.0  0.14159  0.46981  0.59069  1.0000 0.4505264335
Zn  Zn21      1.0  0.13970  0.95118  0.57199  1.0000 0.4505264335
Zn  Zn22      1.0  0.86030  0.54882  0.07199  1.0000 0.4505264335
Zn  Zn23      1.0  0.63970  0.04882  0.92801  1.0000 0.4505264335
Zn  Zn24      1.0  0.36030  0.45118  0.42801  1.0000 0.4505264335
H   H1        1.0  0.47510  0.06810  0.62520  1.0000 0.1093822423
H   H2        1.0  0.52490  0.43190  0.12520  1.0000 0.1093822423
H   H3        1.0  0.97510  0.93190  0.87480  1.0000 0.1093822423
H   H4        1.0  0.02490  0.56810  0.37480  1.0000 0.1093822423
H   H5        1.0  0.31760  0.09700  0.61910  1.0000 0.137728606
H   H6        1.0  0.68240  0.40300  0.11910  1.0000 0.137728606
H   H7        1.0  0.81760  0.90300  0.88090  1.0000 0.137728606
H   H8        1.0  0.18240  0.59700  0.38090  1.0000 0.137728606
H   H9        1.0  0.51520  0.06260  0.54020  1.0000 0.1093822423
H   H10       1.0  0.48480  0.43740  0.04020  1.0000 0.1093822423
H   H11       1.0  0.01520  0.93740  0.95980  1.0000 0.1093822423
H   H12       1.0  0.98480  0.56260  0.45980  1.0000 0.1093822423
H   H13       1.0  0.35600  0.08910  0.53200  1.0000 0.137728606
H   H14       1.0  0.64400  0.41090  0.03200  1.0000 0.1328330191
H   H15       1.0  0.85600  0.91090  0.96800  1.0000 0.1328330191
H   H16       1.0  0.14400  0.58910  0.46800  1.0000 0.1328330191
H   H17       1.0  0.05490  0.03250  0.45720  1.0000 0.1093822423
H   H18       1.0  0.94510  0.46750  0.95720  1.0000 0.1093822423
H   H19       1.0  0.55490  0.96750  0.04280  1.0000 0.1093822423
H   H20       1.0  0.44510  0.53250  0.54280  1.0000 0.1093822423
H   H21       1.0  0.14000  0.05810  0.49760  1.0000 0.137728606
H   H22       1.0  0.86000  0.44190  0.99760  1.0000 0.137728606
H   H23       1.0  0.64000  0.94190  0.00240  1.0000 0.137728606
H   H24       1.0  0.36000  0.55810  0.50240  1.0000 0.137728606
H   H25       1.0  0.81640  0.09780  0.48540  1.0000 0.1015482869
H   H26       1.0  0.18360  0.40220  0.98540  1.0000 0.1015482869
H   H27       1.0  0.31640  0.90220  0.01460  1.0000 0.1093822423
H   H28       1.0  0.68360  0.59780  0.51460  1.0000 0.1015482869
H   H29       1.0  0.89740  0.12710  0.52640  1.0000 0.137728606
H   H30       1.0  0.10260  0.37290  0.02640  1.0000 0.137728606
H   H31       1.0  0.39740  0.87290  0.97360  1.0000 0.137728606
H   H32       1.0  0.60260  0.62710  0.47360  1.0000 0.137728606
H   H33       1.0  0.80680  0.18960  0.63430  1.0000 0.1093822423
H   H34       1.0  0.19320  0.31040  0.13430  1.0000 0.1093822423
H   H35       1.0  0.30680  0.81040  0.86570  1.0000 0.1093822423
H   H36       1.0  0.69320  0.68960  0.36570  1.0000 0.1093822423
H   H37       1.0  0.89110  0.15610  0.59540  1.0000 0.1328330191
H   H38       1.0  0.10890  0.34390  0.09540  1.0000 0.1328330191
H   H39       1.0  0.39110  0.84390  0.90460  1.0000 0.1328330191
H   H40       1.0  0.60890  0.65610  0.40460  1.0000 0.1328330191
H   H41       1.0  0.05300  0.22770  0.67240  1.0000 0.1093822423
H   H42       1.0  0.94700  0.27230  0.17240  1.0000 0.1093822423
H   H43       1.0  0.55300  0.77230  0.82760  1.0000 0.1093822423
H   H44       1.0  0.44700  0.72770  0.32760  1.0000 0.1093822423
H   H45       1.0  0.14320  0.19250  0.63520  1.0000 0.1328330191
H   H46       1.0  0.85680  0.30750  0.13520  1.0000 0.1328330191
H   H47       1.0  0.64320  0.80750  0.86480  1.0000 0.1328330191
H   H48       1.0  0.35680  0.69250  0.36480  1.0000 0.1328330191
H   H49       1.0  0.95330  0.30850  0.73210  1.0000 0.1093822423
H   H50       1.0  0.04670  0.19150  0.23210  1.0000 0.1093822423
H   H51       1.0  0.45330  0.69150  0.76790  1.0000 0.1093822423
H   H52       1.0  0.54670  0.80850  0.26790  1.0000 0.1093822423
H   H53       1.0  0.01080  0.30180  0.77960  1.0000 0.1328330191
H   H54       1.0  0.98920  0.19820  0.27960  1.0000 0.1328330191
H   H55       1.0  0.51080  0.69820  0.72040  1.0000 0.1328330191
H   H56       1.0  0.48920  0.80180  0.22040  1.0000 0.1328330191
H   H57       1.0  0.91440  0.16610  0.72670  1.0000 0.1093822423
H   H58       1.0  0.08560  0.33390  0.22670  1.0000 0.1093822423
H   H59       1.0  0.41440  0.83390  0.77330  1.0000 0.1093822423
H   H60       1.0  0.58560  0.66610  0.27330  1.0000 0.1093822423
H   H61       1.0  0.97350  0.15520  0.77380  1.0000 0.1328330191
H   H62       1.0  0.02650  0.34480  0.27380  1.0000 0.1328330191
H   H63       1.0  0.47350  0.84480  0.72620  1.0000 0.1328330191
H   H64       1.0  0.52650  0.65520  0.22620  1.0000 0.1328330191
H   H65       1.0  0.09110  0.01180  0.85040  1.0000 0.1015482869
H   H66       1.0  0.90890  0.48820  0.35040  1.0000 0.1015482869
H   H67       1.0  0.59110  0.98820  0.64960  1.0000 0.1015482869
H   H68       1.0  0.40890  0.51180  0.14960  1.0000 0.1015482869
H   H69       1.0  0.05940  0.08690  0.82830  1.0000 0.1328330191
H   H70       1.0  0.94060  0.41310  0.32830  1.0000 0.1328330191
H   H71       1.0  0.55940  0.91310  0.67170  1.0000 0.1328330191
H   H72       1.0  0.44060  0.58690  0.17170  1.0000 0.1328330191
H   H73       1.0  0.10780  0.07330  0.92750  1.0000 0.1093822423
H   H74       1.0  0.89220  0.42670  0.42750  1.0000 0.1093822423
H   H75       1.0  0.60780  0.92670  0.57250  1.0000 0.1093822423
H   H76       1.0  0.39220  0.57330  0.07250  1.0000 0.1093822423
H   H77       1.0  0.08580  0.15050  0.90770  1.0000 0.1328330191
H   H78       1.0  0.91420  0.34950  0.40770  1.0000 0.1328330191
H   H79       1.0  0.58580  0.84950  0.59230  1.0000 0.1328330191
H   H80       1.0  0.41420  0.65050  0.09230  1.0000 0.1328330191
H   H81       1.0  0.13570  0.34150  0.93760  1.0000 0.1015482869
H   H82       1.0  0.86430  0.15850  0.43760  1.0000 0.1015482869
H   H83       1.0  0.63570  0.65850  0.56240  1.0000 0.1015482869
H   H84       1.0  0.36430  0.84150  0.06240  1.0000 0.1015482869
H   H85       1.0  0.10790  0.26990  0.91230  1.0000 0.1328330191
H   H86       1.0  0.89210  0.23010  0.41230  1.0000 0.1328330191
H   H87       1.0  0.60790  0.73010  0.58770  1.0000 0.1328330191
H   H88       1.0  0.39210  0.76990  0.08770  1.0000 0.1328330191
H   H89       1.0  0.07170  0.42090  0.86860  1.0000 0.1015482869
H   H90       1.0  0.92830  0.07910  0.36860  1.0000 0.1015482869
H   H91       1.0  0.57170  0.57910  0.63140  1.0000 0.1015482869
H   H92       1.0  0.42830  0.92090  0.13140  1.0000 0.1015482869
H   H93       1.0  0.04790  0.35130  0.84070  1.0000 0.1328330191
H   H94       1.0  0.95210  0.14870  0.34070  1.0000 0.1328330191
H   H95       1.0  0.54790  0.64870  0.65930  1.0000 0.1328330191
H   H96       1.0  0.45210  0.85130  0.15930  1.0000 0.1328330191
H   H97       1.0  0.52490  0.93190  0.37480  1.0000 0.1093822423
H   H98       1.0  0.47510  0.56810  0.87480  1.0000 0.1093822423
H   H99       1.0  0.02490  0.06810  0.12520  1.0000 0.1093822423
H   H100      1.0  0.97510  0.43190  0.62520  1.0000 0.1093822423
H   H101      1.0  0.68240  0.90300  0.38090  1.0000 0.137728606
H   H102      1.0  0.31760  0.59700  0.88090  1.0000 0.137728606
H   H103      1.0  0.18240  0.09700  0.11910  1.0000 0.137728606
H   H104      1.0  0.81760  0.40300  0.61910  1.0000 0.137728606
H   H105      1.0  0.48480  0.93740  0.45980  1.0000 0.1093822423
H   H106      1.0  0.51520  0.56260  0.95980  1.0000 0.1093822423
H   H107      1.0  0.98480  0.06260  0.04020  1.0000 0.1093822423
H   H108      1.0  0.01520  0.43740  0.54020  1.0000 0.1093822423
H   H109      1.0  0.64400  0.91090  0.46800  1.0000 0.1328330191
H   H110      1.0  0.35600  0.58910  0.96800  1.0000 0.1328330191
H   H111      1.0  0.14400  0.08910  0.03200  1.0000 0.1328330191
H   H112      1.0  0.85600  0.41090  0.53200  1.0000 0.1328330191
H   H113      1.0  0.94510  0.96750  0.54280  1.0000 0.1093822423
H   H114      1.0  0.05490  0.53250  0.04280  1.0000 0.1093822423
H   H115      1.0  0.44510  0.03250  0.95720  1.0000 0.1093822423
H   H116      1.0  0.55490  0.46750  0.45720  1.0000 0.1093822423
H   H117      1.0  0.86000  0.94190  0.50240  1.0000 0.137728606
H   H118      1.0  0.14000  0.55810  0.00240  1.0000 0.137728606
H   H119      1.0  0.36000  0.05810  0.99760  1.0000 0.137728606
H   H120      1.0  0.64000  0.44190  0.49760  1.0000 0.137728606
H   H121      1.0  0.18360  0.90220  0.51460  1.0000 0.1015482869
H   H122      1.0  0.81640  0.59780  0.01460  1.0000 0.1015482869
H   H123      1.0  0.68360  0.09780  0.98540  1.0000 0.1015482869
H   H124      1.0  0.31640  0.40220  0.48540  1.0000 0.1015482869
H   H125      1.0  0.10260  0.87290  0.47360  1.0000 0.137728606
H   H126      1.0  0.89740  0.62710  0.97360  1.0000 0.137728606
H   H127      1.0  0.60260  0.12710  0.02640  1.0000 0.137728606
H   H128      1.0  0.39740  0.37290  0.52640  1.0000 0.137728606
H   H129      1.0  0.19320  0.81040  0.36570  1.0000 0.1093822423
H   H130      1.0  0.80680  0.68960  0.86570  1.0000 0.1093822423
H   H131      1.0  0.69320  0.18960  0.13430  1.0000 0.1093822423
H   H132      1.0  0.30680  0.31040  0.63430  1.0000 0.1093822423
H   H133      1.0  0.10890  0.84390  0.40460  1.0000 0.1328330191
H   H134      1.0  0.89110  0.65610  0.90460  1.0000 0.1328330191
H   H135      1.0  0.60890  0.15610  0.09540  1.0000 0.1328330191
H   H136      1.0  0.39110  0.34390  0.59540  1.0000 0.1328330191
H   H137      1.0  0.94700  0.77230  0.32760  1.0000 0.1093822423
H   H138      1.0  0.05300  0.72770  0.82760  1.0000 0.1093822423
H   H139      1.0  0.44700  0.22770  0.17240  1.0000 0.1093822423
H   H140      1.0  0.55300  0.27230  0.67240  1.0000 0.1093822423
H   H141      1.0  0.85680  0.80750  0.36480  1.0000 0.1328330191
H   H142      1.0  0.14320  0.69250  0.86480  1.0000 0.1328330191
H   H143      1.0  0.35680  0.19250  0.13520  1.0000 0.1328330191
H   H144      1.0  0.64320  0.30750  0.63520  1.0000 0.1328330191
H   H145      1.0  0.04670  0.69150  0.26790  1.0000 0.1093822423
H   H146      1.0  0.95330  0.80850  0.76790  1.0000 0.1093822423
H   H147      1.0  0.54670  0.30850  0.23210  1.0000 0.1093822423
H   H148      1.0  0.45330  0.19150  0.73210  1.0000 0.1093822423
H   H149      1.0  0.98920  0.69820  0.22040  1.0000 0.1328330191
H   H150      1.0  0.01080  0.80180  0.72040  1.0000 0.1328330191
H   H151      1.0  0.48920  0.30180  0.27960  1.0000 0.1328330191
H   H152      1.0  0.51080  0.19820  0.77960  1.0000 0.1328330191
H   H153      1.0  0.08560  0.83390  0.27330  1.0000 0.1093822423
H   H154      1.0  0.91440  0.66610  0.77330  1.0000 0.1093822423
H   H155      1.0  0.58560  0.16610  0.22670  1.0000 0.1093822423
H   H156      1.0  0.41440  0.33390  0.72670  1.0000 0.1093822423
H   H157      1.0  0.02650  0.84480  0.22620  1.0000 0.1328330191
H   H158      1.0  0.97350  0.65520  0.72620  1.0000 0.1328330191
H   H159      1.0  0.52650  0.15520  0.27380  1.0000 0.1328330191
H   H160      1.0  0.47350  0.34480  0.77380  1.0000 0.1328330191
H   H161      1.0  0.90890  0.98820  0.14960  1.0000 0.1015482869
H   H162      1.0  0.09110  0.51180  0.64960  1.0000 0.1015482869
H   H163      1.0  0.40890  0.01180  0.35040  1.0000 0.1015482869
H   H164      1.0  0.59110  0.48820  0.85040  1.0000 0.1015482869
H   H165      1.0  0.94060  0.91310  0.17170  1.0000 0.1328330191
H   H166      1.0  0.05940  0.58690  0.67170  1.0000 0.1328330191
H   H167      1.0  0.44060  0.08690  0.32830  1.0000 0.1328330191
H   H168      1.0  0.55940  0.41310  0.82830  1.0000 0.1328330191
H   H169      1.0  0.89220  0.92670  0.07250  1.0000 0.1093822423
H   H170      1.0  0.10780  0.57330  0.57250  1.0000 0.1093822423
H   H171      1.0  0.39220  0.07330  0.42750  1.0000 0.1093822423
H   H172      1.0  0.60780  0.42670  0.92750  1.0000 0.1093822423
H   H173      1.0  0.91420  0.84950  0.09230  1.0000 0.1328330191
H   H174      1.0  0.08580  0.65050  0.59230  1.0000 0.1328330191
H   H175      1.0  0.41420  0.15050  0.40770  1.0000 0.1328330191
H   H176      1.0  0.58580  0.34950  0.90770  1.0000 0.1328330191
H   H177      1.0  0.86430  0.65850  0.06240  1.0000 0.1015482869
H   H178      1.0  0.13570  0.84150  0.56240  1.0000 0.1015482869
H   H179      1.0  0.36430  0.34150  0.43760  1.0000 0.1015482869
H   H180      1.0  0.63570  0.15850  0.93760  1.0000 0.1015482869
H   H181      1.0  0.89210  0.73010  0.08770  1.0000 0.1328330191
H   H182      1.0  0.10790  0.76990  0.58770  1.0000 0.1328330191
H   H183      1.0  0.39210  0.26990  0.41230  1.0000 0.1328330191
H   H184      1.0  0.60790  0.23010  0.91230  1.0000 0.1328330191
H   H185      1.0  0.92830  0.57910  0.13140  1.0000 0.1015482869
H   H186      1.0  0.07170  0.92090  0.63140  1.0000 0.1015482869
H   H187      1.0  0.42830  0.42090  0.36860  1.0000 0.1015482869
H   H188      1.0  0.57170  0.07910  0.86860  1.0000 0.1015482869
H   H189      1.0  0.95210  0.64870  0.15930  1.0000 0.1328330191
H   H190      1.0  0.04790  0.85130  0.65930  1.0000 0.1328330191
H   H191      1.0  0.45210  0.35130  0.34070  1.0000 0.1328330191
H   H192      1.0  0.54790  0.14870  0.84070  1.0000 0.1328330191
C   C1        1.0  0.45030  0.07250  0.60607  1.0000 0.0893203653
C   C2        1.0  0.54970  0.42750  0.10607  1.0000 0.0795494643
C   C3        1.0  0.95030  0.92750  0.89393  1.0000 0.0893203653
C   C4        1.0  0.04970  0.57250  0.39393  1.0000 0.0795494643
C   C5        1.0  0.35690  0.08990  0.60254  1.0000 -0.121280089
C   C6        1.0  0.64310  0.41010  0.10254  1.0000 -0.121280089
C   C7        1.0  0.85690  0.91010  0.89746  1.0000 -0.121280089
C   C8        1.0  0.14310  0.58990  0.39746  1.0000 -0.121280089
C   C9        1.0  0.47370  0.06890  0.55636  1.0000 0.0893203653
C   C10       1.0  0.52630  0.43110  0.05636  1.0000 0.0893203653
C   C11       1.0  0.97370  0.93110  0.94364  1.0000 0.0893203653
C   C12       1.0  0.02630  0.56890  0.44364  1.0000 0.0893203653
C   C13       1.0  0.37960  0.08560  0.55137  1.0000 -0.1297305862
C   C14       1.0  0.62040  0.41440  0.05137  1.0000 -0.1297305862
C   C15       1.0  0.87960  0.91440  0.94863  1.0000 -0.1297305862
C   C16       1.0  0.12040  0.58560  0.44863  1.0000 -0.1297305862
C   C17       1.0  0.32050  0.09700  0.57480  1.0000 0.0599638948
C   C18       1.0  0.67950  0.40300  0.07480  1.0000 0.0599638948
C   C19       1.0  0.82050  0.90300  0.92520  1.0000 0.0599638948
C   C20       1.0  0.17950  0.59700  0.42520  1.0000 0.0599638948
C   C21       1.0  0.21850  0.11320  0.56985  1.0000 0.3706470342
C   C22       1.0  0.78150  0.38680  0.06985  1.0000 0.3706470342
C   C23       1.0  0.71850  0.88680  0.93015  1.0000 0.3706470342
C   C24       1.0  0.28150  0.61320  0.43015  1.0000 0.3706470342
C   C25       1.0  0.02270  0.05210  0.47135  1.0000 0.0795494643
C   C26       1.0  0.97730  0.44790  0.97135  1.0000 0.0795494643
C   C27       1.0  0.52270  0.94790  0.02865  1.0000 0.0795494643
C   C28       1.0  0.47730  0.55210  0.52865  1.0000 0.0795494643
C   C29       1.0  0.07360  0.06730  0.49528  1.0000 -0.1437878925
C   C30       1.0  0.92640  0.43270  0.99528  1.0000 -0.1437878925
C   C31       1.0  0.57360  0.93270  0.00472  1.0000 -0.1437878925
C   C32       1.0  0.42640  0.56730  0.50472  1.0000 -0.1437878925
C   C33       1.0  0.88370  0.09050  0.48780  1.0000 0.0795494643
C   C34       1.0  0.11630  0.40950  0.98780  1.0000 0.0795494643
C   C35       1.0  0.38370  0.90950  0.01220  1.0000 0.0795494643
C   C36       1.0  0.61630  0.59050  0.51220  1.0000 0.0795494643
C   C37       1.0  0.93110  0.10770  0.51241  1.0000 -0.1476873878
C   C38       1.0  0.06890  0.39230  0.01241  1.0000 -0.1476873878
C   C39       1.0  0.43110  0.89230  0.98759  1.0000 -0.1476873878
C   C40       1.0  0.56890  0.60770  0.48759  1.0000 -0.1476873878
C   C41       1.0  0.02880  0.09610  0.51627  1.0000 0.0599638948
C   C42       1.0  0.97120  0.40390  0.01627  1.0000 0.0599638948
C   C43       1.0  0.52880  0.90390  0.98373  1.0000 0.0599638948
C   C44       1.0  0.47120  0.59610  0.48373  1.0000 0.0599638948
C   C45       1.0  0.08200  0.11270  0.54271  1.0000 0.3706470342
C   C46       1.0  0.91800  0.38730  0.04271  1.0000 0.3706470342
C   C47       1.0  0.58200  0.88730  0.95729  1.0000 0.3706470342
C   C48       1.0  0.41800  0.61270  0.45729  1.0000 0.3706470342
C   C49       1.0  0.87610  0.19080  0.63426  1.0000 0.0893203653
C   C50       1.0  0.12390  0.30920  0.13426  1.0000 0.0795494643
C   C51       1.0  0.37610  0.80920  0.86574  1.0000 0.0795494643
C   C52       1.0  0.62390  0.69080  0.36574  1.0000 0.0893203653
C   C53       1.0  0.92590  0.17030  0.61119  1.0000 -0.121280089
C   C54       1.0  0.07410  0.32970  0.11119  1.0000 -0.121280089
C   C55       1.0  0.42590  0.82970  0.88881  1.0000 -0.121280089
C   C56       1.0  0.57410  0.67030  0.38881  1.0000 -0.121280089
C   C57       1.0  0.01970  0.21260  0.65655  1.0000 0.0893203653
C   C58       1.0  0.98030  0.28740  0.15655  1.0000 0.0893203653
C   C59       1.0  0.51970  0.78740  0.84345  1.0000 0.0893203653
C   C60       1.0  0.48030  0.71260  0.34345  1.0000 0.0893203653
C   C61       1.0  0.07390  0.19190  0.63445  1.0000 -0.121280089
C   C62       1.0  0.92610  0.30810  0.13445  1.0000 -0.121280089
C   C63       1.0  0.57390  0.80810  0.86555  1.0000 -0.1297305862
C   C64       1.0  0.42610  0.69190  0.36555  1.0000 -0.1297305862
C   C65       1.0  0.02660  0.17040  0.61122  1.0000 0.0599638948
C   C66       1.0  0.97340  0.32960  0.11122  1.0000 0.0599638948
C   C67       1.0  0.52660  0.82960  0.88878  1.0000 0.0599638948
C   C68       1.0  0.47340  0.67040  0.38878  1.0000 0.0599638948
C   C69       1.0  0.08090  0.14690  0.58721  1.0000 0.3706470342
C   C70       1.0  0.91910  0.35310  0.08721  1.0000 0.3706470342
C   C71       1.0  0.58090  0.85310  0.91279  1.0000 0.3706470342
C   C72       1.0  0.41910  0.64690  0.41279  1.0000 0.3706470342
C   C73       1.0  0.95530  0.27710  0.74105  1.0000 0.1015482869
C   C74       1.0  0.04470  0.22290  0.24105  1.0000 0.1015482869
C   C75       1.0  0.45530  0.72290  0.75895  1.0000 0.1015482869
C   C76       1.0  0.54470  0.77710  0.25895  1.0000 0.1015482869
C   C77       1.0  0.99030  0.27340  0.76928  1.0000 -0.1476873878
C   C78       1.0  0.00970  0.22660  0.26928  1.0000 -0.1476873878
C   C79       1.0  0.49030  0.72660  0.73072  1.0000 -0.1476873878
C   C80       1.0  0.50970  0.77340  0.23072  1.0000 -0.1476873878
C   C81       1.0  0.93290  0.19400  0.73773  1.0000 0.0893203653
C   C82       1.0  0.06710  0.30600  0.23773  1.0000 0.0893203653
C   C83       1.0  0.43290  0.80600  0.76227  1.0000 0.0893203653
C   C84       1.0  0.56710  0.69400  0.26227  1.0000 0.0893203653
C   C85       1.0  0.96800  0.18730  0.76588  1.0000 -0.1586044468
C   C86       1.0  0.03200  0.31270  0.26588  1.0000 -0.1586044468
C   C87       1.0  0.46800  0.81270  0.73412  1.0000 -0.1586044468
C   C88       1.0  0.53200  0.68730  0.23412  1.0000 -0.1586044468
C   C89       1.0  0.99480  0.22760  0.78212  1.0000 0.0599638948
C   C90       1.0  0.00520  0.27240  0.28212  1.0000 0.0599638948
C   C91       1.0  0.49480  0.77240  0.71788  1.0000 0.0599638948
C   C92       1.0  0.50520  0.72760  0.21788  1.0000 0.0599638948
C   C93       1.0  0.02560  0.22250  0.81288  1.0000 0.3790687803
C   C94       1.0  0.97440  0.27750  0.31288  1.0000 0.3706470342
C   C95       1.0  0.52560  0.77750  0.68712  1.0000 0.3790687803
C   C96       1.0  0.47440  0.72250  0.18712  1.0000 0.3790687803
C   C97       1.0  0.08910  0.04050  0.86217  1.0000 0.0893203653
C   C98       1.0  0.91090  0.45950  0.36217  1.0000 0.0893203653
C   C99       1.0  0.58910  0.95950  0.63783  1.0000 0.0893203653
C   C100      1.0  0.41090  0.54050  0.13783  1.0000 0.0893203653
C   C101      1.0  0.07140  0.08520  0.84874  1.0000 -0.1586044468
C   C102      1.0  0.92860  0.41480  0.34874  1.0000 -0.1586044468
C   C103      1.0  0.57140  0.91480  0.65126  1.0000 -0.1586044468
C   C104      1.0  0.42860  0.58520  0.15126  1.0000 -0.1476873878
C   C105      1.0  0.10000  0.07640  0.90702  1.0000 0.0893203653
C   C106      1.0  0.90000  0.42360  0.40702  1.0000 0.0893203653
C   C107      1.0  0.60000  0.92360  0.59298  1.0000 0.0893203653
C   C108      1.0  0.40000  0.57640  0.09298  1.0000 0.0893203653
C   C109      1.0  0.08580  0.12250  0.89538  1.0000 -0.1476873878
C   C110      1.0  0.91420  0.37750  0.39538  1.0000 -0.1437878925
C   C111      1.0  0.58580  0.87750  0.60462  1.0000 -0.1476873878
C   C112      1.0  0.41420  0.62250  0.10462  1.0000 -0.1437878925
C   C113      1.0  0.07150  0.12740  0.86565  1.0000 0.0599638948
C   C114      1.0  0.92850  0.37260  0.36565  1.0000 0.0599638948
C   C115      1.0  0.57150  0.87260  0.63435  1.0000 0.0599638948
C   C116      1.0  0.42850  0.62740  0.13435  1.0000 0.0599638948
C   C117      1.0  0.05920  0.17590  0.85198  1.0000 0.3706470342
C   C118      1.0  0.94080  0.32410  0.35198  1.0000 0.3706470342
C   C119      1.0  0.55920  0.82410  0.64802  1.0000 0.3706470342
C   C120      1.0  0.44080  0.67590  0.14802  1.0000 0.3706470342
C   C121      1.0  0.11700  0.34340  0.91771  1.0000 0.0795494643
C   C122      1.0  0.88300  0.15660  0.41771  1.0000 0.0795494643
C   C123      1.0  0.61700  0.65660  0.58229  1.0000 0.0795494643
C   C124      1.0  0.38300  0.84340  0.08229  1.0000 0.0795494643
C   C125      1.0  0.10120  0.30060  0.90277  1.0000 -0.1586044468
C   C126      1.0  0.89880  0.19940  0.40277  1.0000 -0.1586044468
C   C127      1.0  0.60120  0.69940  0.59723  1.0000 -0.1586044468
C   C128      1.0  0.39880  0.80060  0.09723  1.0000 -0.1586044468
C   C129      1.0  0.08050  0.38970  0.87735  1.0000 0.0893203653
C   C130      1.0  0.91950  0.11030  0.37735  1.0000 0.0893203653
C   C131      1.0  0.58050  0.61030  0.62265  1.0000 0.0893203653
C   C132      1.0  0.41950  0.88970  0.12265  1.0000 0.0893203653
C   C133      1.0  0.06520  0.34860  0.86068  1.0000 -0.1586044468
C   C134      1.0  0.93480  0.15140  0.36068  1.0000 -0.1586044468
C   C135      1.0  0.56520  0.65140  0.63932  1.0000 -0.1586044468
C   C136      1.0  0.43480  0.84860  0.13932  1.0000 -0.1586044468
C   C137      1.0  0.07550  0.30300  0.87370  1.0000 0.0599638948
C   C138      1.0  0.92450  0.19700  0.37370  1.0000 0.0599638948
C   C139      1.0  0.57550  0.69700  0.62630  1.0000 0.0599638948
C   C140      1.0  0.42450  0.80300  0.12630  1.0000 0.0599638948
C   C141      1.0  0.06070  0.25780  0.85618  1.0000 0.3790687803
C   C142      1.0  0.93930  0.24220  0.35618  1.0000 0.3790687803
C   C143      1.0  0.56070  0.74220  0.64382  1.0000 0.3790687803
C   C144      1.0  0.43930  0.75780  0.14382  1.0000 0.3790687803
C   C145      1.0  0.54970  0.92750  0.39393  1.0000 0.0893203653
C   C146      1.0  0.45030  0.57250  0.89393  1.0000 0.0795494643
C   C147      1.0  0.04970  0.07250  0.10607  1.0000 0.0893203653
C   C148      1.0  0.95030  0.42750  0.60607  1.0000 0.0893203653
C   C149      1.0  0.64310  0.91010  0.39746  1.0000 -0.121280089
C   C150      1.0  0.35690  0.58990  0.89746  1.0000 -0.121280089
C   C151      1.0  0.14310  0.08990  0.10254  1.0000 -0.121280089
C   C152      1.0  0.85690  0.41010  0.60254  1.0000 -0.121280089
C   C153      1.0  0.52630  0.93110  0.44364  1.0000 0.0893203653
C   C154      1.0  0.47370  0.56890  0.94364  1.0000 0.0893203653
C   C155      1.0  0.02630  0.06890  0.05636  1.0000 0.0893203653
C   C156      1.0  0.97370  0.43110  0.55636  1.0000 0.0893203653
C   C157      1.0  0.62040  0.91440  0.44863  1.0000 -0.1297305862
C   C158      1.0  0.37960  0.58560  0.94863  1.0000 -0.1297305862
C   C159      1.0  0.12040  0.08560  0.05137  1.0000 -0.1297305862
C   C160      1.0  0.87960  0.41440  0.55137  1.0000 -0.1297305862
C   C161      1.0  0.67950  0.90300  0.42520  1.0000 0.0599638948
C   C162      1.0  0.32050  0.59700  0.92520  1.0000 0.0599638948
C   C163      1.0  0.17950  0.09700  0.07480  1.0000 0.0599638948
C   C164      1.0  0.82050  0.40300  0.57480  1.0000 0.0599638948
C   C165      1.0  0.78150  0.88680  0.43015  1.0000 0.3706470342
C   C166      1.0  0.21850  0.61320  0.93015  1.0000 0.3706470342
C   C167      1.0  0.28150  0.11320  0.06985  1.0000 0.3706470342
C   C168      1.0  0.71850  0.38680  0.56985  1.0000 0.3706470342
C   C169      1.0  0.97730  0.94790  0.52865  1.0000 0.0795494643
C   C170      1.0  0.02270  0.55210  0.02865  1.0000 0.0795494643
C   C171      1.0  0.47730  0.05210  0.97135  1.0000 0.0795494643
C   C172      1.0  0.52270  0.44790  0.47135  1.0000 0.0795494643
C   C173      1.0  0.92640  0.93270  0.50472  1.0000 -0.1437878925
C   C174      1.0  0.07360  0.56730  0.00472  1.0000 -0.1437878925
C   C175      1.0  0.42640  0.06730  0.99528  1.0000 -0.1437878925
C   C176      1.0  0.57360  0.43270  0.49528  1.0000 -0.1437878925
C   C177      1.0  0.11630  0.90950  0.51220  1.0000 0.0795494643
C   C178      1.0  0.88370  0.59050  0.01220  1.0000 0.0795494643
C   C179      1.0  0.61630  0.09050  0.98780  1.0000 0.0795494643
C   C180      1.0  0.38370  0.40950  0.48780  1.0000 0.0795494643
C   C181      1.0  0.06890  0.89230  0.48759  1.0000 -0.1476873878
C   C182      1.0  0.93110  0.60770  0.98759  1.0000 -0.1476873878
C   C183      1.0  0.56890  0.10770  0.01241  1.0000 -0.1476873878
C   C184      1.0  0.43110  0.39230  0.51241  1.0000 -0.1476873878
C   C185      1.0  0.97120  0.90390  0.48373  1.0000 0.0599638948
C   C186      1.0  0.02880  0.59610  0.98373  1.0000 0.0599638948
C   C187      1.0  0.47120  0.09610  0.01627  1.0000 0.0599638948
C   C188      1.0  0.52880  0.40390  0.51627  1.0000 0.0599638948
C   C189      1.0  0.91800  0.88730  0.45729  1.0000 0.3706470342
C   C190      1.0  0.08200  0.61270  0.95729  1.0000 0.3706470342
C   C191      1.0  0.41800  0.11270  0.04271  1.0000 0.3706470342
C   C192      1.0  0.58200  0.38730  0.54271  1.0000 0.3706470342
C   C193      1.0  0.12390  0.80920  0.36574  1.0000 0.0795494643
C   C194      1.0  0.87610  0.69080  0.86574  1.0000 0.0893203653
C   C195      1.0  0.62390  0.19080  0.13426  1.0000 0.0893203653
C   C196      1.0  0.37610  0.30920  0.63426  1.0000 0.0795494643
C   C197      1.0  0.07410  0.82970  0.38881  1.0000 -0.121280089
C   C198      1.0  0.92590  0.67030  0.88881  1.0000 -0.121280089
C   C199      1.0  0.57410  0.17030  0.11119  1.0000 -0.121280089
C   C200      1.0  0.42590  0.32970  0.61119  1.0000 -0.121280089
C   C201      1.0  0.98030  0.78740  0.34345  1.0000 0.0893203653
C   C202      1.0  0.01970  0.71260  0.84345  1.0000 0.0893203653
C   C203      1.0  0.48030  0.21260  0.15655  1.0000 0.0893203653
C   C204      1.0  0.51970  0.28740  0.65655  1.0000 0.0893203653
C   C205      1.0  0.92610  0.80810  0.36555  1.0000 -0.1297305862
C   C206      1.0  0.07390  0.69190  0.86555  1.0000 -0.1297305862
C   C207      1.0  0.42610  0.19190  0.13445  1.0000 -0.121280089
C   C208      1.0  0.57390  0.30810  0.63445  1.0000 -0.121280089
C   C209      1.0  0.97340  0.82960  0.38878  1.0000 0.0599638948
C   C210      1.0  0.02660  0.67040  0.88878  1.0000 0.0599638948
C   C211      1.0  0.47340  0.17040  0.11122  1.0000 0.0599638948
C   C212      1.0  0.52660  0.32960  0.61122  1.0000 0.0599638948
C   C213      1.0  0.91910  0.85310  0.41279  1.0000 0.3639187463
C   C214      1.0  0.08090  0.64690  0.91279  1.0000 0.3706470342
C   C215      1.0  0.41910  0.14690  0.08721  1.0000 0.3706470342
C   C216      1.0  0.58090  0.35310  0.58721  1.0000 0.3706470342
C   C217      1.0  0.04470  0.72290  0.25895  1.0000 0.1015482869
C   C218      1.0  0.95530  0.77710  0.75895  1.0000 0.1015482869
C   C219      1.0  0.54470  0.27710  0.24105  1.0000 0.1015482869
C   C220      1.0  0.45530  0.22290  0.74105  1.0000 0.1015482869
C   C221      1.0  0.00970  0.72660  0.23072  1.0000 -0.1476873878
C   C222      1.0  0.99030  0.77340  0.73072  1.0000 -0.1476873878
C   C223      1.0  0.50970  0.27340  0.26928  1.0000 -0.1476873878
C   C224      1.0  0.49030  0.22660  0.76928  1.0000 -0.1476873878
C   C225      1.0  0.06710  0.80600  0.26227  1.0000 0.0893203653
C   C226      1.0  0.93290  0.69400  0.76227  1.0000 0.0893203653
C   C227      1.0  0.56710  0.19400  0.23773  1.0000 0.0893203653
C   C228      1.0  0.43290  0.30600  0.73773  1.0000 0.0893203653
C   C229      1.0  0.03200  0.81270  0.23412  1.0000 -0.1586044468
C   C230      1.0  0.96800  0.68730  0.73412  1.0000 -0.1586044468
C   C231      1.0  0.53200  0.18730  0.26588  1.0000 -0.1586044468
C   C232      1.0  0.46800  0.31270  0.76588  1.0000 -0.1586044468
C   C233      1.0  0.00520  0.77240  0.21788  1.0000 0.0599638948
C   C234      1.0  0.99480  0.72760  0.71788  1.0000 0.0599638948
C   C235      1.0  0.50520  0.22760  0.28212  1.0000 0.0599638948
C   C236      1.0  0.49480  0.27240  0.78212  1.0000 0.0599638948
C   C237      1.0  0.97440  0.77750  0.18712  1.0000 0.3790687803
C   C238      1.0  0.02560  0.72250  0.68712  1.0000 0.3790687803
C   C239      1.0  0.47440  0.22250  0.31288  1.0000 0.3790687803
C   C240      1.0  0.52560  0.27750  0.81288  1.0000 0.3706470342
C   C241      1.0  0.91090  0.95950  0.13783  1.0000 0.0893203653
C   C242      1.0  0.08910  0.54050  0.63783  1.0000 0.0893203653
C   C243      1.0  0.41090  0.04050  0.36217  1.0000 0.0893203653
C   C244      1.0  0.58910  0.45950  0.86217  1.0000 0.0893203653
C   C245      1.0  0.92860  0.91480  0.15126  1.0000 -0.1586044468
C   C246      1.0  0.07140  0.58520  0.65126  1.0000 -0.1586044468
C   C247      1.0  0.42860  0.08520  0.34874  1.0000 -0.1476873878
C   C248      1.0  0.57140  0.41480  0.84874  1.0000 -0.1586044468
C   C249      1.0  0.90000  0.92360  0.09298  1.0000 0.0893203653
C   C250      1.0  0.10000  0.57640  0.59298  1.0000 0.0893203653
C   C251      1.0  0.40000  0.07640  0.40702  1.0000 0.0893203653
C   C252      1.0  0.60000  0.42360  0.90702  1.0000 0.0893203653
C   C253      1.0  0.91420  0.87750  0.10462  1.0000 -0.1476873878
C   C254      1.0  0.08580  0.62250  0.60462  1.0000 -0.1437878925
C   C255      1.0  0.41420  0.12250  0.39538  1.0000 -0.1437878925
C   C256      1.0  0.58580  0.37750  0.89538  1.0000 -0.1437878925
C   C257      1.0  0.92850  0.87260  0.13435  1.0000 0.0599638948
C   C258      1.0  0.07150  0.62740  0.63435  1.0000 0.0599638948
C   C259      1.0  0.42850  0.12740  0.36565  1.0000 0.0599638948
C   C260      1.0  0.57150  0.37260  0.86565  1.0000 0.0599638948
C   C261      1.0  0.94080  0.82410  0.14802  1.0000 0.3706470342
C   C262      1.0  0.05920  0.67590  0.64802  1.0000 0.3706470342
C   C263      1.0  0.44080  0.17590  0.35198  1.0000 0.3706470342
C   C264      1.0  0.55920  0.32410  0.85198  1.0000 0.3706470342
C   C265      1.0  0.88300  0.65660  0.08229  1.0000 0.0795494643
C   C266      1.0  0.11700  0.84340  0.58229  1.0000 0.0795494643
C   C267      1.0  0.38300  0.34340  0.41771  1.0000 0.0795494643
C   C268      1.0  0.61700  0.15660  0.91771  1.0000 0.0795494643
C   C269      1.0  0.89880  0.69940  0.09723  1.0000 -0.1586044468
C   C270      1.0  0.10120  0.80060  0.59723  1.0000 -0.1586044468
C   C271      1.0  0.39880  0.30060  0.40277  1.0000 -0.1586044468
C   C272      1.0  0.60120  0.19940  0.90277  1.0000 -0.1586044468
C   C273      1.0  0.91950  0.61030  0.12265  1.0000 0.0893203653
C   C274      1.0  0.08050  0.88970  0.62265  1.0000 0.0893203653
C   C275      1.0  0.41950  0.38970  0.37735  1.0000 0.0893203653
C   C276      1.0  0.58050  0.11030  0.87735  1.0000 0.0893203653
C   C277      1.0  0.93480  0.65140  0.13932  1.0000 -0.1586044468
C   C278      1.0  0.06520  0.84860  0.63932  1.0000 -0.1586044468
C   C279      1.0  0.43480  0.34860  0.36068  1.0000 -0.1586044468
C   C280      1.0  0.56520  0.15140  0.86068  1.0000 -0.1586044468
C   C281      1.0  0.92450  0.69700  0.12630  1.0000 0.0599638948
C   C282      1.0  0.07550  0.80300  0.62630  1.0000 0.0599638948
C   C283      1.0  0.42450  0.30300  0.37370  1.0000 0.0599638948
C   C284      1.0  0.57550  0.19700  0.87370  1.0000 0.0599638948
C   C285      1.0  0.93930  0.74220  0.14382  1.0000 0.3790687803
C   C286      1.0  0.06070  0.75780  0.64382  1.0000 0.3790687803
C   C287      1.0  0.43930  0.25780  0.35618  1.0000 0.3790687803
C   C288      1.0  0.56070  0.24220  0.85618  1.0000 0.3790687803
I   I1        1.0  0.82887  0.33727  0.67723  1.0000 -0.4609276764
I   I2        1.0  0.17113  0.16273  0.17723  1.0000 -0.4609276764
I   I3        1.0  0.32887  0.66273  0.82277  1.0000 -0.4609276764
I   I4        1.0  0.67113  0.83727  0.32277  1.0000 -0.4609276764
I   I5        1.0  0.68953  0.19474  0.69594  1.0000 -0.4609276764
I   I6        1.0  0.31047  0.30526  0.19594  1.0000 -0.4609276764
I   I7        1.0  0.18953  0.80526  0.80406  1.0000 -0.4609276764
I   I8        1.0  0.81047  0.69474  0.30406  1.0000 -0.4609276764
I   I9        1.0  0.72549  0.07770  0.63098  1.0000 -0.4358598828
I   I10       1.0  0.27451  0.42230  0.13098  1.0000 -0.4358598828
I   I11       1.0  0.22549  0.92230  0.86902  1.0000 -0.4358598828
I   I12       1.0  0.77451  0.57770  0.36902  1.0000 -0.4358598828
I   I13       1.0  0.72111  0.01494  0.54131  1.0000 -0.4609276764
I   I14       1.0  0.27889  0.48506  0.04131  1.0000 -0.4609276764
I   I15       1.0  0.22111  0.98506  0.95869  1.0000 -0.4609276764
I   I16       1.0  0.77889  0.51494  0.45869  1.0000 -0.4650549643
I   I17       1.0  0.67661  0.04889  0.43576  1.0000 -0.4609276764
I   I18       1.0  0.32339  0.45111  0.93576  1.0000 -0.4609276764
I   I19       1.0  0.17661  0.95111  0.06424  1.0000 -0.4650549643
I   I20       1.0  0.82339  0.54889  0.56424  1.0000 -0.4650549643
I   I21       1.0  0.95544  0.98232  0.40169  1.0000 -0.4294443704
I   I22       1.0  0.04456  0.51768  0.90169  1.0000 -0.4294443704
I   I23       1.0  0.45544  0.01768  0.09831  1.0000 -0.4294443704
I   I24       1.0  0.54456  0.48232  0.59831  1.0000 -0.4294443704
I   I25       1.0  0.17113  0.66273  0.32277  1.0000 -0.4609276764
I   I26       1.0  0.82887  0.83727  0.82277  1.0000 -0.4609276764
I   I27       1.0  0.67113  0.33727  0.17723  1.0000 -0.4609276764
I   I28       1.0  0.32887  0.16273  0.67723  1.0000 -0.4609276764
I   I29       1.0  0.31047  0.80526  0.30406  1.0000 -0.4609276764
I   I30       1.0  0.68953  0.69474  0.80406  1.0000 -0.4609276764
I   I31       1.0  0.81047  0.19474  0.19594  1.0000 -0.4609276764
I   I32       1.0  0.18953  0.30526  0.69594  1.0000 -0.4609276764
I   I33       1.0  0.27451  0.92230  0.36902  1.0000 -0.4358598828
I   I34       1.0  0.72549  0.57770  0.86902  1.0000 -0.4358598828
I   I35       1.0  0.77451  0.07770  0.13098  1.0000 -0.4358598828
I   I36       1.0  0.22549  0.42230  0.63098  1.0000 -0.4358598828
I   I37       1.0  0.27889  0.98506  0.45869  1.0000 -0.4609276764
I   I38       1.0  0.72111  0.51494  0.95869  1.0000 -0.4650549643
I   I39       1.0  0.77889  0.01494  0.04131  1.0000 -0.4609276764
I   I40       1.0  0.22111  0.48506  0.54131  1.0000 -0.4650549643
I   I41       1.0  0.32339  0.95111  0.56424  1.0000 -0.4650549643
I   I42       1.0  0.67661  0.54889  0.06424  1.0000 -0.4650549643
I   I43       1.0  0.82339  0.04889  0.93576  1.0000 -0.4609276764
I   I44       1.0  0.17661  0.45111  0.43576  1.0000 -0.4609276764
I   I45       1.0  0.04456  0.01768  0.59831  1.0000 -0.4294443704
I   I46       1.0  0.95544  0.48232  0.09831  1.0000 -0.4294443704
I   I47       1.0  0.54456  0.98232  0.90169  1.0000 -0.4294443704
I   I48       1.0  0.45544  0.51768  0.40169  1.0000 -0.4294443704
N   N1        1.0  0.50750  0.06156  0.58318  1.0000 -0.1697345856
N   N2        1.0  0.49250  0.43844  0.08318  1.0000 -0.1697345856
N   N3        1.0  0.00750  0.93844  0.91682  1.0000 -0.1697345856
N   N4        1.0  0.99250  0.56156  0.41682  1.0000 -0.1697345856
N   N5        1.0  0.92860  0.06390  0.46720  1.0000 -0.18610278
N   N6        1.0  0.07140  0.43610  0.96720  1.0000 -0.1808802239
N   N7        1.0  0.42860  0.93610  0.03280  1.0000 -0.18610278
N   N8        1.0  0.57140  0.56390  0.53280  1.0000 -0.18610278
N   N9        1.0  0.92240  0.21240  0.65671  1.0000 -0.1697345856
N   N10       1.0  0.07760  0.28760  0.15671  1.0000 -0.1697345856
N   N11       1.0  0.42240  0.78760  0.84329  1.0000 -0.1697345856
N   N12       1.0  0.57760  0.71240  0.34329  1.0000 -0.1697345856
N   N13       1.0  0.17690  0.10110  0.54463  1.0000 -0.3890555702
N   N14       1.0  0.82310  0.39890  0.04463  1.0000 -0.3890555702
N   N15       1.0  0.67690  0.89890  0.95537  1.0000 -0.3890555702
N   N16       1.0  0.32310  0.60110  0.45537  1.0000 -0.3890555702
N   N17       1.0  0.03130  0.13650  0.56273  1.0000 -0.3890555702
N   N18       1.0  0.96870  0.36350  0.06273  1.0000 -0.3890555702
N   N19       1.0  0.53130  0.86350  0.93727  1.0000 -0.3890555702
N   N20       1.0  0.46870  0.63650  0.43727  1.0000 -0.3890555702
N   N21       1.0  0.17410  0.13583  0.59174  1.0000 -0.3755558334
N   N22       1.0  0.82590  0.36417  0.09174  1.0000 -0.3755558334
N   N23       1.0  0.67410  0.86417  0.90826  1.0000 -0.3755558334
N   N24       1.0  0.32590  0.63583  0.40826  1.0000 -0.3744996242
N   N25       1.0  0.92410  0.23825  0.72568  1.0000 -0.1808802239
N   N26       1.0  0.07590  0.26175  0.22568  1.0000 -0.18610278
N   N27       1.0  0.42410  0.76175  0.77432  1.0000 -0.1808802239
N   N28       1.0  0.57590  0.73825  0.27432  1.0000 -0.18610278
N   N29       1.0  0.10330  0.03584  0.89053  1.0000 -0.1808802239
N   N30       1.0  0.89670  0.46416  0.39053  1.0000 -0.1808802239
N   N31       1.0  0.60330  0.96416  0.60947  1.0000 -0.1808802239
N   N32       1.0  0.39670  0.53584  0.10947  1.0000 -0.1808802239
N   N33       1.0  0.10760  0.38773  0.90566  1.0000 -0.1808802239
N   N34       1.0  0.89240  0.11227  0.40566  1.0000 -0.1808802239
N   N35       1.0  0.60760  0.61227  0.59434  1.0000 -0.1808802239
N   N36       1.0  0.39240  0.88773  0.09434  1.0000 -0.1808802239
N   N37       1.0  0.03550  0.17727  0.82373  1.0000 -0.4184820071
N   N38       1.0  0.96450  0.32273  0.32373  1.0000 -0.4184820071
N   N39       1.0  0.53550  0.82273  0.67627  1.0000 -0.4184820071
N   N40       1.0  0.46450  0.67727  0.17627  1.0000 -0.4184820071
N   N41       1.0  0.07180  0.21491  0.86941  1.0000 -0.4184820071
N   N42       1.0  0.92820  0.28509  0.36941  1.0000 -0.4184820071
N   N43       1.0  0.57180  0.78509  0.63059  1.0000 -0.4184820071
N   N44       1.0  0.42820  0.71491  0.13059  1.0000 -0.4184820071
N   N45       1.0  0.03790  0.26412  0.82809  1.0000 -0.4184820071
N   N46       1.0  0.96210  0.23588  0.32809  1.0000 -0.4184820071
N   N47       1.0  0.53790  0.73588  0.67191  1.0000 -0.4184820071
N   N48       1.0  0.46210  0.76412  0.17191  1.0000 -0.4184820071
N   N49       1.0  0.49250  0.93844  0.41682  1.0000 -0.1697345856
N   N50       1.0  0.50750  0.56156  0.91682  1.0000 -0.1697345856
N   N51       1.0  0.99250  0.06156  0.08318  1.0000 -0.1697345856
N   N52       1.0  0.00750  0.43844  0.58318  1.0000 -0.1697345856
N   N53       1.0  0.07140  0.93610  0.53280  1.0000 -0.18610278
N   N54       1.0  0.92860  0.56390  0.03280  1.0000 -0.18610278
N   N55       1.0  0.57140  0.06390  0.96720  1.0000 -0.18610278
N   N56       1.0  0.42860  0.43610  0.46720  1.0000 -0.1808802239
N   N57       1.0  0.07760  0.78760  0.34329  1.0000 -0.1697345856
N   N58       1.0  0.92240  0.71240  0.84329  1.0000 -0.1697345856
N   N59       1.0  0.57760  0.21240  0.15671  1.0000 -0.1697345856
N   N60       1.0  0.42240  0.28760  0.65671  1.0000 -0.1697345856
N   N61       1.0  0.82310  0.89890  0.45537  1.0000 -0.3890555702
N   N62       1.0  0.17690  0.60110  0.95537  1.0000 -0.3890555702
N   N63       1.0  0.32310  0.10110  0.04463  1.0000 -0.3890555702
N   N64       1.0  0.67690  0.39890  0.54463  1.0000 -0.3890555702
N   N65       1.0  0.96870  0.86350  0.43727  1.0000 -0.3890555702
N   N66       1.0  0.03130  0.63650  0.93727  1.0000 -0.3890555702
N   N67       1.0  0.46870  0.13650  0.06273  1.0000 -0.3890555702
N   N68       1.0  0.53130  0.36350  0.56273  1.0000 -0.3890555702
N   N69       1.0  0.82590  0.86417  0.40826  1.0000 -0.3755558334
N   N70       1.0  0.17410  0.63583  0.90826  1.0000 -0.3744996242
N   N71       1.0  0.32590  0.13583  0.09174  1.0000 -0.3755558334
N   N72       1.0  0.67410  0.36417  0.59174  1.0000 -0.3755558334
N   N73       1.0  0.07590  0.76175  0.27432  1.0000 -0.1808802239
N   N74       1.0  0.92410  0.73825  0.77432  1.0000 -0.18610278
N   N75       1.0  0.57590  0.23825  0.22568  1.0000 -0.1808802239
N   N76       1.0  0.42410  0.26175  0.72568  1.0000 -0.18610278
N   N77       1.0  0.89670  0.96416  0.10947  1.0000 -0.1808802239
N   N78       1.0  0.10330  0.53584  0.60947  1.0000 -0.1808802239
N   N79       1.0  0.39670  0.03584  0.39053  1.0000 -0.1808802239
N   N80       1.0  0.60330  0.46416  0.89053  1.0000 -0.1808802239
N   N81       1.0  0.89240  0.61227  0.09434  1.0000 -0.1808802239
N   N82       1.0  0.10760  0.88773  0.59434  1.0000 -0.1808802239
N   N83       1.0  0.39240  0.38773  0.40566  1.0000 -0.1808802239
N   N84       1.0  0.60760  0.11227  0.90566  1.0000 -0.1808802239
N   N85       1.0  0.96450  0.82273  0.17627  1.0000 -0.4184820071
N   N86       1.0  0.03550  0.67727  0.67627  1.0000 -0.4184820071
N   N87       1.0  0.46450  0.17727  0.32373  1.0000 -0.4184820071
N   N88       1.0  0.53550  0.32273  0.82373  1.0000 -0.4184820071
N   N89       1.0  0.92820  0.78509  0.13059  1.0000 -0.4184820071
N   N90       1.0  0.07180  0.71491  0.63059  1.0000 -0.4184820071
N   N91       1.0  0.42820  0.21491  0.36941  1.0000 -0.4184820071
N   N92       1.0  0.57180  0.28509  0.86941  1.0000 -0.4184820071
N   N93       1.0  0.96210  0.73588  0.17191  1.0000 -0.4184820071
N   N94       1.0  0.03790  0.76412  0.67191  1.0000 -0.4184820071
N   N95       1.0  0.46210  0.26412  0.32809  1.0000 -0.4184820071
N   N96       1.0  0.53790  0.23588  0.82809  1.0000 -0.4184820071
