# DDEC6 charges by PACMAN v1.1 (https://github.com/mtap-research/PACMAN-charge/)
data_2007[ZnV][nan]3[FSR]1
_chemical_formula_sum              "V32 Zn4 H64 C80 N16 O80"
_cell_length_a       17.124
_cell_length_b       17.124
_cell_length_c       14.724
_cell_angle_alpha    90
_cell_angle_beta     90
_cell_angle_gamma    90

_symmetry_space_group_name_H-M    "P 1"
_symmetry_Int_Tables_number       1

loop_
  _symmetry_equiv_pos_as_xyz
  'x, y, z'

loop_
  _atom_site_type_symbol
  _atom_site_label
  _atom_site_symmetry_multiplicity
  _atom_site_fract_x
  _atom_site_fract_y
  _atom_site_fract_z
  _atom_site_occupancy
  _atom_site_charge
V   V1        1.0  0.07189  0.06438  0.77040  1.0000 1.7387755673
V   V2        1.0  0.92811  0.93562  0.77040  1.0000 1.7387755673
V   V3        1.0  0.93562  0.07189  0.22960  1.0000 1.7387755673
V   V4        1.0  0.06438  0.92811  0.22960  1.0000 1.7387755673
V   V5        1.0  0.42811  0.56438  0.27040  1.0000 1.7387755673
V   V6        1.0  0.57189  0.43562  0.27040  1.0000 1.7387755673
V   V7        1.0  0.56438  0.57189  0.72960  1.0000 1.7387755673
V   V8        1.0  0.43562  0.42811  0.72960  1.0000 1.7387755673
V   V9        1.0  0.81246  0.96989  0.91410  1.0000 1.9075142902
V   V10       1.0  0.18754  0.03011  0.91410  1.0000 1.9075142902
V   V11       1.0  0.03011  0.81246  0.08590  1.0000 1.9007149976
V   V12       1.0  0.96989  0.18754  0.08590  1.0000 1.9075142902
V   V13       1.0  0.68754  0.46989  0.41410  1.0000 1.9075142902
V   V14       1.0  0.31246  0.53011  0.41410  1.0000 1.9007149976
V   V15       1.0  0.46989  0.31246  0.58590  1.0000 1.9075142902
V   V16       1.0  0.53011  0.68754  0.58590  1.0000 1.9007149976
V   V17       1.0  0.05149  0.18314  0.91155  1.0000 1.9007149976
V   V18       1.0  0.94851  0.81686  0.91155  1.0000 1.8945720157
V   V19       1.0  0.81686  0.05149  0.08845  1.0000 1.9007149976
V   V20       1.0  0.18314  0.94851  0.08845  1.0000 1.9007149976
V   V21       1.0  0.44851  0.68314  0.41155  1.0000 1.8945720157
V   V22       1.0  0.55149  0.31686  0.41155  1.0000 1.9007149976
V   V23       1.0  0.68314  0.55149  0.58845  1.0000 1.9007149976
V   V24       1.0  0.31686  0.44851  0.58845  1.0000 1.8945720157
V   V25       1.0  0.89045  0.12228  0.87366  1.0000 1.9075142902
V   V26       1.0  0.10955  0.87772  0.87366  1.0000 1.9007149976
V   V27       1.0  0.87772  0.89045  0.12634  1.0000 1.9007149976
V   V28       1.0  0.12228  0.10955  0.12634  1.0000 1.9075142902
V   V29       1.0  0.60955  0.62228  0.37366  1.0000 1.9075142902
V   V30       1.0  0.39045  0.37772  0.37366  1.0000 1.9075142902
V   V31       1.0  0.62228  0.39045  0.62634  1.0000 1.9075142902
V   V32       1.0  0.37772  0.60955  0.62634  1.0000 1.9075142902
Zn  Zn1       1.0  0.75571  0.25571  0.75000  1.0000 0.7432391208
Zn  Zn2       1.0  0.24429  0.74429  0.75000  1.0000 0.7458615463
Zn  Zn3       1.0  0.74429  0.75571  0.25000  1.0000 0.7432391208
Zn  Zn4       1.0  0.25571  0.24429  0.25000  1.0000 0.7458615463
H   H1        1.0  0.72260  0.17890  0.94160  1.0000 0.110639905
H   H2        1.0  0.27740  0.82110  0.94160  1.0000 0.110639905
H   H3        1.0  0.82110  0.72260  0.05840  1.0000 0.110639905
H   H4        1.0  0.17890  0.27740  0.05840  1.0000 0.110639905
H   H5        1.0  0.77740  0.67890  0.44160  1.0000 0.110639905
H   H6        1.0  0.22260  0.32110  0.44160  1.0000 0.110639905
H   H7        1.0  0.67890  0.22260  0.55840  1.0000 0.110639905
H   H8        1.0  0.32110  0.77740  0.55840  1.0000 0.110639905
H   H9        1.0  0.57850  0.25720  0.75790  1.0000 0.1014038354
H   H10       1.0  0.42150  0.74280  0.75790  1.0000 0.1014038354
H   H11       1.0  0.74280  0.57850  0.24210  1.0000 0.1014038354
H   H12       1.0  0.25720  0.42150  0.24210  1.0000 0.1014038354
H   H13       1.0  0.92150  0.75720  0.25790  1.0000 0.1014038354
H   H14       1.0  0.07850  0.24280  0.25790  1.0000 0.1014038354
H   H15       1.0  0.75720  0.07850  0.74210  1.0000 0.1014038354
H   H16       1.0  0.24280  0.92150  0.74210  1.0000 0.1014038354
H   H17       1.0  0.28780  0.18320  0.05300  1.0000 0.110639905
H   H18       1.0  0.71220  0.81680  0.05300  1.0000 0.110639905
H   H19       1.0  0.81680  0.28780  0.94700  1.0000 0.110639905
H   H20       1.0  0.18320  0.71220  0.94700  1.0000 0.110639905
H   H21       1.0  0.21220  0.68320  0.55300  1.0000 0.110639905
H   H22       1.0  0.78780  0.31680  0.55300  1.0000 0.110639905
H   H23       1.0  0.68320  0.78780  0.44700  1.0000 0.110639905
H   H24       1.0  0.31680  0.21220  0.44700  1.0000 0.110639905
H   H25       1.0  0.43470  0.23750  0.24330  1.0000 0.110639905
H   H26       1.0  0.56530  0.76250  0.24330  1.0000 0.110639905
H   H27       1.0  0.76250  0.43470  0.75670  1.0000 0.110639905
H   H28       1.0  0.23750  0.56530  0.75670  1.0000 0.110639905
H   H29       1.0  0.06530  0.73750  0.74330  1.0000 0.110639905
H   H30       1.0  0.93470  0.26250  0.74330  1.0000 0.110639905
H   H31       1.0  0.73750  0.93470  0.25670  1.0000 0.110639905
H   H32       1.0  0.26250  0.06530  0.25670  1.0000 0.110639905
H   H33       1.0  0.53750  0.23300  0.14390  1.0000 0.1372350509
H   H34       1.0  0.46250  0.76700  0.14390  1.0000 0.1372350509
H   H35       1.0  0.76700  0.53750  0.85610  1.0000 0.1372350509
H   H36       1.0  0.23300  0.46250  0.85610  1.0000 0.1372350509
H   H37       1.0  0.96250  0.73300  0.64390  1.0000 0.1372350509
H   H38       1.0  0.03750  0.26700  0.64390  1.0000 0.1372350509
H   H39       1.0  0.73300  0.03750  0.35610  1.0000 0.1372350509
H   H40       1.0  0.26700  0.96250  0.35610  1.0000 0.1372350509
H   H41       1.0  0.47500  0.24730  0.85580  1.0000 0.1372350509
H   H42       1.0  0.52500  0.75270  0.85580  1.0000 0.1372350509
H   H43       1.0  0.75270  0.47500  0.14420  1.0000 0.1372350509
H   H44       1.0  0.24730  0.52500  0.14420  1.0000 0.1372350509
H   H45       1.0  0.02500  0.74730  0.35580  1.0000 0.1372350509
H   H46       1.0  0.97500  0.25270  0.35580  1.0000 0.1372350509
H   H47       1.0  0.74730  0.97500  0.64420  1.0000 0.1372350509
H   H48       1.0  0.25270  0.02500  0.64420  1.0000 0.1372350509
H   H49       1.0  0.38490  0.18170  0.94620  1.0000 0.1372350509
H   H50       1.0  0.61510  0.81830  0.94620  1.0000 0.1372350509
H   H51       1.0  0.81830  0.38490  0.05380  1.0000 0.1372350509
H   H52       1.0  0.18170  0.61510  0.05380  1.0000 0.1372350509
H   H53       1.0  0.11510  0.68170  0.44620  1.0000 0.1372350509
H   H54       1.0  0.88490  0.31830  0.44620  1.0000 0.1372350509
H   H55       1.0  0.68170  0.88490  0.55380  1.0000 0.1372350509
H   H56       1.0  0.31830  0.11510  0.55380  1.0000 0.1372350509
H   H57       1.0  0.62440  0.17110  0.04600  1.0000 0.1336388171
H   H58       1.0  0.37560  0.82890  0.04600  1.0000 0.1336388171
H   H59       1.0  0.82890  0.62440  0.95400  1.0000 0.1336388171
H   H60       1.0  0.17110  0.37560  0.95400  1.0000 0.1336388171
H   H61       1.0  0.87560  0.67110  0.54600  1.0000 0.1336388171
H   H62       1.0  0.12440  0.32890  0.54600  1.0000 0.1336388171
H   H63       1.0  0.67110  0.12440  0.45400  1.0000 0.1336388171
H   H64       1.0  0.32890  0.87560  0.45400  1.0000 0.1336388171
C   C1        1.0  0.67260  0.19470  0.92500  1.0000 0.0886210447
C   C2        1.0  0.32740  0.80530  0.92500  1.0000 0.0886210447
C   C3        1.0  0.80530  0.67260  0.07500  1.0000 0.0886210447
C   C4        1.0  0.19470  0.32740  0.07500  1.0000 0.0886210447
C   C5        1.0  0.82740  0.69470  0.42500  1.0000 0.0886210447
C   C6        1.0  0.17260  0.30530  0.42500  1.0000 0.0886210447
C   C7        1.0  0.69470  0.17260  0.57500  1.0000 0.0886210447
C   C8        1.0  0.30530  0.82740  0.57500  1.0000 0.0886210447
C   C9        1.0  0.58770  0.24020  0.81700  1.0000 0.110639905
C   C10       1.0  0.41230  0.75980  0.81700  1.0000 0.110639905
C   C11       1.0  0.75980  0.58770  0.18300  1.0000 0.110639905
C   C12       1.0  0.24020  0.41230  0.18300  1.0000 0.110639905
C   C13       1.0  0.91230  0.74020  0.31700  1.0000 0.110639905
C   C14       1.0  0.08770  0.25980  0.31700  1.0000 0.110639905
C   C15       1.0  0.74020  0.08770  0.68300  1.0000 0.110639905
C   C16       1.0  0.25980  0.91230  0.68300  1.0000 0.110639905
C   C17       1.0  0.33850  0.19500  0.07100  1.0000 0.0886210447
C   C18       1.0  0.66150  0.80500  0.07100  1.0000 0.0886210447
C   C19       1.0  0.80500  0.33850  0.92900  1.0000 0.0886210447
C   C20       1.0  0.19500  0.66150  0.92900  1.0000 0.0886210447
C   C21       1.0  0.16150  0.69500  0.57100  1.0000 0.0886210447
C   C22       1.0  0.83850  0.30500  0.57100  1.0000 0.0886210447
C   C23       1.0  0.69500  0.83850  0.42900  1.0000 0.0886210447
C   C24       1.0  0.30500  0.16150  0.42900  1.0000 0.0886210447
C   C25       1.0  0.42470  0.22610  0.18260  1.0000 0.1014038354
C   C26       1.0  0.57530  0.77390  0.18260  1.0000 0.1014038354
C   C27       1.0  0.77390  0.42470  0.81740  1.0000 0.1014038354
C   C28       1.0  0.22610  0.57530  0.81740  1.0000 0.1014038354
C   C29       1.0  0.07530  0.72610  0.68260  1.0000 0.1014038354
C   C30       1.0  0.92470  0.27390  0.68260  1.0000 0.1014038354
C   C31       1.0  0.72610  0.92470  0.31740  1.0000 0.1014038354
C   C32       1.0  0.27390  0.07530  0.31740  1.0000 0.1014038354
C   C33       1.0  0.48690  0.22410  0.12330  1.0000 -0.1815638298
C   C34       1.0  0.51310  0.77590  0.12330  1.0000 -0.1815638298
C   C35       1.0  0.77590  0.48690  0.87670  1.0000 -0.1815638298
C   C36       1.0  0.22410  0.51310  0.87670  1.0000 -0.1815638298
C   C37       1.0  0.01310  0.72410  0.62330  1.0000 -0.1815638298
C   C38       1.0  0.98690  0.27590  0.62330  1.0000 -0.1815638298
C   C39       1.0  0.72410  0.98690  0.37670  1.0000 -0.1815638298
C   C40       1.0  0.27590  0.01310  0.37670  1.0000 -0.1815638298
C   C41       1.0  0.52500  0.23470  0.87540  1.0000 -0.1815638298
C   C42       1.0  0.47500  0.76530  0.87540  1.0000 -0.1815638298
C   C43       1.0  0.76530  0.52500  0.12460  1.0000 -0.1815638298
C   C44       1.0  0.23470  0.47500  0.12460  1.0000 -0.1815638298
C   C45       1.0  0.97500  0.73470  0.37540  1.0000 -0.1815638298
C   C46       1.0  0.02500  0.26530  0.37540  1.0000 -0.1815638298
C   C47       1.0  0.73470  0.02500  0.62460  1.0000 -0.1815638298
C   C48       1.0  0.26530  0.97500  0.62460  1.0000 -0.1815638298
C   C49       1.0  0.39670  0.19310  0.00650  1.0000 -0.1883358367
C   C50       1.0  0.60330  0.80690  0.00650  1.0000 -0.1883358367
C   C51       1.0  0.80690  0.39670  0.99350  1.0000 -0.1883358367
C   C52       1.0  0.19310  0.60330  0.99350  1.0000 -0.1883358367
C   C53       1.0  0.10330  0.69310  0.50650  1.0000 -0.1883358367
C   C54       1.0  0.89670  0.30690  0.50650  1.0000 -0.1883358367
C   C55       1.0  0.69310  0.89670  0.49350  1.0000 -0.1883358367
C   C56       1.0  0.30690  0.10330  0.49350  1.0000 -0.1883358367
C   C57       1.0  0.47280  0.20830  0.03230  1.0000 0.1014038354
C   C58       1.0  0.52720  0.79170  0.03230  1.0000 0.1014038354
C   C59       1.0  0.79170  0.47280  0.96770  1.0000 0.1014038354
C   C60       1.0  0.20830  0.52720  0.96770  1.0000 0.1014038354
C   C61       1.0  0.02720  0.70830  0.53230  1.0000 0.1014038354
C   C62       1.0  0.97280  0.29170  0.53230  1.0000 0.1014038354
C   C63       1.0  0.70830  0.97280  0.46770  1.0000 0.1014038354
C   C64       1.0  0.29170  0.02720  0.46770  1.0000 0.1014038354
C   C65       1.0  0.53790  0.20990  0.96460  1.0000 0.1014038354
C   C66       1.0  0.46210  0.79010  0.96460  1.0000 0.1014038354
C   C67       1.0  0.79010  0.53790  0.03540  1.0000 0.1014038354
C   C68       1.0  0.20990  0.46210  0.03540  1.0000 0.1014038354
C   C69       1.0  0.96210  0.70990  0.46460  1.0000 0.1014038354
C   C70       1.0  0.03790  0.29010  0.46460  1.0000 0.1014038354
C   C71       1.0  0.70990  0.03790  0.53540  1.0000 0.1014038354
C   C72       1.0  0.29010  0.96210  0.53540  1.0000 0.1014038354
C   C73       1.0  0.61360  0.18900  0.98770  1.0000 -0.1883358367
C   C74       1.0  0.38640  0.81100  0.98770  1.0000 -0.1883358367
C   C75       1.0  0.81100  0.61360  0.01230  1.0000 -0.1883358367
C   C76       1.0  0.18900  0.38640  0.01230  1.0000 -0.1883358367
C   C77       1.0  0.88640  0.68900  0.48770  1.0000 -0.1883358367
C   C78       1.0  0.11360  0.31100  0.48770  1.0000 -0.1883358367
C   C79       1.0  0.68900  0.11360  0.51230  1.0000 -0.1883358367
C   C80       1.0  0.31100  0.88640  0.51230  1.0000 -0.1883358367
N   N1        1.0  0.66090  0.22220  0.84080  1.0000 -0.2402316201
N   N2        1.0  0.33910  0.77780  0.84080  1.0000 -0.2402316201
N   N3        1.0  0.77780  0.66090  0.15920  1.0000 -0.2402316201
N   N4        1.0  0.22220  0.33910  0.15920  1.0000 -0.2402316201
N   N5        1.0  0.83910  0.72220  0.34080  1.0000 -0.2402316201
N   N6        1.0  0.16090  0.27780  0.34080  1.0000 -0.2402316201
N   N7        1.0  0.72220  0.16090  0.65920  1.0000 -0.2402316201
N   N8        1.0  0.27780  0.83910  0.65920  1.0000 -0.2402316201
N   N9        1.0  0.35090  0.21270  0.15770  1.0000 -0.2318304673
N   N10       1.0  0.64910  0.78730  0.15770  1.0000 -0.2318304673
N   N11       1.0  0.78730  0.35090  0.84230  1.0000 -0.2318304673
N   N12       1.0  0.21270  0.64910  0.84230  1.0000 -0.2318304673
N   N13       1.0  0.14910  0.71270  0.65770  1.0000 -0.2318304673
N   N14       1.0  0.85090  0.28730  0.65770  1.0000 -0.2318304673
N   N15       1.0  0.71270  0.85090  0.34230  1.0000 -0.2318304673
N   N16       1.0  0.28730  0.14910  0.34230  1.0000 -0.2318304673
O   O1        1.0  0.07220  0.26870  0.87520  1.0000 -0.6677367477
O   O2        1.0  0.92780  0.73130  0.87520  1.0000 -0.6677367477
O   O3        1.0  0.73130  0.07220  0.12480  1.0000 -0.6677367477
O   O4        1.0  0.26870  0.92780  0.12480  1.0000 -0.6677367477
O   O5        1.0  0.42780  0.76870  0.37520  1.0000 -0.6677367477
O   O6        1.0  0.57220  0.23130  0.37520  1.0000 -0.6677367477
O   O7        1.0  0.76870  0.57220  0.62480  1.0000 -0.6677367477
O   O8        1.0  0.23130  0.42780  0.62480  1.0000 -0.6677367477
O   O9        1.0  0.13520  0.11910  0.87840  1.0000 -0.9993387003
O   O10       1.0  0.86480  0.88090  0.87840  1.0000 -0.9993387003
O   O11       1.0  0.88090  0.13520  0.12160  1.0000 -0.9993387003
O   O12       1.0  0.11910  0.86480  0.12160  1.0000 -0.9993387003
O   O13       1.0  0.36480  0.61910  0.37840  1.0000 -0.9993387003
O   O14       1.0  0.63520  0.38090  0.37840  1.0000 -0.9993387003
O   O15       1.0  0.61910  0.63520  0.62160  1.0000 -0.9993387003
O   O16       1.0  0.38090  0.36480  0.62160  1.0000 -0.9993387003
O   O17       1.0  0.83371  0.18211  0.81860  1.0000 -0.763054638
O   O18       1.0  0.16629  0.81789  0.81860  1.0000 -0.763054638
O   O19       1.0  0.81789  0.83371  0.18140  1.0000 -0.763054638
O   O20       1.0  0.18211  0.16629  0.18140  1.0000 -0.763054638
O   O21       1.0  0.66629  0.68211  0.31860  1.0000 -0.763054638
O   O22       1.0  0.33371  0.31789  0.31860  1.0000 -0.763054638
O   O23       1.0  0.68211  0.33371  0.68140  1.0000 -0.763054638
O   O24       1.0  0.31789  0.66629  0.68140  1.0000 -0.763054638
O   O25       1.0  0.99370  0.12810  0.82050  1.0000 -1.0360354621
O   O26       1.0  0.00630  0.87190  0.82050  1.0000 -1.0332142117
O   O27       1.0  0.87190  0.99370  0.17950  1.0000 -1.0332142117
O   O28       1.0  0.12810  0.00630  0.17950  1.0000 -1.0332142117
O   O29       1.0  0.50630  0.62810  0.32050  1.0000 -1.0360354621
O   O30       1.0  0.49370  0.37190  0.32050  1.0000 -1.0360354621
O   O31       1.0  0.62810  0.49370  0.67950  1.0000 -1.0360354621
O   O32       1.0  0.37190  0.50630  0.67950  1.0000 -1.0360354621
O   O33       1.0  0.82345  0.07550  0.96360  1.0000 -1.0691780437
O   O34       1.0  0.17655  0.92450  0.96360  1.0000 -1.0691780437
O   O35       1.0  0.92450  0.82345  0.03640  1.0000 -1.0691780437
O   O36       1.0  0.07550  0.17655  0.03640  1.0000 -1.0691780437
O   O37       1.0  0.67655  0.57550  0.46360  1.0000 -1.0691780437
O   O38       1.0  0.32345  0.42450  0.46360  1.0000 -1.0691780437
O   O39       1.0  0.57550  0.32345  0.53640  1.0000 -1.0691780437
O   O40       1.0  0.42450  0.67655  0.53640  1.0000 -1.0691780437
O   O41       1.0  0.87300  0.02030  0.82040  1.0000 -1.0332142117
O   O42       1.0  0.12700  0.97970  0.82040  1.0000 -1.0332142117
O   O43       1.0  0.97970  0.87300  0.17960  1.0000 -1.0332142117
O   O44       1.0  0.02030  0.12700  0.17960  1.0000 -1.0332142117
O   O45       1.0  0.62700  0.52030  0.32040  1.0000 -1.0332142117
O   O46       1.0  0.37300  0.47970  0.32040  1.0000 -1.0332142117
O   O47       1.0  0.52030  0.37300  0.67960  1.0000 -1.0332142117
O   O48       1.0  0.47970  0.62700  0.67960  1.0000 -1.0332142117
O   O49       1.0  0.11550  0.10150  0.68390  1.0000 -0.6888222087
O   O50       1.0  0.88450  0.89850  0.68390  1.0000 -0.6888222087
O   O51       1.0  0.89850  0.11550  0.31610  1.0000 -0.6888222087
O   O52       1.0  0.10150  0.88450  0.31610  1.0000 -0.6888222087
O   O53       1.0  0.38450  0.60150  0.18390  1.0000 -0.6888222087
O   O54       1.0  0.61550  0.39850  0.18390  1.0000 -0.6888222087
O   O55       1.0  0.60150  0.61550  0.81610  1.0000 -0.6888222087
O   O56       1.0  0.39850  0.38450  0.81610  1.0000 -0.6888222087
O   O57       1.0  0.94460  0.18630  0.96190  1.0000 -1.0613396604
O   O58       1.0  0.05540  0.81370  0.96190  1.0000 -1.0613396604
O   O59       1.0  0.81370  0.94460  0.03810  1.0000 -1.0613396604
O   O60       1.0  0.18630  0.05540  0.03810  1.0000 -1.0613396604
O   O61       1.0  0.55540  0.68630  0.46190  1.0000 -1.0613396604
O   O62       1.0  0.44460  0.31370  0.46190  1.0000 -1.0613396604
O   O63       1.0  0.68630  0.44460  0.53810  1.0000 -1.0613396604
O   O64       1.0  0.31370  0.55540  0.53810  1.0000 -1.0613396604
O   O65       1.0  0.72440  0.96220  0.87880  1.0000 -0.6677367477
O   O66       1.0  0.27560  0.03780  0.87880  1.0000 -0.6677367477
O   O67       1.0  0.03780  0.72440  0.12120  1.0000 -0.6631374199
O   O68       1.0  0.96220  0.27560  0.12120  1.0000 -0.6677367477
O   O69       1.0  0.77560  0.46220  0.37880  1.0000 -0.6631374199
O   O70       1.0  0.22440  0.53780  0.37880  1.0000 -0.6631374199
O   O71       1.0  0.46220  0.22440  0.62120  1.0000 -0.6677367477
O   O72       1.0  0.53780  0.77560  0.62120  1.0000 -0.6631374199
O   O73       1.0  0.00000  0.00000  0.71580  1.0000 -0.2452814419
O   O74       1.0  0.00000  0.00000  0.28420  1.0000 -0.2452814419
O   O75       1.0  0.50000  0.50000  0.21580  1.0000 -0.2402316201
O   O76       1.0  0.50000  0.50000  0.78420  1.0000 -0.2402316201
O   O77       1.0  0.00000  0.00000  0.79780  1.0000 -0.1493273665
O   O78       1.0  0.00000  0.00000  0.20220  1.0000 -0.1493273665
O   O79       1.0  0.50000  0.50000  0.29780  1.0000 -0.1493273665
O   O80       1.0  0.50000  0.50000  0.70220  1.0000 -0.1493273665
