# DDEC6 charges by PACMAN v1.1 (https://github.com/mtap-research/PACMAN-charge/)
data_2007[GdCo][nan]3[FSR]1
_chemical_formula_sum              "Gd4 Co6 H60 C84 N12 O60"
_cell_length_a       15.212
_cell_length_b       15.212
_cell_length_c       15.451
_cell_angle_alpha    90
_cell_angle_beta     90
_cell_angle_gamma    120

_symmetry_space_group_name_H-M    "P 1"
_symmetry_Int_Tables_number       1

loop_
  _symmetry_equiv_pos_as_xyz
  'x, y, z'

loop_
  _atom_site_type_symbol
  _atom_site_label
  _atom_site_symmetry_multiplicity
  _atom_site_fract_x
  _atom_site_fract_y
  _atom_site_fract_z
  _atom_site_occupancy
  _atom_site_charge
Gd  Gd1       1.0  0.33333  0.66667  0.25000  1.0000 1.7872245076
Gd  Gd2       1.0  0.66667  0.33333  0.25000  1.0000 1.7872245076
Gd  Gd3       1.0  0.66667  0.33333  0.75000  1.0000 1.7872245076
Gd  Gd4       1.0  0.33333  0.66667  0.75000  1.0000 1.7872245076
Co  Co1       1.0  0.50000  0.00000  0.00000  1.0000 1.0935636722
Co  Co2       1.0  0.00000  0.50000  0.00000  1.0000 1.0935636722
Co  Co3       1.0  0.50000  0.50000  0.00000  1.0000 1.0935636722
Co  Co4       1.0  0.00000  0.50000  0.50000  1.0000 1.0935636722
Co  Co5       1.0  0.50000  0.00000  0.50000  1.0000 1.0935636722
Co  Co6       1.0  0.50000  0.50000  0.50000  1.0000 1.0935636722
H   H1        1.0  0.47877  0.81940  0.96330  1.0000 0.3038364997
H   H2        1.0  0.18060  0.65937  0.96330  1.0000 0.3038364997
H   H3        1.0  0.34063  0.52123  0.96330  1.0000 0.3038364997
H   H4        1.0  0.81940  0.34063  0.96330  1.0000 0.3038364997
H   H5        1.0  0.65937  0.47877  0.96330  1.0000 0.3038364997
H   H6        1.0  0.81940  0.47877  0.53670  1.0000 0.3038364997
H   H7        1.0  0.34063  0.81940  0.53670  1.0000 0.3038364997
H   H8        1.0  0.47877  0.65937  0.53670  1.0000 0.3038364997
H   H9        1.0  0.52123  0.18060  0.96330  1.0000 0.3038364997
H   H10       1.0  0.65937  0.18060  0.53670  1.0000 0.3038364997
H   H11       1.0  0.52123  0.34063  0.53670  1.0000 0.3038364997
H   H12       1.0  0.18060  0.52123  0.53670  1.0000 0.3038364997
H   H13       1.0  0.52123  0.18060  0.03670  1.0000 0.3038364997
H   H14       1.0  0.81940  0.34063  0.03670  1.0000 0.3038364997
H   H15       1.0  0.65937  0.47877  0.03670  1.0000 0.3038364997
H   H16       1.0  0.18060  0.65937  0.03670  1.0000 0.3038364997
H   H17       1.0  0.34063  0.52123  0.03670  1.0000 0.3038364997
H   H18       1.0  0.18060  0.52123  0.46330  1.0000 0.3038364997
H   H19       1.0  0.65937  0.18060  0.46330  1.0000 0.3038364997
H   H20       1.0  0.52123  0.34063  0.46330  1.0000 0.3038364997
H   H21       1.0  0.47877  0.81940  0.03670  1.0000 0.3038364997
H   H22       1.0  0.34063  0.81940  0.46330  1.0000 0.3038364997
H   H23       1.0  0.47877  0.65937  0.46330  1.0000 0.3038364997
H   H24       1.0  0.81940  0.47877  0.46330  1.0000 0.3038364997
H   H25       1.0  0.23307  0.94690  0.15480  1.0000 0.1464199337
H   H26       1.0  0.05310  0.28617  0.15480  1.0000 0.1464199337
H   H27       1.0  0.71383  0.76693  0.15480  1.0000 0.1464199337
H   H28       1.0  0.94690  0.71383  0.15480  1.0000 0.1464199337
H   H29       1.0  0.28617  0.23307  0.15480  1.0000 0.1464199337
H   H30       1.0  0.94690  0.23307  0.34520  1.0000 0.1464199337
H   H31       1.0  0.71383  0.94690  0.34520  1.0000 0.1464199337
H   H32       1.0  0.23307  0.28617  0.34520  1.0000 0.1464199337
H   H33       1.0  0.76693  0.05310  0.15480  1.0000 0.1464199337
H   H34       1.0  0.28617  0.05310  0.34520  1.0000 0.1464199337
H   H35       1.0  0.76693  0.71383  0.34520  1.0000 0.1464199337
H   H36       1.0  0.05310  0.76693  0.34520  1.0000 0.1464199337
H   H37       1.0  0.76693  0.05310  0.84520  1.0000 0.1464199337
H   H38       1.0  0.94690  0.71383  0.84520  1.0000 0.1464199337
H   H39       1.0  0.28617  0.23307  0.84520  1.0000 0.1464199337
H   H40       1.0  0.05310  0.28617  0.84520  1.0000 0.1464199337
H   H41       1.0  0.71383  0.76693  0.84520  1.0000 0.1464199337
H   H42       1.0  0.05310  0.76693  0.65480  1.0000 0.1464199337
H   H43       1.0  0.28617  0.05310  0.65480  1.0000 0.1464199337
H   H44       1.0  0.76693  0.71383  0.65480  1.0000 0.1464199337
H   H45       1.0  0.23307  0.94690  0.84520  1.0000 0.1464199337
H   H46       1.0  0.71383  0.94690  0.65480  1.0000 0.1464199337
H   H47       1.0  0.23307  0.28617  0.65480  1.0000 0.1464199337
H   H48       1.0  0.94690  0.23307  0.65480  1.0000 0.1464199337
H   H49       1.0  0.09903  0.90097  0.25000  1.0000 0.1131247897
H   H50       1.0  0.09903  0.19807  0.25000  1.0000 0.1131247897
H   H51       1.0  0.80193  0.90097  0.25000  1.0000 0.1131247897
H   H52       1.0  0.90097  0.80193  0.25000  1.0000 0.1131247897
H   H53       1.0  0.19807  0.09903  0.25000  1.0000 0.1131247897
H   H54       1.0  0.90097  0.09903  0.25000  1.0000 0.1131247897
H   H55       1.0  0.90097  0.09903  0.75000  1.0000 0.1131247897
H   H56       1.0  0.90097  0.80193  0.75000  1.0000 0.1131247897
H   H57       1.0  0.19807  0.09903  0.75000  1.0000 0.1131247897
H   H58       1.0  0.09903  0.19807  0.75000  1.0000 0.1131247897
H   H59       1.0  0.80193  0.90097  0.75000  1.0000 0.1131247897
H   H60       1.0  0.09903  0.90097  0.75000  1.0000 0.1131247897
C   C1        1.0  0.35457  0.86340  0.13890  1.0000 0.5629545761
C   C2        1.0  0.13660  0.49117  0.13890  1.0000 0.5629545761
C   C3        1.0  0.50883  0.64543  0.13890  1.0000 0.5629545761
C   C4        1.0  0.86340  0.50883  0.13890  1.0000 0.5629545761
C   C5        1.0  0.49117  0.35457  0.13890  1.0000 0.5629545761
C   C6        1.0  0.86340  0.35457  0.36110  1.0000 0.5629545761
C   C7        1.0  0.50883  0.86340  0.36110  1.0000 0.5629545761
C   C8        1.0  0.35457  0.49117  0.36110  1.0000 0.5629545761
C   C9        1.0  0.64543  0.13660  0.13890  1.0000 0.5629545761
C   C10       1.0  0.49117  0.13660  0.36110  1.0000 0.5629545761
C   C11       1.0  0.64543  0.50883  0.36110  1.0000 0.5629545761
C   C12       1.0  0.13660  0.64543  0.36110  1.0000 0.5629545761
C   C13       1.0  0.64543  0.13660  0.86110  1.0000 0.5629545761
C   C14       1.0  0.86340  0.50883  0.86110  1.0000 0.5629545761
C   C15       1.0  0.49117  0.35457  0.86110  1.0000 0.5629545761
C   C16       1.0  0.13660  0.49117  0.86110  1.0000 0.5629545761
C   C17       1.0  0.50883  0.64543  0.86110  1.0000 0.5629545761
C   C18       1.0  0.13660  0.64543  0.63890  1.0000 0.5629545761
C   C19       1.0  0.49117  0.13660  0.63890  1.0000 0.5629545761
C   C20       1.0  0.64543  0.50883  0.63890  1.0000 0.5629545761
C   C21       1.0  0.35457  0.86340  0.86110  1.0000 0.5629545761
C   C22       1.0  0.50883  0.86340  0.63890  1.0000 0.5629545761
C   C23       1.0  0.35457  0.49117  0.63890  1.0000 0.5629545761
C   C24       1.0  0.86340  0.35457  0.63890  1.0000 0.5629545761
C   C25       1.0  0.26537  0.83930  0.19600  1.0000 0.138071809
C   C26       1.0  0.16070  0.42607  0.19600  1.0000 0.138071809
C   C27       1.0  0.57393  0.73463  0.19600  1.0000 0.138071809
C   C28       1.0  0.83930  0.57393  0.19600  1.0000 0.138071809
C   C29       1.0  0.42607  0.26537  0.19600  1.0000 0.138071809
C   C30       1.0  0.83930  0.26537  0.30400  1.0000 0.138071809
C   C31       1.0  0.57393  0.83930  0.30400  1.0000 0.138071809
C   C32       1.0  0.26537  0.42607  0.30400  1.0000 0.138071809
C   C33       1.0  0.73463  0.16070  0.19600  1.0000 0.138071809
C   C34       1.0  0.42607  0.16070  0.30400  1.0000 0.138071809
C   C35       1.0  0.73463  0.57393  0.30400  1.0000 0.138071809
C   C36       1.0  0.16070  0.73463  0.30400  1.0000 0.138071809
C   C37       1.0  0.73463  0.16070  0.80400  1.0000 0.138071809
C   C38       1.0  0.83930  0.57393  0.80400  1.0000 0.138071809
C   C39       1.0  0.42607  0.26537  0.80400  1.0000 0.138071809
C   C40       1.0  0.16070  0.42607  0.80400  1.0000 0.138071809
C   C41       1.0  0.57393  0.73463  0.80400  1.0000 0.138071809
C   C42       1.0  0.16070  0.73463  0.69600  1.0000 0.138071809
C   C43       1.0  0.42607  0.16070  0.69600  1.0000 0.138071809
C   C44       1.0  0.73463  0.57393  0.69600  1.0000 0.138071809
C   C45       1.0  0.26537  0.83930  0.80400  1.0000 0.138071809
C   C46       1.0  0.57393  0.83930  0.69600  1.0000 0.138071809
C   C47       1.0  0.26537  0.42607  0.69600  1.0000 0.138071809
C   C48       1.0  0.83930  0.26537  0.69600  1.0000 0.138071809
C   C49       1.0  0.21417  0.89350  0.19350  1.0000 -0.130661649
C   C50       1.0  0.10650  0.32067  0.19350  1.0000 -0.130661649
C   C51       1.0  0.67933  0.78583  0.19350  1.0000 -0.130661649
C   C52       1.0  0.89350  0.67933  0.19350  1.0000 -0.130661649
C   C53       1.0  0.32067  0.21417  0.19350  1.0000 -0.130661649
C   C54       1.0  0.89350  0.21417  0.30650  1.0000 -0.130661649
C   C55       1.0  0.67933  0.89350  0.30650  1.0000 -0.130661649
C   C56       1.0  0.21417  0.32067  0.30650  1.0000 -0.130661649
C   C57       1.0  0.78583  0.10650  0.19350  1.0000 -0.130661649
C   C58       1.0  0.32067  0.10650  0.30650  1.0000 -0.130661649
C   C59       1.0  0.78583  0.67933  0.30650  1.0000 -0.130661649
C   C60       1.0  0.10650  0.78583  0.30650  1.0000 -0.130661649
C   C61       1.0  0.78583  0.10650  0.80650  1.0000 -0.130661649
C   C62       1.0  0.89350  0.67933  0.80650  1.0000 -0.130661649
C   C63       1.0  0.32067  0.21417  0.80650  1.0000 -0.130661649
C   C64       1.0  0.10650  0.32067  0.80650  1.0000 -0.130661649
C   C65       1.0  0.67933  0.78583  0.80650  1.0000 -0.130661649
C   C66       1.0  0.10650  0.78583  0.69350  1.0000 -0.130661649
C   C67       1.0  0.32067  0.10650  0.69350  1.0000 -0.130661649
C   C68       1.0  0.78583  0.67933  0.69350  1.0000 -0.130661649
C   C69       1.0  0.21417  0.89350  0.80650  1.0000 -0.130661649
C   C70       1.0  0.67933  0.89350  0.69350  1.0000 -0.130661649
C   C71       1.0  0.21417  0.32067  0.69350  1.0000 -0.130661649
C   C72       1.0  0.89350  0.21417  0.69350  1.0000 -0.130661649
C   C73       1.0  0.13433  0.86567  0.25000  1.0000 -0.0539674585
C   C74       1.0  0.13433  0.26867  0.25000  1.0000 -0.0539674585
C   C75       1.0  0.73133  0.86567  0.25000  1.0000 -0.0539674585
C   C76       1.0  0.86567  0.73133  0.25000  1.0000 -0.0539674585
C   C77       1.0  0.26867  0.13433  0.25000  1.0000 -0.0539674585
C   C78       1.0  0.86567  0.13433  0.25000  1.0000 -0.0539674585
C   C79       1.0  0.86567  0.13433  0.75000  1.0000 -0.0539674585
C   C80       1.0  0.86567  0.73133  0.75000  1.0000 -0.0539674585
C   C81       1.0  0.26867  0.13433  0.75000  1.0000 -0.0539674585
C   C82       1.0  0.13433  0.26867  0.75000  1.0000 -0.0539674585
C   C83       1.0  0.73133  0.86567  0.75000  1.0000 -0.0539674585
C   C84       1.0  0.13433  0.86567  0.75000  1.0000 -0.0539674585
N   N1        1.0  0.23875  0.76125  0.25000  1.0000 -0.3361768005
N   N2        1.0  0.23875  0.47751  0.25000  1.0000 -0.3361768005
N   N3        1.0  0.52249  0.76125  0.25000  1.0000 -0.3361768005
N   N4        1.0  0.76125  0.52249  0.25000  1.0000 -0.3346712825
N   N5        1.0  0.47751  0.23875  0.25000  1.0000 -0.3361768005
N   N6        1.0  0.76125  0.23875  0.25000  1.0000 -0.3361768005
N   N7        1.0  0.76125  0.23875  0.75000  1.0000 -0.3361768005
N   N8        1.0  0.76125  0.52249  0.75000  1.0000 -0.3346712825
N   N9        1.0  0.47751  0.23875  0.75000  1.0000 -0.3361768005
N   N10       1.0  0.23875  0.47751  0.75000  1.0000 -0.3361768005
N   N11       1.0  0.52249  0.76125  0.75000  1.0000 -0.3361768005
N   N12       1.0  0.23875  0.76125  0.75000  1.0000 -0.3361768005
O   O1        1.0  0.38855  0.80232  0.14294  1.0000 -0.6008610489
O   O2        1.0  0.19768  0.58623  0.14294  1.0000 -0.6008610489
O   O3        1.0  0.41377  0.61145  0.14294  1.0000 -0.6008610489
O   O4        1.0  0.80232  0.41377  0.14294  1.0000 -0.6008610489
O   O5        1.0  0.58623  0.38855  0.14294  1.0000 -0.6008610489
O   O6        1.0  0.80232  0.38855  0.35706  1.0000 -0.6008610489
O   O7        1.0  0.41377  0.80232  0.35706  1.0000 -0.6008610489
O   O8        1.0  0.38855  0.58623  0.35706  1.0000 -0.6008610489
O   O9        1.0  0.61145  0.19768  0.14294  1.0000 -0.6008610489
O   O10       1.0  0.58623  0.19768  0.35706  1.0000 -0.6008610489
O   O11       1.0  0.61145  0.41377  0.35706  1.0000 -0.6008610489
O   O12       1.0  0.19768  0.61145  0.35706  1.0000 -0.6008610489
O   O13       1.0  0.61145  0.19768  0.85706  1.0000 -0.6008610489
O   O14       1.0  0.80232  0.41377  0.85706  1.0000 -0.6008610489
O   O15       1.0  0.58623  0.38855  0.85706  1.0000 -0.6008610489
O   O16       1.0  0.19768  0.58623  0.85706  1.0000 -0.6008610489
O   O17       1.0  0.41377  0.61145  0.85706  1.0000 -0.6008610489
O   O18       1.0  0.19768  0.61145  0.64294  1.0000 -0.6008610489
O   O19       1.0  0.58623  0.19768  0.64294  1.0000 -0.6008610489
O   O20       1.0  0.61145  0.41377  0.64294  1.0000 -0.6008610489
O   O21       1.0  0.38855  0.80232  0.85706  1.0000 -0.6008610489
O   O22       1.0  0.41377  0.80232  0.64294  1.0000 -0.6008610489
O   O23       1.0  0.38855  0.58623  0.64294  1.0000 -0.6008610489
O   O24       1.0  0.80232  0.38855  0.64294  1.0000 -0.6008610489
O   O25       1.0  0.38657  0.93980  0.09282  1.0000 -0.5211334862
O   O26       1.0  0.06020  0.44677  0.09282  1.0000 -0.5211334862
O   O27       1.0  0.55323  0.61343  0.09282  1.0000 -0.5211334862
O   O28       1.0  0.93980  0.55323  0.09282  1.0000 -0.5211334862
O   O29       1.0  0.44677  0.38657  0.09282  1.0000 -0.5211334862
O   O30       1.0  0.93980  0.38657  0.40718  1.0000 -0.5211334862
O   O31       1.0  0.55323  0.93980  0.40718  1.0000 -0.5211334862
O   O32       1.0  0.38657  0.44677  0.40718  1.0000 -0.5211334862
O   O33       1.0  0.61343  0.06020  0.09282  1.0000 -0.5211334862
O   O34       1.0  0.44677  0.06020  0.40718  1.0000 -0.5211334862
O   O35       1.0  0.61343  0.55323  0.40718  1.0000 -0.5211334862
O   O36       1.0  0.06020  0.61343  0.40718  1.0000 -0.5211334862
O   O37       1.0  0.61343  0.06020  0.90718  1.0000 -0.5211334862
O   O38       1.0  0.93980  0.55323  0.90718  1.0000 -0.5211334862
O   O39       1.0  0.44677  0.38657  0.90718  1.0000 -0.5211334862
O   O40       1.0  0.06020  0.44677  0.90718  1.0000 -0.5211334862
O   O41       1.0  0.55323  0.61343  0.90718  1.0000 -0.5211334862
O   O42       1.0  0.06020  0.61343  0.59282  1.0000 -0.5211334862
O   O43       1.0  0.44677  0.06020  0.59282  1.0000 -0.5211334862
O   O44       1.0  0.61343  0.55323  0.59282  1.0000 -0.5211334862
O   O45       1.0  0.38657  0.93980  0.90718  1.0000 -0.5211334862
O   O46       1.0  0.55323  0.93980  0.59282  1.0000 -0.5211334862
O   O47       1.0  0.38657  0.44677  0.59282  1.0000 -0.5211334862
O   O48       1.0  0.93980  0.38657  0.59282  1.0000 -0.5211334862
O   O49       1.0  0.51367  0.86580  0.00000  1.0000 -0.6630080578
O   O50       1.0  0.13420  0.64787  0.00000  1.0000 -0.6630080578
O   O51       1.0  0.35213  0.48633  0.00000  1.0000 -0.6630080578
O   O52       1.0  0.86580  0.35213  0.00000  1.0000 -0.6630080578
O   O53       1.0  0.64787  0.51367  0.00000  1.0000 -0.6630080578
O   O54       1.0  0.86580  0.51367  0.50000  1.0000 -0.6630080578
O   O55       1.0  0.35213  0.86580  0.50000  1.0000 -0.6630080578
O   O56       1.0  0.51367  0.64787  0.50000  1.0000 -0.6630080578
O   O57       1.0  0.48633  0.13420  0.00000  1.0000 -0.6630080578
O   O58       1.0  0.64787  0.13420  0.50000  1.0000 -0.6630080578
O   O59       1.0  0.48633  0.35213  0.50000  1.0000 -0.6630080578
O   O60       1.0  0.13420  0.48633  0.50000  1.0000 -0.6630080578
