# DDEC6 charges by PACMAN v1.1 (https://github.com/mtap-research/PACMAN-charge/)
data_2007[Zn][dia]3[FSR]6
_chemical_formula_sum              "Zn8 H88 C80 S8 O44"
_cell_length_a       12.6977
_cell_length_b       15.1033
_cell_length_c       18.903
_cell_angle_alpha    90
_cell_angle_beta     90
_cell_angle_gamma    90

_symmetry_space_group_name_H-M    "P 1"
_symmetry_Int_Tables_number       1

loop_
  _symmetry_equiv_pos_as_xyz
  'x, y, z'

loop_
  _atom_site_type_symbol
  _atom_site_label
  _atom_site_symmetry_multiplicity
  _atom_site_fract_x
  _atom_site_fract_y
  _atom_site_fract_z
  _atom_site_occupancy
  _atom_site_charge
Zn  Zn1       1.0  0.80121  0.95172  0.77425  1.0000 1.0134037939
Zn  Zn2       1.0  0.69879  0.04828  0.27425  1.0000 1.0134037939
Zn  Zn3       1.0  0.19879  0.45172  0.72575  1.0000 1.0169149844
Zn  Zn4       1.0  0.30121  0.54828  0.22575  1.0000 1.0169149844
Zn  Zn5       1.0  0.87233  0.80877  0.61801  1.0000 0.9410897998
Zn  Zn6       1.0  0.62767  0.19123  0.11801  1.0000 0.9410897998
Zn  Zn7       1.0  0.12767  0.30877  0.88199  1.0000 0.9410897998
Zn  Zn8       1.0  0.37233  0.69123  0.38199  1.0000 0.9410897998
H   H1        1.0  0.53400  0.02350  0.68100  1.0000 0.1135112924
H   H2        1.0  0.96600  0.97650  0.18100  1.0000 0.1135112924
H   H3        1.0  0.46600  0.52350  0.81900  1.0000 0.1135112924
H   H4        1.0  0.03400  0.47650  0.31900  1.0000 0.1135112924
H   H5        1.0  0.35780  0.03670  0.64860  1.0000 0.1176548411
H   H6        1.0  0.14220  0.96330  0.14860  1.0000 0.1176548411
H   H7        1.0  0.64220  0.53670  0.85140  1.0000 0.1176548411
H   H8        1.0  0.85780  0.46330  0.35140  1.0000 0.1176548411
H   H9        1.0  0.28910  0.94790  0.56050  1.0000 0.1176548411
H   H10       1.0  0.21090  0.05210  0.06050  1.0000 0.1176548411
H   H11       1.0  0.71090  0.44790  0.93950  1.0000 0.1176548411
H   H12       1.0  0.78910  0.55210  0.43950  1.0000 0.1176548411
H   H13       1.0  0.56830  0.82570  0.54020  1.0000 0.1379243342
H   H14       1.0  0.93170  0.17430  0.04020  1.0000 0.1379243342
H   H15       1.0  0.43170  0.32570  0.95980  1.0000 0.1379243342
H   H16       1.0  0.06830  0.67430  0.45980  1.0000 0.1379243342
H   H17       1.0  0.78060  0.73610  0.89440  1.0000 0.1176548411
H   H18       1.0  0.71940  0.26390  0.39440  1.0000 0.1176548411
H   H19       1.0  0.21940  0.23610  0.60560  1.0000 0.1176548411
H   H20       1.0  0.28060  0.76390  0.10560  1.0000 0.1176548411
H   H21       1.0  0.80870  0.62740  0.97860  1.0000 0.1176548411
H   H22       1.0  0.69130  0.37260  0.47860  1.0000 0.1176548411
H   H23       1.0  0.19130  0.12740  0.52140  1.0000 0.1176548411
H   H24       1.0  0.30870  0.87260  0.02140  1.0000 0.1176548411
H   H25       1.0  0.90980  0.50430  0.95070  1.0000 0.1290857812
H   H26       1.0  0.59020  0.49570  0.45070  1.0000 0.1290857812
H   H27       1.0  0.09020  0.00430  0.54930  1.0000 0.1290857812
H   H28       1.0  0.40980  0.99570  0.04930  1.0000 0.1290857812
H   H29       1.0  0.94880  0.59600  0.75300  1.0000 0.1290857812
H   H30       1.0  0.55120  0.40400  0.25300  1.0000 0.1290857812
H   H31       1.0  0.05120  0.09600  0.74700  1.0000 0.1290857812
H   H32       1.0  0.44880  0.90400  0.24700  1.0000 0.1290857812
H   H33       1.0  0.70150  0.15810  0.89840  1.0000 0.1609456465
H   H34       1.0  0.79850  0.84190  0.39840  1.0000 0.1609456465
H   H35       1.0  0.29850  0.65810  0.60160  1.0000 0.1609456465
H   H36       1.0  0.20150  0.34190  0.10160  1.0000 0.1609456465
H   H37       1.0  0.78950  0.17390  0.95510  1.0000 0.1785537956
H   H38       1.0  0.71050  0.82610  0.45510  1.0000 0.1785537956
H   H39       1.0  0.21050  0.67390  0.54490  1.0000 0.1785537956
H   H40       1.0  0.28950  0.32610  0.04490  1.0000 0.1785537956
H   H41       1.0  0.75730  0.07710  0.93430  1.0000 0.168181308
H   H42       1.0  0.74270  0.92290  0.43430  1.0000 0.168181308
H   H43       1.0  0.24270  0.57710  0.56570  1.0000 0.1785537956
H   H44       1.0  0.25730  0.42290  0.06570  1.0000 0.168181308
H   H45       1.0  0.90330  0.26410  0.78940  1.0000 0.1785537956
H   H46       1.0  0.59670  0.73590  0.28940  1.0000 0.1785537956
H   H47       1.0  0.09670  0.76410  0.71060  1.0000 0.1785537956
H   H48       1.0  0.40330  0.23590  0.21060  1.0000 0.1785537956
H   H49       1.0  0.87970  0.28520  0.86910  1.0000 0.1785537956
H   H50       1.0  0.62030  0.71480  0.36910  1.0000 0.1785537956
H   H51       1.0  0.12030  0.78520  0.63090  1.0000 0.1785537956
H   H52       1.0  0.37970  0.21480  0.13090  1.0000 0.1785537956
H   H53       1.0  0.78670  0.26700  0.81650  1.0000 0.168181308
H   H54       1.0  0.71330  0.73300  0.31650  1.0000 0.168181308
H   H55       1.0  0.21330  0.76700  0.68350  1.0000 0.168181308
H   H56       1.0  0.28670  0.23300  0.18350  1.0000 0.168181308
H   H57       1.0  0.96840  0.92320  0.00250  1.0000 0.1609456465
H   H58       1.0  0.53160  0.07680  0.50250  1.0000 0.168181308
H   H59       1.0  0.03160  0.42320  0.49750  1.0000 0.168181308
H   H60       1.0  0.46840  0.57680  0.99750  1.0000 0.168181308
H   H61       1.0  0.03550  0.83710  0.99190  1.0000 0.1609456465
H   H62       1.0  0.46450  0.16290  0.49190  1.0000 0.1609456465
H   H63       1.0  0.96450  0.33710  0.50810  1.0000 0.1609456465
H   H64       1.0  0.53550  0.66290  0.00810  1.0000 0.1609456465
H   H65       1.0  0.91220  0.83200  0.99030  1.0000 0.1609456465
H   H66       1.0  0.58780  0.16800  0.49030  1.0000 0.1609456465
H   H67       1.0  0.08780  0.33200  0.50970  1.0000 0.1609456465
H   H68       1.0  0.41220  0.66800  0.00970  1.0000 0.1609456465
H   H69       1.0  0.09400  0.97690  0.83290  1.0000 0.1785537956
H   H70       1.0  0.40600  0.02310  0.33290  1.0000 0.1785537956
H   H71       1.0  0.90600  0.47690  0.66710  1.0000 0.1785537956
H   H72       1.0  0.59400  0.52310  0.16710  1.0000 0.1785537956
H   H73       1.0  0.14680  0.92490  0.89540  1.0000 0.1609456465
H   H74       1.0  0.35320  0.07510  0.39540  1.0000 0.1609456465
H   H75       1.0  0.85320  0.42490  0.60460  1.0000 0.1609456465
H   H76       1.0  0.64680  0.57510  0.10460  1.0000 0.1609456465
H   H77       1.0  0.07470  0.00680  0.91130  1.0000 0.168181308
H   H78       1.0  0.42530  0.99320  0.41130  1.0000 0.168181308
H   H79       1.0  0.92530  0.50680  0.58870  1.0000 0.168181308
H   H80       1.0  0.57470  0.49320  0.08870  1.0000 0.168181308
H   H81       1.0  0.61400  0.93800  0.83900  1.0000 0.3566886393
H   H82       1.0  0.88600  0.06200  0.33900  1.0000 0.3566886393
H   H83       1.0  0.38600  0.43800  0.66100  1.0000 0.3566886393
H   H84       1.0  0.11400  0.56200  0.16100  1.0000 0.3566886393
H   H85       1.0  0.62900  0.02500  0.82700  1.0000 0.3496241925
H   H86       1.0  0.87100  0.97500  0.32700  1.0000 0.3496241925
H   H87       1.0  0.37100  0.52500  0.67300  1.0000 0.3496241925
H   H88       1.0  0.12900  0.47500  0.17300  1.0000 0.3496241925
C   C1        1.0  0.68280  0.91245  0.63435  1.0000 0.5992459265
C   C2        1.0  0.81720  0.08755  0.13435  1.0000 0.5992459265
C   C3        1.0  0.31720  0.41245  0.86565  1.0000 0.5992459265
C   C4        1.0  0.18280  0.58755  0.36565  1.0000 0.5992459265
C   C5        1.0  0.56880  0.92355  0.61357  1.0000 -0.0313271923
C   C6        1.0  0.93120  0.07645  0.11357  1.0000 -0.0313271923
C   C7        1.0  0.43120  0.42355  0.88643  1.0000 -0.0313271923
C   C8        1.0  0.06880  0.57645  0.38643  1.0000 -0.0313271923
C   C9        1.0  0.50600  0.98685  0.64624  1.0000 -0.1094447888
C   C10       1.0  0.99400  0.01315  0.14624  1.0000 -0.1094447888
C   C11       1.0  0.49400  0.48685  0.85376  1.0000 -0.1094447888
C   C12       1.0  0.00600  0.51315  0.35376  1.0000 -0.1094447888
C   C13       1.0  0.40050  0.99510  0.62646  1.0000 -0.101352394
C   C14       1.0  0.09950  0.00490  0.12646  1.0000 -0.101352394
C   C15       1.0  0.59950  0.49510  0.87354  1.0000 -0.101352394
C   C16       1.0  0.90050  0.50490  0.37354  1.0000 -0.101352394
C   C17       1.0  0.35910  0.94140  0.57402  1.0000 -0.101352394
C   C18       1.0  0.14090  0.05860  0.07402  1.0000 -0.101352394
C   C19       1.0  0.64090  0.44140  0.92598  1.0000 -0.101352394
C   C20       1.0  0.85910  0.55860  0.42598  1.0000 -0.101352394
C   C21       1.0  0.42150  0.87781  0.54141  1.0000 -0.0228937412
C   C22       1.0  0.07850  0.12219  0.04141  1.0000 -0.0228937412
C   C23       1.0  0.57850  0.37781  0.95859  1.0000 -0.0228937412
C   C24       1.0  0.92150  0.62219  0.45859  1.0000 -0.0228937412
C   C25       1.0  0.52640  0.86857  0.56151  1.0000 -0.1094447888
C   C26       1.0  0.97360  0.13143  0.06151  1.0000 -0.1094447888
C   C27       1.0  0.47360  0.36857  0.93849  1.0000 -0.1094447888
C   C28       1.0  0.02640  0.63143  0.43849  1.0000 -0.1094447888
C   C29       1.0  0.37550  0.82152  0.48283  1.0000 0.5506553707
C   C30       1.0  0.12450  0.17848  0.98283  1.0000 0.5506553707
C   C31       1.0  0.62450  0.32152  0.01717  1.0000 0.5506553707
C   C32       1.0  0.87550  0.67848  0.51717  1.0000 0.5506553707
C   C33       1.0  0.84430  0.74852  0.76063  1.0000 0.5939321128
C   C34       1.0  0.65570  0.25148  0.26063  1.0000 0.5939321128
C   C35       1.0  0.15570  0.24852  0.73937  1.0000 0.5939321128
C   C36       1.0  0.34430  0.75148  0.23937  1.0000 0.5939321128
C   C37       1.0  0.82010  0.68621  0.88299  1.0000 -0.1169859617
C   C38       1.0  0.67990  0.31379  0.38299  1.0000 -0.1169859617
C   C39       1.0  0.17990  0.18621  0.61701  1.0000 -0.1169859617
C   C40       1.0  0.32010  0.81379  0.11701  1.0000 -0.1169859617
C   C41       1.0  0.83730  0.62145  0.93359  1.0000 -0.1094447888
C   C42       1.0  0.66270  0.37855  0.43359  1.0000 -0.1094447888
C   C43       1.0  0.16270  0.12145  0.56641  1.0000 -0.1094447888
C   C44       1.0  0.33730  0.87855  0.06641  1.0000 -0.1094447888
C   C45       1.0  0.89760  0.54758  0.91671  1.0000 -0.101352394
C   C46       1.0  0.60240  0.45242  0.41671  1.0000 -0.101352394
C   C47       1.0  0.10240  0.04758  0.58329  1.0000 -0.101352394
C   C48       1.0  0.39760  0.95242  0.08329  1.0000 -0.101352394
C   C49       1.0  0.93968  0.53797  0.84926  1.0000 -0.0228937412
C   C50       1.0  0.56032  0.46203  0.34926  1.0000 -0.0228937412
C   C51       1.0  0.06032  0.03797  0.65074  1.0000 -0.0228937412
C   C52       1.0  0.43968  0.96203  0.15074  1.0000 -0.0228937412
C   C53       1.0  0.92130  0.60255  0.79826  1.0000 -0.101352394
C   C54       1.0  0.57870  0.39745  0.29826  1.0000 -0.101352394
C   C55       1.0  0.07870  0.10255  0.70174  1.0000 -0.101352394
C   C56       1.0  0.42130  0.89745  0.20174  1.0000 -0.101352394
C   C57       1.0  0.86150  0.67721  0.81512  1.0000 -0.0313271923
C   C58       1.0  0.63850  0.32279  0.31512  1.0000 -0.0313271923
C   C59       1.0  0.13850  0.17721  0.68488  1.0000 -0.0313271923
C   C60       1.0  0.36150  0.82279  0.18488  1.0000 -0.0313271923
C   C61       1.0  0.01154  0.46074  0.83283  1.0000 0.5939321128
C   C62       1.0  0.48846  0.53926  0.33283  1.0000 0.5939321128
C   C63       1.0  0.98846  0.96074  0.66717  1.0000 0.5939321128
C   C64       1.0  0.51154  0.03926  0.16717  1.0000 0.5939321128
C   C65       1.0  0.76690  0.13640  0.91704  1.0000 -0.5816319304
C   C66       1.0  0.73310  0.86360  0.41704  1.0000 -0.5816319304
C   C67       1.0  0.23310  0.63640  0.58296  1.0000 -0.5816319304
C   C68       1.0  0.26690  0.36360  0.08296  1.0000 -0.5816319304
C   C69       1.0  0.85770  0.25140  0.82860  1.0000 -0.562811652
C   C70       1.0  0.64230  0.74860  0.32860  1.0000 -0.562811652
C   C71       1.0  0.14230  0.75140  0.67140  1.0000 -0.562811652
C   C72       1.0  0.35770  0.24860  0.17140  1.0000 -0.562811652
C   C73       1.0  0.97230  0.86740  0.97820  1.0000 -0.5500488671
C   C74       1.0  0.52770  0.13260  0.47820  1.0000 -0.5500488671
C   C75       1.0  0.02770  0.36740  0.52180  1.0000 -0.5500488671
C   C76       1.0  0.47230  0.63260  0.02180  1.0000 -0.5500488671
C   C77       1.0  0.08510  0.95680  0.88070  1.0000 -0.562811652
C   C78       1.0  0.41490  0.04320  0.38070  1.0000 -0.562811652
C   C79       1.0  0.91490  0.45680  0.61930  1.0000 -0.562811652
C   C80       1.0  0.58510  0.54320  0.11930  1.0000 -0.562811652
S   S1        1.0  0.86412  0.13643  0.84892  1.0000 0.679647208
S   S2        1.0  0.63588  0.86357  0.34892  1.0000 0.679647208
S   S3        1.0  0.13588  0.63643  0.65108  1.0000 0.6864286271
S   S4        1.0  0.36412  0.36357  0.15108  1.0000 0.679647208
S   S5        1.0  0.97386  0.88604  0.88561  1.0000 0.6591567305
S   S6        1.0  0.52614  0.11396  0.38561  1.0000 0.6591567305
S   S7        1.0  0.02614  0.38604  0.61439  1.0000 0.6591567305
S   S8        1.0  0.47386  0.61396  0.11439  1.0000 0.6591567305
O   O1        1.0  0.72165  0.96438  0.67906  1.0000 -0.562811652
O   O2        1.0  0.77835  0.03562  0.17906  1.0000 -0.562811652
O   O3        1.0  0.27835  0.46438  0.82094  1.0000 -0.562811652
O   O4        1.0  0.22165  0.53562  0.32094  1.0000 -0.562811652
O   O5        1.0  0.73029  0.85078  0.60298  1.0000 -0.5328665765
O   O6        1.0  0.76971  0.14922  0.10298  1.0000 -0.5328665765
O   O7        1.0  0.26971  0.35078  0.89702  1.0000 -0.5328665765
O   O8        1.0  0.23029  0.64922  0.39702  1.0000 -0.5328665765
O   O9        1.0  0.43398  0.75882  0.45987  1.0000 -0.5500488671
O   O10       1.0  0.06602  0.24118  0.95987  1.0000 -0.5500488671
O   O11       1.0  0.56602  0.25882  0.04013  1.0000 -0.5500488671
O   O12       1.0  0.93398  0.74118  0.54013  1.0000 -0.5500488671
O   O13       1.0  0.28720  0.83783  0.46024  1.0000 -0.5188919696
O   O14       1.0  0.21280  0.16217  0.96024  1.0000 -0.5188919696
O   O15       1.0  0.71280  0.33783  0.03976  1.0000 -0.5188919696
O   O16       1.0  0.78720  0.66217  0.53976  1.0000 -0.5188919696
O   O17       1.0  0.78776  0.81341  0.77669  1.0000 -0.5816319304
O   O18       1.0  0.71224  0.18659  0.27669  1.0000 -0.5816319304
O   O19       1.0  0.21224  0.31341  0.72331  1.0000 -0.5816319304
O   O20       1.0  0.28776  0.68659  0.22331  1.0000 -0.5816319304
O   O21       1.0  0.88984  0.73610  0.70198  1.0000 -0.5425460891
O   O22       1.0  0.61016  0.26390  0.20198  1.0000 -0.5425460891
O   O23       1.0  0.11016  0.23610  0.79802  1.0000 -0.5425460891
O   O24       1.0  0.38984  0.76390  0.29802  1.0000 -0.5425460891
O   O25       1.0  0.04646  0.45223  0.77187  1.0000 -0.5671891513
O   O26       1.0  0.45354  0.54777  0.27187  1.0000 -0.5671891513
O   O27       1.0  0.95354  0.95223  0.72813  1.0000 -0.5671891513
O   O28       1.0  0.54646  0.04777  0.22813  1.0000 -0.5671891513
O   O29       1.0  0.03103  0.41046  0.88471  1.0000 -0.5425460891
O   O30       1.0  0.46897  0.58954  0.38471  1.0000 -0.5425460891
O   O31       1.0  0.96897  0.91046  0.61529  1.0000 -0.5425460891
O   O32       1.0  0.53103  0.08954  0.11529  1.0000 -0.5425460891
O   O33       1.0  0.65832  0.97149  0.82577  1.0000 -0.6078625115
O   O34       1.0  0.84168  0.02851  0.32577  1.0000 -0.6049608978
O   O35       1.0  0.34168  0.47149  0.67423  1.0000 -0.6049608978
O   O36       1.0  0.15832  0.52851  0.17423  1.0000 -0.6049608978
O   O37       1.0  0.81343  0.09171  0.78591  1.0000 -0.5425460891
O   O38       1.0  0.68657  0.90829  0.28591  1.0000 -0.5500488671
O   O39       1.0  0.18657  0.59171  0.71409  1.0000 -0.5425460891
O   O40       1.0  0.31343  0.40829  0.21409  1.0000 -0.5425460891
O   O41       1.0  0.87788  0.94351  0.87288  1.0000 -0.5874443146
O   O42       1.0  0.62212  0.05649  0.37288  1.0000 -0.5874443146
O   O43       1.0  0.12212  0.44351  0.62712  1.0000 -0.5874443146
O   O44       1.0  0.37788  0.55649  0.12712  1.0000 -0.5874443146
