# DDEC6 charges by PACMAN v1.1 (https://github.com/mtap-research/PACMAN-charge/)
data_2007[Co][bcg]3[FSR]1
_chemical_formula_sum              "Co8 H92 C136 N20 O40"
_cell_length_a       15.6527
_cell_length_b       15.6527
_cell_length_c       21.812
_cell_angle_alpha    63.2319
_cell_angle_beta     116.768
_cell_angle_gamma    127.525

_symmetry_space_group_name_H-M    "P 1"
_symmetry_Int_Tables_number       1

loop_
  _symmetry_equiv_pos_as_xyz
  'x, y, z'

loop_
  _atom_site_type_symbol
  _atom_site_label
  _atom_site_symmetry_multiplicity
  _atom_site_fract_x
  _atom_site_fract_y
  _atom_site_fract_z
  _atom_site_occupancy
  _atom_site_charge
Co  Co1       1.0  0.97498  0.38474  0.50505  1.0000 0.9741714858
Co  Co2       1.0  0.38474  0.97498  0.99495  1.0000 0.9741714858
Co  Co3       1.0  0.02502  0.61526  0.49495  1.0000 0.9741714858
Co  Co4       1.0  0.61526  0.02502  0.00505  1.0000 0.9741714858
Co  Co5       1.0  0.23046  0.52838  0.55664  1.0000 0.8671908937
Co  Co6       1.0  0.52838  0.23046  0.94336  1.0000 0.8671908937
Co  Co7       1.0  0.76954  0.47162  0.44336  1.0000 0.8671908937
Co  Co8       1.0  0.47162  0.76954  0.05664  1.0000 0.8671908937
H   H1        1.0  0.34080  0.71340  0.44030  1.0000 0.1202444881
H   H2        1.0  0.71340  0.34080  0.05970  1.0000 0.1202444881
H   H3        1.0  0.65920  0.28660  0.55970  1.0000 0.1202444881
H   H4        1.0  0.28660  0.65920  0.94030  1.0000 0.1202444881
H   H5        1.0  0.49300  0.88800  0.42520  1.0000 0.1305405982
H   H6        1.0  0.88800  0.49300  0.07480  1.0000 0.1305405982
H   H7        1.0  0.50700  0.11200  0.57480  1.0000 0.1305405982
H   H8        1.0  0.11200  0.50700  0.92520  1.0000 0.1305405982
H   H9        1.0  0.60530  0.83370  0.63670  1.0000 0.1305405982
H   H10       1.0  0.83370  0.60530  0.86330  1.0000 0.1305405982
H   H11       1.0  0.39470  0.16630  0.36330  1.0000 0.1305405982
H   H12       1.0  0.16630  0.39470  0.13670  1.0000 0.1305405982
H   H13       1.0  0.44710  0.66230  0.64620  1.0000 0.1106369805
H   H14       1.0  0.66230  0.44710  0.85380  1.0000 0.1106369805
H   H15       1.0  0.55290  0.33770  0.35380  1.0000 0.1106369805
H   H16       1.0  0.33770  0.55290  0.14620  1.0000 0.1106369805
H   H17       1.0  0.76650  0.97510  0.61830  1.0000 0.1305405982
H   H18       1.0  0.97510  0.76650  0.88170  1.0000 0.1305405982
H   H19       1.0  0.23350  0.02490  0.38170  1.0000 0.1305405982
H   H20       1.0  0.02490  0.23350  0.11830  1.0000 0.1305405982
H   H21       1.0  0.90780  0.15660  0.60770  1.0000 0.1202444881
H   H22       1.0  0.15660  0.90780  0.89230  1.0000 0.1202444881
H   H23       1.0  0.09220  0.84340  0.39230  1.0000 0.1202444881
H   H24       1.0  0.84340  0.09220  0.10770  1.0000 0.1202444881
H   H25       1.0  0.74090  0.24910  0.42110  1.0000 0.1106369805
H   H26       1.0  0.24910  0.74090  0.07890  1.0000 0.1106369805
H   H27       1.0  0.25910  0.75090  0.57890  1.0000 0.1106369805
H   H28       1.0  0.75090  0.25910  0.92110  1.0000 0.1106369805
H   H29       1.0  0.59390  0.06990  0.42590  1.0000 0.1305405982
H   H30       1.0  0.06990  0.59390  0.07410  1.0000 0.1305405982
H   H31       1.0  0.40610  0.93010  0.57410  1.0000 0.1305405982
H   H32       1.0  0.93010  0.40610  0.92590  1.0000 0.1305405982
H   H33       1.0  0.82000  0.29660  0.30780  1.0000 0.1202444881
H   H34       1.0  0.29660  0.82000  0.19220  1.0000 0.1202444881
H   H35       1.0  0.18000  0.70340  0.69220  1.0000 0.1202444881
H   H36       1.0  0.70340  0.18000  0.80780  1.0000 0.1202444881
H   H37       1.0  0.76370  0.22250  0.21680  1.0000 0.1202444881
H   H38       1.0  0.22250  0.76370  0.28320  1.0000 0.1202444881
H   H39       1.0  0.23630  0.77750  0.78320  1.0000 0.1202444881
H   H40       1.0  0.77750  0.23630  0.71680  1.0000 0.1202444881
H   H41       1.0  0.89240  0.28260  0.16020  1.0000 0.1106369805
H   H42       1.0  0.28260  0.89240  0.33980  1.0000 0.1106369805
H   H43       1.0  0.10760  0.71740  0.83980  1.0000 0.1106369805
H   H44       1.0  0.71740  0.10760  0.66020  1.0000 0.1106369805
H   H45       1.0  0.07310  0.41830  0.19160  1.0000 0.1202444881
H   H46       1.0  0.41830  0.07310  0.30840  1.0000 0.1202444881
H   H47       1.0  0.92690  0.58170  0.80840  1.0000 0.1202444881
H   H48       1.0  0.58170  0.92690  0.69160  1.0000 0.1202444881
H   H49       1.0  0.55220  0.77820  0.38870  1.0000 0.1202444881
H   H50       1.0  0.77820  0.55220  0.11130  1.0000 0.1202444881
H   H51       1.0  0.44780  0.22180  0.61130  1.0000 0.1202444881
H   H52       1.0  0.22180  0.44780  0.88870  1.0000 0.1202444881
H   H53       1.0  0.71950  0.93470  0.41640  1.0000 0.1106369805
H   H54       1.0  0.93470  0.71950  0.08360  1.0000 0.1106369805
H   H55       1.0  0.28050  0.06530  0.58360  1.0000 0.1106369805
H   H56       1.0  0.06530  0.28050  0.91640  1.0000 0.1106369805
H   H57       1.0  0.81970  0.06730  0.33070  1.0000 0.1106369805
H   H58       1.0  0.06730  0.81970  0.16930  1.0000 0.1106369805
H   H59       1.0  0.18030  0.93270  0.66930  1.0000 0.1106369805
H   H60       1.0  0.93270  0.18030  0.83070  1.0000 0.1106369805
H   H61       1.0  0.75560  0.03520  0.22130  1.0000 0.1202444881
H   H62       1.0  0.03520  0.75560  0.27870  1.0000 0.1202444881
H   H63       1.0  0.24440  0.96480  0.77870  1.0000 0.1202444881
H   H64       1.0  0.96480  0.24440  0.72130  1.0000 0.1202444881
H   H65       1.0  0.99400  0.16720  0.46550  1.0000 0.1202444881
H   H66       1.0  0.16720  0.99400  0.03450  1.0000 0.1202444881
H   H67       1.0  0.00600  0.83280  0.53450  1.0000 0.1202444881
H   H68       1.0  0.83280  0.00600  0.96550  1.0000 0.1202444881
H   H69       1.0  0.99220  0.06260  0.41580  1.0000 0.1202444881
H   H70       1.0  0.06260  0.99220  0.08420  1.0000 0.1202444881
H   H71       1.0  0.00780  0.93740  0.58420  1.0000 0.1202444881
H   H72       1.0  0.93740  0.00780  0.91580  1.0000 0.1202444881
H   H73       1.0  0.15600  0.10860  0.40520  1.0000 0.1106369805
H   H74       1.0  0.10860  0.15600  0.09480  1.0000 0.1106369805
H   H75       1.0  0.84400  0.89140  0.59480  1.0000 0.1106369805
H   H76       1.0  0.89140  0.84400  0.90520  1.0000 0.1106369805
H   H77       1.0  0.31920  0.26180  0.43720  1.0000 0.1305405982
H   H78       1.0  0.26180  0.31920  0.06280  1.0000 0.1305405982
H   H79       1.0  0.68080  0.73820  0.56280  1.0000 0.1305405982
H   H80       1.0  0.73820  0.68080  0.93720  1.0000 0.1305405982
H   H81       1.0  0.18800  0.53420  0.33140  1.0000 0.2818692625
H   H82       1.0  0.53420  0.18800  0.16860  1.0000 0.2818692625
H   H83       1.0  0.81200  0.46580  0.66860  1.0000 0.2818692625
H   H84       1.0  0.46580  0.81200  0.83140  1.0000 0.2818692625
H   H85       1.0  0.42820  0.71040  0.22940  1.0000 0.2818692625
H   H86       1.0  0.71040  0.42820  0.27060  1.0000 0.2818692625
H   H87       1.0  0.57180  0.28960  0.77060  1.0000 0.2818692625
H   H88       1.0  0.28960  0.57180  0.72940  1.0000 0.2818692625
H   H89       1.0  0.35190  0.43510  0.51300  1.0000 0.2857493721
H   H90       1.0  0.43510  0.35190  0.98700  1.0000 0.2857493721
H   H91       1.0  0.64810  0.56490  0.48700  1.0000 0.2857493721
H   H92       1.0  0.56490  0.64810  0.01300  1.0000 0.2857493721
C   C1        1.0  0.39356  0.73924  0.48020  1.0000 0.1106369805
C   C2        1.0  0.73924  0.39356  0.01980  1.0000 0.1106369805
C   C3        1.0  0.60644  0.26076  0.51980  1.0000 0.1106369805
C   C4        1.0  0.26076  0.60644  0.98020  1.0000 0.1106369805
C   C5        1.0  0.48495  0.84405  0.47070  1.0000 -0.1837449781
C   C6        1.0  0.84405  0.48495  0.02930  1.0000 -0.1837449781
C   C7        1.0  0.51505  0.15595  0.52930  1.0000 -0.1837449781
C   C8        1.0  0.15595  0.51505  0.97070  1.0000 -0.1837449781
C   C9        1.0  0.56578  0.88442  0.52962  1.0000 0.1019419177
C   C10       1.0  0.88442  0.56578  0.97038  1.0000 0.1019419177
C   C11       1.0  0.43422  0.11558  0.47038  1.0000 0.1019419177
C   C12       1.0  0.11558  0.43422  0.02962  1.0000 0.1019419177
C   C13       1.0  0.55106  0.81214  0.59598  1.0000 -0.1893236575
C   C14       1.0  0.81214  0.55106  0.90402  1.0000 -0.1893236575
C   C15       1.0  0.44894  0.18786  0.40402  1.0000 -0.1893236575
C   C16       1.0  0.18786  0.44894  0.09598  1.0000 -0.1893236575
C   C17       1.0  0.45618  0.70862  0.60130  1.0000 0.1106369805
C   C18       1.0  0.70862  0.45618  0.89870  1.0000 0.1106369805
C   C19       1.0  0.54382  0.29138  0.39870  1.0000 0.1106369805
C   C20       1.0  0.29138  0.54382  0.10130  1.0000 0.1106369805
C   C21       1.0  0.66126  0.00034  0.52309  1.0000 0.1019419177
C   C22       1.0  0.00034  0.66126  0.97691  1.0000 0.1019419177
C   C23       1.0  0.33874  0.99966  0.47691  1.0000 0.1019419177
C   C24       1.0  0.99966  0.33874  0.02309  1.0000 0.1019419177
C   C25       1.0  0.75894  0.02926  0.57790  1.0000 -0.2148132361
C   C26       1.0  0.02926  0.75894  0.92210  1.0000 -0.2148132361
C   C27       1.0  0.24106  0.97074  0.42210  1.0000 -0.2148132361
C   C28       1.0  0.97074  0.24106  0.07790  1.0000 -0.2148132361
C   C29       1.0  0.84348  0.13872  0.57100  1.0000 0.0948203467
C   C30       1.0  0.13872  0.84348  0.92900  1.0000 0.0948203467
C   C31       1.0  0.15652  0.86128  0.42900  1.0000 0.0948203467
C   C32       1.0  0.86128  0.15652  0.07100  1.0000 0.0948203467
C   C33       1.0  0.74536  0.19324  0.46120  1.0000 0.1019419177
C   C34       1.0  0.19324  0.74536  0.03880  1.0000 0.1019419177
C   C35       1.0  0.25464  0.80676  0.53880  1.0000 0.1019419177
C   C36       1.0  0.80676  0.25464  0.96120  1.0000 0.1019419177
C   C37       1.0  0.65654  0.08546  0.46370  1.0000 -0.1893236575
C   C38       1.0  0.08546  0.65654  0.03630  1.0000 -0.1893236575
C   C39       1.0  0.34346  0.91454  0.53630  1.0000 -0.1893236575
C   C40       1.0  0.91454  0.34346  0.96370  1.0000 -0.1893236575
C   C41       1.0  0.01030  0.45190  0.36321  1.0000 0.5683675371
C   C42       1.0  0.45190  0.01030  0.13679  1.0000 0.5683675371
C   C43       1.0  0.98970  0.54810  0.63679  1.0000 0.5683675371
C   C44       1.0  0.54810  0.98970  0.86321  1.0000 0.5683675371
C   C45       1.0  0.98033  0.40527  0.30444  1.0000 -0.1100219078
C   C46       1.0  0.40527  0.98033  0.19556  1.0000 -0.1100219078
C   C47       1.0  0.01967  0.59473  0.69556  1.0000 -0.1100219078
C   C48       1.0  0.59473  0.01967  0.80444  1.0000 -0.1100219078
C   C49       1.0  0.87148  0.32232  0.28430  1.0000 -0.0987243801
C   C50       1.0  0.32232  0.87148  0.21570  1.0000 -0.0987243801
C   C51       1.0  0.12852  0.67768  0.71570  1.0000 -0.0987243801
C   C52       1.0  0.67768  0.12852  0.78430  1.0000 -0.0987243801
C   C53       1.0  0.83750  0.27690  0.23020  1.0000 -0.1100219078
C   C54       1.0  0.27690  0.83750  0.26980  1.0000 -0.1100219078
C   C55       1.0  0.16250  0.72310  0.76980  1.0000 -0.1100219078
C   C56       1.0  0.72310  0.16250  0.73020  1.0000 -0.1100219078
C   C57       1.0  0.91430  0.31330  0.19620  1.0000 -0.0878241377
C   C58       1.0  0.31330  0.91430  0.30380  1.0000 -0.0878241377
C   C59       1.0  0.08570  0.68670  0.80380  1.0000 -0.0878241377
C   C60       1.0  0.68670  0.08570  0.69620  1.0000 -0.0878241377
C   C61       1.0  0.02250  0.39450  0.21510  1.0000 -0.197880242
C   C62       1.0  0.39450  0.02250  0.28490  1.0000 -0.197880242
C   C63       1.0  0.97750  0.60550  0.78490  1.0000 -0.197880242
C   C64       1.0  0.60550  0.97750  0.71510  1.0000 -0.197880242
C   C65       1.0  0.05807  0.44213  0.26920  1.0000 0.2061043642
C   C66       1.0  0.44213  0.05807  0.23080  1.0000 0.2061043642
C   C67       1.0  0.94193  0.55787  0.73080  1.0000 0.2061043642
C   C68       1.0  0.55787  0.94193  0.76920  1.0000 0.2061043642
C   C69       1.0  0.25277  0.57963  0.26000  1.0000 0.3713987954
C   C70       1.0  0.57963  0.25277  0.24000  1.0000 0.3713987954
C   C71       1.0  0.74723  0.42037  0.74000  1.0000 0.3713987954
C   C72       1.0  0.42037  0.74723  0.76000  1.0000 0.3713987954
C   C73       1.0  0.36308  0.65612  0.30340  1.0000 0.3713987954
C   C74       1.0  0.65612  0.36308  0.19660  1.0000 0.3713987954
C   C75       1.0  0.63692  0.34388  0.69660  1.0000 0.3713987954
C   C76       1.0  0.34388  0.63692  0.80340  1.0000 0.3713987954
C   C77       1.0  0.54960  0.81460  0.28690  1.0000 0.2208776809
C   C78       1.0  0.81460  0.54960  0.21310  1.0000 0.2208776809
C   C79       1.0  0.45040  0.18540  0.71310  1.0000 0.2208776809
C   C80       1.0  0.18540  0.45040  0.78690  1.0000 0.2208776809
C   C81       1.0  0.59190  0.83070  0.35440  1.0000 -0.1893236575
C   C82       1.0  0.83070  0.59190  0.14560  1.0000 -0.1893236575
C   C83       1.0  0.40810  0.16930  0.64560  1.0000 -0.1893236575
C   C84       1.0  0.16930  0.40810  0.85440  1.0000 -0.1893236575
C   C85       1.0  0.69240  0.92420  0.37110  1.0000 -0.0878241377
C   C86       1.0  0.92420  0.69240  0.12890  1.0000 -0.0878241377
C   C87       1.0  0.30760  0.07580  0.62890  1.0000 -0.0814964376
C   C88       1.0  0.07580  0.30760  0.87110  1.0000 -0.0878241377
C   C89       1.0  0.75330  0.00290  0.32020  1.0000 -0.1192278359
C   C90       1.0  0.00290  0.75330  0.17980  1.0000 -0.1192278359
C   C91       1.0  0.24670  0.99710  0.67980  1.0000 -0.1192278359
C   C92       1.0  0.99710  0.24670  0.82020  1.0000 -0.1192278359
C   C93       1.0  0.71370  0.98390  0.25460  1.0000 -0.0878241377
C   C94       1.0  0.98390  0.71370  0.24540  1.0000 -0.0878241377
C   C95       1.0  0.28630  0.01610  0.74540  1.0000 -0.0878241377
C   C96       1.0  0.01610  0.28630  0.75460  1.0000 -0.0878241377
C   C97       1.0  0.61327  0.89073  0.23613  1.0000 -0.1100219078
C   C98       1.0  0.89073  0.61327  0.26387  1.0000 -0.1100219078
C   C99       1.0  0.38673  0.10927  0.76387  1.0000 -0.1100219078
C   C100      1.0  0.10927  0.38673  0.73613  1.0000 -0.1100219078
C   C101      1.0  0.58191  0.87749  0.16387  1.0000 0.596947249
C   C102      1.0  0.87749  0.58191  0.33613  1.0000 0.596947249
C   C103      1.0  0.41809  0.12251  0.83613  1.0000 0.596947249
C   C104      1.0  0.12251  0.41809  0.66387  1.0000 0.596947249
C   C105      1.0  0.15099  0.34461  0.51030  1.0000 0.5906427168
C   C106      1.0  0.34461  0.15099  0.98970  1.0000 0.5906427168
C   C107      1.0  0.84901  0.65539  0.48970  1.0000 0.5906427168
C   C108      1.0  0.65539  0.84901  0.01030  1.0000 0.5906427168
C   C109      1.0  0.15915  0.28045  0.48130  1.0000 -0.1192278359
C   C110      1.0  0.28045  0.15915  0.01870  1.0000 -0.1192278359
C   C111      1.0  0.84085  0.71955  0.51870  1.0000 -0.1192278359
C   C112      1.0  0.71955  0.84085  0.98130  1.0000 -0.1192278359
C   C113      1.0  0.06000  0.18700  0.45990  1.0000 -0.0987243801
C   C114      1.0  0.18700  0.06000  0.04010  1.0000 -0.0987243801
C   C115      1.0  0.94000  0.81300  0.54010  1.0000 -0.0987243801
C   C116      1.0  0.81300  0.94000  0.95990  1.0000 -0.0987243801
C   C117      1.0  0.05870  0.12370  0.43060  1.0000 -0.1254769377
C   C118      1.0  0.12370  0.05870  0.06940  1.0000 -0.1254769377
C   C119      1.0  0.94130  0.87630  0.56940  1.0000 -0.1254769377
C   C120      1.0  0.87630  0.94130  0.93060  1.0000 -0.1254769377
C   C121      1.0  0.15640  0.15220  0.42360  1.0000 -0.0814964376
C   C122      1.0  0.15220  0.15640  0.07640  1.0000 -0.0814964376
C   C123      1.0  0.84360  0.84780  0.57640  1.0000 -0.0814964376
C   C124      1.0  0.84780  0.84360  0.92360  1.0000 -0.0814964376
C   C125      1.0  0.25420  0.24320  0.44320  1.0000 -0.1837449781
C   C126      1.0  0.24320  0.25420  0.05680  1.0000 -0.1837449781
C   C127      1.0  0.74580  0.75680  0.55680  1.0000 -0.1837449781
C   C128      1.0  0.75680  0.74580  0.94320  1.0000 -0.1837449781
C   C129      1.0  0.25764  0.30876  0.47220  1.0000 0.2208776809
C   C130      1.0  0.30876  0.25764  0.02780  1.0000 0.2208776809
C   C131      1.0  0.74236  0.69124  0.52780  1.0000 0.2208776809
C   C132      1.0  0.69124  0.74236  0.97220  1.0000 0.2208776809
C   C133      1.0  0.45819  0.44821  0.48550  1.0000 0.3817619644
C   C134      1.0  0.44821  0.45819  0.01450  1.0000 0.3817619644
C   C135      1.0  0.54181  0.55179  0.51450  1.0000 0.3817619644
C   C136      1.0  0.55179  0.54181  0.98550  1.0000 0.3817619644
N   N1        1.0  0.37669  0.67215  0.54453  1.0000 -0.249495212
N   N2        1.0  0.67215  0.37669  0.95547  1.0000 -0.249495212
N   N3        1.0  0.62331  0.32785  0.45547  1.0000 -0.249495212
N   N4        1.0  0.32785  0.62331  0.04453  1.0000 -0.249495212
N   N5        1.0  0.83811  0.22057  0.51454  1.0000 -0.2209986299
N   N6        1.0  0.22057  0.83811  0.98546  1.0000 -0.2209986299
N   N7        1.0  0.16189  0.77943  0.48546  1.0000 -0.2209986299
N   N8        1.0  0.77943  0.16189  0.01454  1.0000 -0.2209986299
N   N9        1.0  0.17017  0.52143  0.29164  1.0000 -0.3385982104
N   N10       1.0  0.52143  0.17017  0.20836  1.0000 -0.3385982104
N   N11       1.0  0.82983  0.47857  0.70836  1.0000 -0.3385982104
N   N12       1.0  0.47857  0.82983  0.79164  1.0000 -0.3385982104
N   N13       1.0  0.44363  0.72417  0.26826  1.0000 -0.3385982104
N   N14       1.0  0.72417  0.44363  0.23174  1.0000 -0.3385982104
N   N15       1.0  0.55637  0.27583  0.73174  1.0000 -0.3385982104
N   N16       1.0  0.27583  0.55637  0.76826  1.0000 -0.3385982104
N   N17       1.0  0.35660  0.40240  0.49290  1.0000 -0.3249707557
N   N18       1.0  0.40240  0.35660  0.00710  1.0000 -0.3249707557
N   N19       1.0  0.64340  0.59760  0.50710  1.0000 -0.3249707557
N   N20       1.0  0.59760  0.64340  0.99290  1.0000 -0.3249707557
O   O1        1.0  0.89288  0.44842  0.50687  1.0000 -0.6981154866
O   O2        1.0  0.44842  0.89288  0.99313  1.0000 -0.6981154866
O   O3        1.0  0.10712  0.55158  0.49313  1.0000 -0.6981154866
O   O4        1.0  0.55158  0.10712  0.00687  1.0000 -0.6981154866
O   O5        1.0  0.93503  0.40467  0.39473  1.0000 -0.5383640944
O   O6        1.0  0.40467  0.93503  0.10527  1.0000 -0.5383640944
O   O7        1.0  0.06497  0.59533  0.60527  1.0000 -0.5383640944
O   O8        1.0  0.59533  0.06497  0.89473  1.0000 -0.5280344881
O   O9        1.0  0.10587  0.53261  0.37821  1.0000 -0.4725129679
O   O10       1.0  0.53261  0.10587  0.12179  1.0000 -0.4725129679
O   O11       1.0  0.89413  0.46739  0.62179  1.0000 -0.4725129679
O   O12       1.0  0.46739  0.89413  0.87821  1.0000 -0.4725129679
O   O13       1.0  0.50505  0.78177  0.15156  1.0000 -0.5383640944
O   O14       1.0  0.78177  0.50505  0.34844  1.0000 -0.5383640944
O   O15       1.0  0.49495  0.21823  0.84844  1.0000 -0.5383640944
O   O16       1.0  0.21823  0.49495  0.65156  1.0000 -0.5383640944
O   O17       1.0  0.63395  0.95933  0.11912  1.0000 -0.5280344881
O   O18       1.0  0.95933  0.63395  0.38088  1.0000 -0.5280344881
O   O19       1.0  0.36605  0.04067  0.88088  1.0000 -0.5280344881
O   O20       1.0  0.04067  0.36605  0.61912  1.0000 -0.5280344881
O   O21       1.0  0.37117  0.65123  0.36302  1.0000 -0.4395340904
O   O22       1.0  0.65123  0.37117  0.13698  1.0000 -0.4395340904
O   O23       1.0  0.62883  0.34877  0.63698  1.0000 -0.4395340904
O   O24       1.0  0.34877  0.62883  0.86302  1.0000 -0.4395340904
O   O25       1.0  0.24588  0.57952  0.20202  1.0000 -0.4725129679
O   O26       1.0  0.57952  0.24588  0.29798  1.0000 -0.4725129679
O   O27       1.0  0.75412  0.42048  0.79798  1.0000 -0.4725129679
O   O28       1.0  0.42048  0.75412  0.70202  1.0000 -0.4725129679
O   O29       1.0  0.24009  0.42999  0.53071  1.0000 -0.5214689709
O   O30       1.0  0.42999  0.24009  0.96929  1.0000 -0.5214689709
O   O31       1.0  0.75991  0.57001  0.46929  1.0000 -0.5214689709
O   O32       1.0  0.57001  0.75991  0.03071  1.0000 -0.5214689709
O   O33       1.0  0.05784  0.31184  0.51352  1.0000 -0.5383640944
O   O34       1.0  0.31184  0.05784  0.98648  1.0000 -0.5383640944
O   O35       1.0  0.94216  0.68816  0.48648  1.0000 -0.5383640944
O   O36       1.0  0.68816  0.94216  0.01352  1.0000 -0.5383640944
O   O37       1.0  0.48543  0.41537  0.46030  1.0000 -0.4395340904
O   O38       1.0  0.41537  0.48543  0.03970  1.0000 -0.4395340904
O   O39       1.0  0.51457  0.58463  0.53970  1.0000 -0.4395340904
O   O40       1.0  0.58463  0.51457  0.96030  1.0000 -0.4395340904
