# DDEC6 charges by PACMAN v1.1 (https://github.com/mtap-research/PACMAN-charge/)
data_2007[Nd][nan]3[FSR]3
_chemical_formula_sum              "Nd42 H240 C240 N12 O324"
_cell_length_a       12.7819
_cell_length_b       12.7819
_cell_length_c       85.294
_cell_angle_alpha    90
_cell_angle_beta     90
_cell_angle_gamma    120

_symmetry_space_group_name_H-M    "P 1"
_symmetry_Int_Tables_number       1

loop_
  _symmetry_equiv_pos_as_xyz
  'x, y, z'

loop_
  _atom_site_type_symbol
  _atom_site_label
  _atom_site_symmetry_multiplicity
  _atom_site_fract_x
  _atom_site_fract_y
  _atom_site_fract_z
  _atom_site_occupancy
  _atom_site_charge
Nd  Nd1       1.0  0.47516  0.52484  0.91667  1.0000 2.0426929962
Nd  Nd2       1.0  0.47516  0.95032  0.25000  1.0000 2.0426929962
Nd  Nd3       1.0  0.04968  0.52484  0.58333  1.0000 2.0426929962
Nd  Nd4       1.0  0.52484  0.47516  0.41667  1.0000 2.0426929962
Nd  Nd5       1.0  0.52484  0.04968  0.75000  1.0000 2.0426929962
Nd  Nd6       1.0  0.95032  0.47516  0.08333  1.0000 2.0426929962
Nd  Nd7       1.0  0.47148  0.45832  0.99528  1.0000 2.0533340943
Nd  Nd8       1.0  0.54168  0.01316  0.32861  1.0000 2.0533340943
Nd  Nd9       1.0  0.98684  0.52852  0.66195  1.0000 2.0554122301
Nd  Nd10      1.0  0.52852  0.54168  0.49528  1.0000 2.0533340943
Nd  Nd11      1.0  0.45832  0.98684  0.82861  1.0000 2.0554122301
Nd  Nd12      1.0  0.01316  0.47148  0.16195  1.0000 2.0533340943
Nd  Nd13      1.0  0.45832  0.47148  0.33805  1.0000 2.0533340943
Nd  Nd14      1.0  0.01316  0.54168  0.00472  1.0000 2.0554122301
Nd  Nd15      1.0  0.52852  0.98684  0.67139  1.0000 2.0554122301
Nd  Nd16      1.0  0.54168  0.52852  0.83805  1.0000 2.0554122301
Nd  Nd17      1.0  0.98684  0.45832  0.50472  1.0000 2.0533340943
Nd  Nd18      1.0  0.47148  0.01316  0.17139  1.0000 2.0554122301
Nd  Nd19      1.0  0.61324  0.40872  0.95367  1.0000 2.0784217687
Nd  Nd20      1.0  0.59128  0.20452  0.28700  1.0000 2.0784217687
Nd  Nd21      1.0  0.79548  0.38676  0.62034  1.0000 2.0784217687
Nd  Nd22      1.0  0.38676  0.59128  0.45367  1.0000 2.0784217687
Nd  Nd23      1.0  0.40872  0.79548  0.78700  1.0000 2.0784217687
Nd  Nd24      1.0  0.20452  0.61324  0.12034  1.0000 2.0784217687
Nd  Nd25      1.0  0.40872  0.61324  0.37966  1.0000 2.0784217687
Nd  Nd26      1.0  0.20452  0.59128  0.04633  1.0000 2.0784217687
Nd  Nd27      1.0  0.38676  0.79548  0.71300  1.0000 2.0784217687
Nd  Nd28      1.0  0.59128  0.38676  0.87966  1.0000 2.0784217687
Nd  Nd29      1.0  0.79548  0.40872  0.54633  1.0000 2.0784217687
Nd  Nd30      1.0  0.61324  0.20452  0.21300  1.0000 2.0784217687
Nd  Nd31      1.0  0.30613  0.34102  0.04057  1.0000 2.0323996913
Nd  Nd32      1.0  0.65898  0.96511  0.37390  1.0000 2.0323996913
Nd  Nd33      1.0  0.03489  0.69387  0.70724  1.0000 2.0323996913
Nd  Nd34      1.0  0.69387  0.65898  0.54057  1.0000 2.0323996913
Nd  Nd35      1.0  0.34102  0.03489  0.87390  1.0000 2.0323996913
Nd  Nd36      1.0  0.96511  0.30613  0.20724  1.0000 2.0323996913
Nd  Nd37      1.0  0.34102  0.30613  0.29276  1.0000 2.0323996913
Nd  Nd38      1.0  0.96511  0.65898  0.95943  1.0000 2.0323996913
Nd  Nd39      1.0  0.69387  0.03489  0.62610  1.0000 2.0323996913
Nd  Nd40      1.0  0.65898  0.69387  0.79276  1.0000 2.0323996913
Nd  Nd41      1.0  0.03489  0.34102  0.45943  1.0000 2.0323996913
Nd  Nd42      1.0  0.30613  0.96511  0.12610  1.0000 2.0323996913
H   H1        1.0  0.17850  0.41570  0.96150  1.0000 0.1683572535
H   H2        1.0  0.58430  0.76280  0.29483  1.0000 0.1683572535
H   H3        1.0  0.23720  0.82150  0.62817  1.0000 0.1683572535
H   H4        1.0  0.82150  0.58430  0.46150  1.0000 0.1683572535
H   H5        1.0  0.41570  0.23720  0.79483  1.0000 0.1683572535
H   H6        1.0  0.76280  0.17850  0.12817  1.0000 0.1683572535
H   H7        1.0  0.41570  0.17850  0.37183  1.0000 0.1683572535
H   H8        1.0  0.76280  0.58430  0.03850  1.0000 0.1683572535
H   H9        1.0  0.82150  0.23720  0.70517  1.0000 0.1683572535
H   H10       1.0  0.58430  0.82150  0.87183  1.0000 0.1683572535
H   H11       1.0  0.23720  0.41570  0.53850  1.0000 0.1683572535
H   H12       1.0  0.17850  0.76280  0.20517  1.0000 0.1683572535
H   H13       1.0  0.20600  0.53220  0.95210  1.0000 0.1593021286
H   H14       1.0  0.46780  0.67380  0.28543  1.0000 0.1593021286
H   H15       1.0  0.32620  0.79400  0.61877  1.0000 0.1593021286
H   H16       1.0  0.79400  0.46780  0.45210  1.0000 0.1593021286
H   H17       1.0  0.53220  0.32620  0.78543  1.0000 0.1593021286
H   H18       1.0  0.67380  0.20600  0.11877  1.0000 0.1593021286
H   H19       1.0  0.53220  0.20600  0.38123  1.0000 0.1593021286
H   H20       1.0  0.67380  0.46780  0.04790  1.0000 0.1593021286
H   H21       1.0  0.79400  0.32620  0.71457  1.0000 0.1593021286
H   H22       1.0  0.46780  0.79400  0.88123  1.0000 0.1593021286
H   H23       1.0  0.32620  0.53220  0.54790  1.0000 0.1593021286
H   H24       1.0  0.20600  0.67380  0.21457  1.0000 0.1593021286
H   H25       1.0  0.36720  0.73460  0.96900  1.0000 0.1593021286
H   H26       1.0  0.26540  0.63260  0.30233  1.0000 0.1593021286
H   H27       1.0  0.36740  0.63280  0.63567  1.0000 0.1593021286
H   H28       1.0  0.63280  0.26540  0.46900  1.0000 0.1593021286
H   H29       1.0  0.73460  0.36740  0.80233  1.0000 0.1593021286
H   H30       1.0  0.63260  0.36720  0.13567  1.0000 0.1593021286
H   H31       1.0  0.73460  0.36720  0.36433  1.0000 0.1593021286
H   H32       1.0  0.63260  0.26540  0.03100  1.0000 0.1593021286
H   H33       1.0  0.63280  0.36740  0.69767  1.0000 0.1593021286
H   H34       1.0  0.26540  0.63280  0.86433  1.0000 0.1593021286
H   H35       1.0  0.36740  0.73460  0.53100  1.0000 0.1593021286
H   H36       1.0  0.36720  0.63260  0.19767  1.0000 0.1593021286
H   H37       1.0  0.42230  0.71720  0.95340  1.0000 0.1492433486
H   H38       1.0  0.28280  0.70510  0.28673  1.0000 0.1492433486
H   H39       1.0  0.29490  0.57770  0.62007  1.0000 0.1492433486
H   H40       1.0  0.57770  0.28280  0.45340  1.0000 0.1492433486
H   H41       1.0  0.71720  0.29490  0.78673  1.0000 0.1492433486
H   H42       1.0  0.70510  0.42230  0.12007  1.0000 0.1492433486
H   H43       1.0  0.71720  0.42230  0.37993  1.0000 0.1492433486
H   H44       1.0  0.70510  0.28280  0.04660  1.0000 0.1492433486
H   H45       1.0  0.57770  0.29490  0.71327  1.0000 0.1492433486
H   H46       1.0  0.28280  0.57770  0.87993  1.0000 0.1492433486
H   H47       1.0  0.29490  0.71720  0.54660  1.0000 0.1492433486
H   H48       1.0  0.42230  0.70510  0.21327  1.0000 0.1492433486
H   H49       1.0  0.49030  0.73550  0.96940  1.0000 0.1593021286
H   H50       1.0  0.26450  0.75480  0.30273  1.0000 0.1593021286
H   H51       1.0  0.24520  0.50970  0.63607  1.0000 0.1593021286
H   H52       1.0  0.50970  0.26450  0.46940  1.0000 0.1593021286
H   H53       1.0  0.73550  0.24520  0.80273  1.0000 0.1593021286
H   H54       1.0  0.75480  0.49030  0.13607  1.0000 0.1593021286
H   H55       1.0  0.73550  0.49030  0.36393  1.0000 0.1593021286
H   H56       1.0  0.75480  0.26450  0.03060  1.0000 0.1593021286
H   H57       1.0  0.50970  0.24520  0.69727  1.0000 0.1593021286
H   H58       1.0  0.26450  0.50970  0.86393  1.0000 0.1593021286
H   H59       1.0  0.24520  0.73550  0.53060  1.0000 0.1593021286
H   H60       1.0  0.49030  0.75480  0.19727  1.0000 0.1593021286
H   H61       1.0  0.90500  0.72860  0.90780  1.0000 0.1781535502
H   H62       1.0  0.27140  0.17640  0.24113  1.0000 0.1781535502
H   H63       1.0  0.82360  0.09500  0.57447  1.0000 0.1781535502
H   H64       1.0  0.09500  0.27140  0.40780  1.0000 0.1781535502
H   H65       1.0  0.72860  0.82360  0.74113  1.0000 0.1781535502
H   H66       1.0  0.17640  0.90500  0.07447  1.0000 0.1781535502
H   H67       1.0  0.72860  0.90500  0.42553  1.0000 0.1781535502
H   H68       1.0  0.17640  0.27140  0.09220  1.0000 0.1781535502
H   H69       1.0  0.09500  0.82360  0.75887  1.0000 0.1781535502
H   H70       1.0  0.27140  0.09500  0.92553  1.0000 0.1781535502
H   H71       1.0  0.82360  0.72860  0.59220  1.0000 0.1781535502
H   H72       1.0  0.90500  0.17640  0.25887  1.0000 0.1781535502
H   H73       1.0  0.84900  0.79130  0.89780  1.0000 0.1781535502
H   H74       1.0  0.20870  0.05770  0.23113  1.0000 0.1781535502
H   H75       1.0  0.94230  0.15100  0.56447  1.0000 0.1781535502
H   H76       1.0  0.15100  0.20870  0.39780  1.0000 0.1781535502
H   H77       1.0  0.79130  0.94230  0.73113  1.0000 0.1781535502
H   H78       1.0  0.05770  0.84900  0.06447  1.0000 0.1781535502
H   H79       1.0  0.79130  0.84900  0.43553  1.0000 0.1781535502
H   H80       1.0  0.05770  0.20870  0.10220  1.0000 0.1781535502
H   H81       1.0  0.15100  0.94230  0.76887  1.0000 0.1781535502
H   H82       1.0  0.20870  0.15100  0.93553  1.0000 0.1781535502
H   H83       1.0  0.94230  0.79130  0.60220  1.0000 0.1781535502
H   H84       1.0  0.84900  0.05770  0.26887  1.0000 0.1781535502
H   H85       1.0  0.86430  0.93000  0.91970  1.0000 0.1593021286
H   H86       1.0  0.07000  0.93430  0.25303  1.0000 0.1593021286
H   H87       1.0  0.06570  0.13570  0.58637  1.0000 0.1593021286
H   H88       1.0  0.13570  0.07000  0.41970  1.0000 0.1593021286
H   H89       1.0  0.93000  0.06570  0.75303  1.0000 0.1593021286
H   H90       1.0  0.93430  0.86430  0.08637  1.0000 0.1593021286
H   H91       1.0  0.93000  0.86430  0.41363  1.0000 0.1593021286
H   H92       1.0  0.93430  0.07000  0.08030  1.0000 0.1593021286
H   H93       1.0  0.13570  0.06570  0.74697  1.0000 0.1593021286
H   H94       1.0  0.07000  0.13570  0.91363  1.0000 0.1593021286
H   H95       1.0  0.06570  0.93000  0.58030  1.0000 0.1593021286
H   H96       1.0  0.86430  0.93430  0.24697  1.0000 0.1593021286
H   H97       1.0  0.93540  0.87830  0.92880  1.0000 0.1683572535
H   H98       1.0  0.12170  0.05710  0.26213  1.0000 0.1683572535
H   H99       1.0  0.94290  0.06460  0.59547  1.0000 0.1683572535
H   H100      1.0  0.06460  0.12170  0.42880  1.0000 0.1683572535
H   H101      1.0  0.87830  0.94290  0.76213  1.0000 0.1683572535
H   H102      1.0  0.05710  0.93540  0.09547  1.0000 0.1683572535
H   H103      1.0  0.87830  0.93540  0.40453  1.0000 0.1683572535
H   H104      1.0  0.05710  0.12170  0.07120  1.0000 0.1683572535
H   H105      1.0  0.06460  0.94290  0.73787  1.0000 0.1683572535
H   H106      1.0  0.12170  0.06460  0.90453  1.0000 0.1683572535
H   H107      1.0  0.94290  0.87830  0.57120  1.0000 0.1683572535
H   H108      1.0  0.93540  0.05710  0.23787  1.0000 0.1683572535
H   H109      1.0  0.82230  0.87460  0.93650  1.0000 0.1683572535
H   H110      1.0  0.12540  0.94770  0.26983  1.0000 0.1683572535
H   H111      1.0  0.05230  0.17770  0.60317  1.0000 0.1683572535
H   H112      1.0  0.17770  0.12540  0.43650  1.0000 0.1683572535
H   H113      1.0  0.87460  0.05230  0.76983  1.0000 0.1683572535
H   H114      1.0  0.94770  0.82230  0.10317  1.0000 0.1683572535
H   H115      1.0  0.87460  0.82230  0.39683  1.0000 0.1683572535
H   H116      1.0  0.94770  0.12540  0.06350  1.0000 0.1683572535
H   H117      1.0  0.17770  0.05230  0.73017  1.0000 0.1683572535
H   H118      1.0  0.12540  0.17770  0.89683  1.0000 0.1683572535
H   H119      1.0  0.05230  0.87460  0.56350  1.0000 0.1683572535
H   H120      1.0  0.82230  0.94770  0.23017  1.0000 0.1683572535
H   H121      1.0  0.06830  0.10750  0.00280  1.0000 0.1683572535
H   H122      1.0  0.89250  0.96080  0.33613  1.0000 0.1683572535
H   H123      1.0  0.03920  0.93170  0.66947  1.0000 0.1683572535
H   H124      1.0  0.93170  0.89250  0.50280  1.0000 0.1683572535
H   H125      1.0  0.10750  0.03920  0.83613  1.0000 0.1683572535
H   H126      1.0  0.96080  0.06830  0.16947  1.0000 0.1683572535
H   H127      1.0  0.10750  0.06830  0.33053  1.0000 0.1683572535
H   H128      1.0  0.96080  0.89250  0.99720  1.0000 0.1683572535
H   H129      1.0  0.93170  0.03920  0.66387  1.0000 0.1683572535
H   H130      1.0  0.89250  0.93170  0.83053  1.0000 0.1683572535
H   H131      1.0  0.03920  0.10750  0.49720  1.0000 0.1683572535
H   H132      1.0  0.06830  0.96080  0.16387  1.0000 0.1683572535
H   H133      1.0  0.04100  0.20560  0.99630  1.0000 0.1683572535
H   H134      1.0  0.79440  0.83540  0.32963  1.0000 0.1683572535
H   H135      1.0  0.16460  0.95900  0.66297  1.0000 0.1683572535
H   H136      1.0  0.95900  0.79440  0.49630  1.0000 0.1683572535
H   H137      1.0  0.20560  0.16460  0.82963  1.0000 0.1683572535
H   H138      1.0  0.83540  0.04100  0.16297  1.0000 0.1683572535
H   H139      1.0  0.20560  0.04100  0.33703  1.0000 0.1683572535
H   H140      1.0  0.83540  0.79440  0.00370  1.0000 0.1683572535
H   H141      1.0  0.95900  0.16460  0.67037  1.0000 0.1683572535
H   H142      1.0  0.79440  0.95900  0.83703  1.0000 0.1683572535
H   H143      1.0  0.16460  0.20560  0.50370  1.0000 0.1683572535
H   H144      1.0  0.04100  0.83540  0.17037  1.0000 0.1683572535
H   H145      1.0  0.89000  0.03030  0.02170  1.0000 0.1593021286
H   H146      1.0  0.96970  0.85970  0.35503  1.0000 0.1593021286
H   H147      1.0  0.14030  0.11000  0.68837  1.0000 0.1593021286
H   H148      1.0  0.11000  0.96970  0.52170  1.0000 0.1593021286
H   H149      1.0  0.03030  0.14030  0.85503  1.0000 0.1593021286
H   H150      1.0  0.85970  0.89000  0.18837  1.0000 0.1593021286
H   H151      1.0  0.03030  0.89000  0.31163  1.0000 0.1593021286
H   H152      1.0  0.85970  0.96970  0.97830  1.0000 0.1593021286
H   H153      1.0  0.11000  0.14030  0.64497  1.0000 0.1593021286
H   H154      1.0  0.96970  0.11000  0.81163  1.0000 0.1593021286
H   H155      1.0  0.14030  0.03030  0.47830  1.0000 0.1593021286
H   H156      1.0  0.89000  0.85970  0.14497  1.0000 0.1593021286
H   H157      1.0  0.86220  0.12290  0.01330  1.0000 0.1492433486
H   H158      1.0  0.87710  0.73930  0.34663  1.0000 0.1492433486
H   H159      1.0  0.26070  0.13780  0.67997  1.0000 0.1492433486
H   H160      1.0  0.13780  0.87710  0.51330  1.0000 0.1492433486
H   H161      1.0  0.12290  0.26070  0.84663  1.0000 0.1492433486
H   H162      1.0  0.73930  0.86220  0.17997  1.0000 0.1492433486
H   H163      1.0  0.12290  0.86220  0.32003  1.0000 0.1492433486
H   H164      1.0  0.73930  0.87710  0.98670  1.0000 0.1492433486
H   H165      1.0  0.13780  0.26070  0.65337  1.0000 0.1492433486
H   H166      1.0  0.87710  0.13780  0.82003  1.0000 0.1492433486
H   H167      1.0  0.26070  0.12290  0.48670  1.0000 0.1492433486
H   H168      1.0  0.86220  0.73930  0.15337  1.0000 0.1492433486
H   H169      1.0  0.87500  0.12530  0.03160  1.0000 0.1593021286
H   H170      1.0  0.87470  0.74970  0.36493  1.0000 0.1593021286
H   H171      1.0  0.25030  0.12500  0.69827  1.0000 0.1593021286
H   H172      1.0  0.12500  0.87470  0.53160  1.0000 0.1593021286
H   H173      1.0  0.12530  0.25030  0.86493  1.0000 0.1593021286
H   H174      1.0  0.74970  0.87500  0.19827  1.0000 0.1593021286
H   H175      1.0  0.12530  0.87500  0.30173  1.0000 0.1593021286
H   H176      1.0  0.74970  0.87470  0.96840  1.0000 0.1593021286
H   H177      1.0  0.12500  0.25030  0.63507  1.0000 0.1593021286
H   H178      1.0  0.87470  0.12500  0.80173  1.0000 0.1593021286
H   H179      1.0  0.25030  0.12530  0.46840  1.0000 0.1593021286
H   H180      1.0  0.87500  0.74970  0.13507  1.0000 0.1593021286
H   H181      1.0  0.54260  0.11960  0.98850  1.0000 0.1781535502
H   H182      1.0  0.88040  0.42300  0.32183  1.0000 0.1781535502
H   H183      1.0  0.57700  0.45740  0.65517  1.0000 0.1781535502
H   H184      1.0  0.45740  0.88040  0.48850  1.0000 0.1781535502
H   H185      1.0  0.11960  0.57700  0.82183  1.0000 0.1781535502
H   H186      1.0  0.42300  0.54260  0.15517  1.0000 0.1781535502
H   H187      1.0  0.11960  0.54260  0.34483  1.0000 0.1781535502
H   H188      1.0  0.42300  0.88040  0.01150  1.0000 0.1781535502
H   H189      1.0  0.45740  0.57700  0.67817  1.0000 0.1781535502
H   H190      1.0  0.88040  0.45740  0.84483  1.0000 0.1781535502
H   H191      1.0  0.57700  0.11960  0.51150  1.0000 0.1781535502
H   H192      1.0  0.54260  0.42300  0.17817  1.0000 0.1781535502
H   H193      1.0  0.65230  0.21040  0.99880  1.0000 0.1781535502
H   H194      1.0  0.78960  0.44190  0.33213  1.0000 0.1781535502
H   H195      1.0  0.55810  0.34770  0.66547  1.0000 0.1781535502
H   H196      1.0  0.34770  0.78960  0.49880  1.0000 0.1781535502
H   H197      1.0  0.21040  0.55810  0.83213  1.0000 0.1781535502
H   H198      1.0  0.44190  0.65230  0.16547  1.0000 0.1781535502
H   H199      1.0  0.21040  0.65230  0.33453  1.0000 0.1781535502
H   H200      1.0  0.44190  0.78960  0.00120  1.0000 0.1781535502
H   H201      1.0  0.34770  0.55810  0.66787  1.0000 0.1781535502
H   H202      1.0  0.78960  0.34770  0.83453  1.0000 0.1781535502
H   H203      1.0  0.55810  0.21040  0.50120  1.0000 0.1781535502
H   H204      1.0  0.65230  0.44190  0.16787  1.0000 0.1781535502
H   H205      1.0  0.67660  0.06710  0.97270  1.0000 0.1492433486
H   H206      1.0  0.93290  0.60950  0.30603  1.0000 0.1492433486
H   H207      1.0  0.39050  0.32340  0.63937  1.0000 0.1492433486
H   H208      1.0  0.32340  0.93290  0.47270  1.0000 0.1492433486
H   H209      1.0  0.06710  0.39050  0.80603  1.0000 0.1492433486
H   H210      1.0  0.60950  0.67660  0.13937  1.0000 0.1492433486
H   H211      1.0  0.06710  0.67660  0.36063  1.0000 0.1492433486
H   H212      1.0  0.60950  0.93290  0.02730  1.0000 0.1492433486
H   H213      1.0  0.32340  0.39050  0.69397  1.0000 0.1492433486
H   H214      1.0  0.93290  0.32340  0.86063  1.0000 0.1492433486
H   H215      1.0  0.39050  0.06710  0.52730  1.0000 0.1492433486
H   H216      1.0  0.67660  0.60950  0.19397  1.0000 0.1492433486
H   H217      1.0  0.77580  0.14910  0.98490  1.0000 0.1492433486
H   H218      1.0  0.85090  0.62670  0.31823  1.0000 0.1492433486
H   H219      1.0  0.37330  0.22420  0.65157  1.0000 0.1492433486
H   H220      1.0  0.22420  0.85090  0.48490  1.0000 0.1492433486
H   H221      1.0  0.14910  0.37330  0.81823  1.0000 0.1492433486
H   H222      1.0  0.62670  0.77580  0.15157  1.0000 0.1492433486
H   H223      1.0  0.14910  0.77580  0.34843  1.0000 0.1492433486
H   H224      1.0  0.62670  0.85090  0.01510  1.0000 0.1492433486
H   H225      1.0  0.22420  0.37330  0.68177  1.0000 0.1492433486
H   H226      1.0  0.85090  0.22420  0.84843  1.0000 0.1492433486
H   H227      1.0  0.37330  0.14910  0.51510  1.0000 0.1492433486
H   H228      1.0  0.77580  0.62670  0.18177  1.0000 0.1492433486
H   H229      1.0  0.80240  0.17070  0.96690  1.0000 0.1593021286
H   H230      1.0  0.82930  0.63170  0.30023  1.0000 0.1593021286
H   H231      1.0  0.36830  0.19760  0.63357  1.0000 0.1593021286
H   H232      1.0  0.19760  0.82930  0.46690  1.0000 0.1593021286
H   H233      1.0  0.17070  0.36830  0.80023  1.0000 0.1593021286
H   H234      1.0  0.63170  0.80240  0.13357  1.0000 0.1593021286
H   H235      1.0  0.17070  0.80240  0.36643  1.0000 0.1593021286
H   H236      1.0  0.63170  0.82930  0.03310  1.0000 0.1593021286
H   H237      1.0  0.19760  0.36830  0.69977  1.0000 0.1593021286
H   H238      1.0  0.82930  0.19760  0.86643  1.0000 0.1593021286
H   H239      1.0  0.36830  0.17070  0.53310  1.0000 0.1593021286
H   H240      1.0  0.80240  0.63170  0.19977  1.0000 0.1593021286
C   C1        1.0  0.34320  0.56130  0.96713  1.0000 0.2740363977
C   C2        1.0  0.43870  0.78190  0.30046  1.0000 0.2756548098
C   C3        1.0  0.21810  0.65680  0.63380  1.0000 0.2740363977
C   C4        1.0  0.65680  0.43870  0.46713  1.0000 0.2740363977
C   C5        1.0  0.56130  0.21810  0.80046  1.0000 0.2740363977
C   C6        1.0  0.78190  0.34320  0.13380  1.0000 0.2756548098
C   C7        1.0  0.56130  0.34320  0.36620  1.0000 0.2756548098
C   C8        1.0  0.78190  0.43870  0.03287  1.0000 0.2756548098
C   C9        1.0  0.65680  0.21810  0.69954  1.0000 0.2740363977
C   C10       1.0  0.43870  0.65680  0.86620  1.0000 0.2740363977
C   C11       1.0  0.21810  0.56130  0.53287  1.0000 0.2740363977
C   C12       1.0  0.34320  0.78190  0.19954  1.0000 0.2756548098
C   C13       1.0  0.40570  0.50530  0.95738  1.0000 0.6024873427
C   C14       1.0  0.49470  0.90040  0.29071  1.0000 0.6024873427
C   C15       1.0  0.09960  0.59430  0.62405  1.0000 0.6024873427
C   C16       1.0  0.59430  0.49470  0.45738  1.0000 0.6024873427
C   C17       1.0  0.50530  0.09960  0.79071  1.0000 0.6024873427
C   C18       1.0  0.90040  0.40570  0.12405  1.0000 0.6024873427
C   C19       1.0  0.50530  0.40570  0.37595  1.0000 0.6024873427
C   C20       1.0  0.90040  0.49470  0.04262  1.0000 0.6024873427
C   C21       1.0  0.59430  0.09960  0.70929  1.0000 0.6024873427
C   C22       1.0  0.49470  0.59430  0.87595  1.0000 0.6024873427
C   C23       1.0  0.09960  0.50530  0.54262  1.0000 0.6024873427
C   C24       1.0  0.40570  0.90040  0.20929  1.0000 0.6024873427
C   C25       1.0  0.21200  0.50240  0.96233  1.0000 -0.4000895358
C   C26       1.0  0.49760  0.70960  0.29566  1.0000 -0.4000895358
C   C27       1.0  0.29040  0.78800  0.62900  1.0000 -0.4000895358
C   C28       1.0  0.78800  0.49760  0.46233  1.0000 -0.4000895358
C   C29       1.0  0.50240  0.29040  0.79566  1.0000 -0.4000895358
C   C30       1.0  0.70960  0.21200  0.12900  1.0000 -0.4000895358
C   C31       1.0  0.50240  0.21200  0.37100  1.0000 -0.4000895358
C   C32       1.0  0.70960  0.49760  0.03767  1.0000 -0.4000895358
C   C33       1.0  0.78800  0.29040  0.70434  1.0000 -0.4000895358
C   C34       1.0  0.49760  0.78800  0.87100  1.0000 -0.4000895358
C   C35       1.0  0.29040  0.50240  0.53767  1.0000 -0.4000895358
C   C36       1.0  0.21200  0.70960  0.20434  1.0000 -0.4000895358
C   C37       1.0  0.61010  0.47060  0.02573  1.0000 0.7079013707
C   C38       1.0  0.52940  0.13950  0.35906  1.0000 0.7079013707
C   C39       1.0  0.86050  0.38990  0.69240  1.0000 0.7079013707
C   C40       1.0  0.38990  0.52940  0.52573  1.0000 0.7079013707
C   C41       1.0  0.47060  0.86050  0.85906  1.0000 0.7079013707
C   C42       1.0  0.13950  0.61010  0.19240  1.0000 0.7079013707
C   C43       1.0  0.47060  0.61010  0.30760  1.0000 0.7079013707
C   C44       1.0  0.13950  0.52940  0.97427  1.0000 0.7079013707
C   C45       1.0  0.38990  0.86050  0.64094  1.0000 0.7079013707
C   C46       1.0  0.52940  0.38990  0.80760  1.0000 0.7079013707
C   C47       1.0  0.86050  0.47060  0.47427  1.0000 0.7079013707
C   C48       1.0  0.61010  0.13950  0.14094  1.0000 0.7079013707
C   C49       1.0  0.41240  0.70050  0.96447  1.0000 -0.4640312869
C   C50       1.0  0.29950  0.71190  0.29780  1.0000 -0.4640312869
C   C51       1.0  0.28810  0.58760  0.63114  1.0000 -0.4640312869
C   C52       1.0  0.58760  0.29950  0.46447  1.0000 -0.4640312869
C   C53       1.0  0.70050  0.28810  0.79780  1.0000 -0.4640312869
C   C54       1.0  0.71190  0.41240  0.13114  1.0000 -0.4640312869
C   C55       1.0  0.70050  0.41240  0.36886  1.0000 -0.4640312869
C   C56       1.0  0.71190  0.29950  0.03553  1.0000 -0.4640312869
C   C57       1.0  0.58760  0.28810  0.70220  1.0000 -0.4640312869
C   C58       1.0  0.29950  0.58760  0.86886  1.0000 -0.4640312869
C   C59       1.0  0.28810  0.70050  0.53553  1.0000 -0.4640312869
C   C60       1.0  0.41240  0.71190  0.20220  1.0000 -0.4640312869
C   C61       1.0  0.77720  0.74690  0.91972  1.0000 0.2740363977
C   C62       1.0  0.25310  0.03030  0.25305  1.0000 0.2740363977
C   C63       1.0  0.96970  0.22280  0.58639  1.0000 0.2740363977
C   C64       1.0  0.22280  0.25310  0.41972  1.0000 0.2740363977
C   C65       1.0  0.74690  0.96970  0.75305  1.0000 0.2740363977
C   C66       1.0  0.03030  0.77720  0.08639  1.0000 0.2740363977
C   C67       1.0  0.74690  0.77720  0.41361  1.0000 0.2740363977
C   C68       1.0  0.03030  0.25310  0.08028  1.0000 0.2740363977
C   C69       1.0  0.22280  0.96970  0.74695  1.0000 0.2740363977
C   C70       1.0  0.25310  0.22280  0.91361  1.0000 0.2740363977
C   C71       1.0  0.96970  0.74690  0.58028  1.0000 0.2740363977
C   C72       1.0  0.77720  0.03030  0.24695  1.0000 0.2740363977
C   C73       1.0  0.74790  0.64530  0.93195  1.0000 0.5869865389
C   C74       1.0  0.35470  0.10260  0.26528  1.0000 0.5869865389
C   C75       1.0  0.89740  0.25210  0.59862  1.0000 0.5869865389
C   C76       1.0  0.25210  0.35470  0.43195  1.0000 0.5869865389
C   C77       1.0  0.64530  0.89740  0.76528  1.0000 0.5869865389
C   C78       1.0  0.10260  0.74790  0.09862  1.0000 0.5869865389
C   C79       1.0  0.64530  0.74790  0.40138  1.0000 0.5869865389
C   C80       1.0  0.10260  0.35470  0.06805  1.0000 0.5869865389
C   C81       1.0  0.25210  0.89740  0.73472  1.0000 0.5869865389
C   C82       1.0  0.35470  0.25210  0.90138  1.0000 0.5869865389
C   C83       1.0  0.89740  0.64530  0.56805  1.0000 0.5869865389
C   C84       1.0  0.74790  0.10260  0.23472  1.0000 0.5869865389
C   C85       1.0  0.82990  0.72590  0.90509  1.0000 -0.411206622
C   C86       1.0  0.27410  0.10400  0.23842  1.0000 -0.411206622
C   C87       1.0  0.89600  0.17010  0.57176  1.0000 -0.411206622
C   C88       1.0  0.17010  0.27410  0.40509  1.0000 -0.411206622
C   C89       1.0  0.72590  0.89600  0.73842  1.0000 -0.411206622
C   C90       1.0  0.10400  0.82990  0.07176  1.0000 -0.411206622
C   C91       1.0  0.72590  0.82990  0.42824  1.0000 -0.411206622
C   C92       1.0  0.10400  0.27410  0.09491  1.0000 -0.411206622
C   C93       1.0  0.17010  0.89600  0.76158  1.0000 -0.411206622
C   C94       1.0  0.27410  0.17010  0.92824  1.0000 -0.411206622
C   C95       1.0  0.89600  0.72590  0.59491  1.0000 -0.411206622
C   C96       1.0  0.82990  0.10400  0.26158  1.0000 -0.411206622
C   C97       1.0  0.74850  0.60780  0.89702  1.0000 0.6796044356
C   C98       1.0  0.39220  0.14070  0.23035  1.0000 0.6796044356
C   C99       1.0  0.85930  0.25150  0.56369  1.0000 0.6796044356
C   C100      1.0  0.25150  0.39220  0.39702  1.0000 0.6796044356
C   C101      1.0  0.60780  0.85930  0.73035  1.0000 0.6796044356
C   C102      1.0  0.14070  0.74850  0.06369  1.0000 0.6796044356
C   C103      1.0  0.60780  0.74850  0.43631  1.0000 0.6796044356
C   C104      1.0  0.14070  0.39220  0.10298  1.0000 0.6796044356
C   C105      1.0  0.25150  0.85930  0.76965  1.0000 0.6796044356
C   C106      1.0  0.39220  0.25150  0.93631  1.0000 0.6796044356
C   C107      1.0  0.85930  0.60780  0.60298  1.0000 0.6796044356
C   C108      1.0  0.74850  0.14070  0.26965  1.0000 0.6796044356
C   C109      1.0  0.85690  0.86830  0.92682  1.0000 -0.4706618913
C   C110      1.0  0.13170  0.98860  0.26015  1.0000 -0.4706618913
C   C111      1.0  0.01140  0.14310  0.59349  1.0000 -0.4706618913
C   C112      1.0  0.14310  0.13170  0.42682  1.0000 -0.4706618913
C   C113      1.0  0.86830  0.01140  0.76015  1.0000 -0.4706618913
C   C114      1.0  0.98860  0.85690  0.09349  1.0000 -0.4706618913
C   C115      1.0  0.86830  0.85690  0.40651  1.0000 -0.4706618913
C   C116      1.0  0.98860  0.13170  0.07318  1.0000 -0.4706618913
C   C117      1.0  0.14310  0.01140  0.73985  1.0000 -0.4706618913
C   C118      1.0  0.13170  0.14310  0.90651  1.0000 -0.4706618913
C   C119      1.0  0.01140  0.86830  0.57318  1.0000 -0.4706618913
C   C120      1.0  0.85690  0.98860  0.23985  1.0000 -0.4706618913
C   C121      1.0  0.03680  0.19870  0.02040  1.0000 0.2895492188
C   C122      1.0  0.80130  0.83810  0.35373  1.0000 0.2895492188
C   C123      1.0  0.16190  0.96320  0.68707  1.0000 0.2895492188
C   C124      1.0  0.96320  0.80130  0.52040  1.0000 0.2895492188
C   C125      1.0  0.19870  0.16190  0.85373  1.0000 0.2895492188
C   C126      1.0  0.83810  0.03680  0.18707  1.0000 0.2895492188
C   C127      1.0  0.19870  0.03680  0.31293  1.0000 0.2895492188
C   C128      1.0  0.83810  0.80130  0.97960  1.0000 0.2895492188
C   C129      1.0  0.96320  0.16190  0.64627  1.0000 0.2895492188
C   C130      1.0  0.80130  0.96320  0.81293  1.0000 0.2895492188
C   C131      1.0  0.16190  0.19870  0.47960  1.0000 0.2895492188
C   C132      1.0  0.03680  0.83810  0.14627  1.0000 0.2895492188
C   C133      1.0  0.72910  0.66840  0.97709  1.0000 0.6236551078
C   C134      1.0  0.33160  0.06070  0.31042  1.0000 0.6236551078
C   C135      1.0  0.93930  0.27090  0.64376  1.0000 0.6236551078
C   C136      1.0  0.27090  0.33160  0.47709  1.0000 0.6236551078
C   C137      1.0  0.66840  0.93930  0.81042  1.0000 0.6236551078
C   C138      1.0  0.06070  0.72910  0.14376  1.0000 0.6236551078
C   C139      1.0  0.66840  0.72910  0.35624  1.0000 0.6236551078
C   C140      1.0  0.06070  0.33160  0.02291  1.0000 0.6236551078
C   C141      1.0  0.27090  0.93930  0.68958  1.0000 0.6236551078
C   C142      1.0  0.33160  0.27090  0.85624  1.0000 0.6236551078
C   C143      1.0  0.93930  0.66840  0.52291  1.0000 0.6236551078
C   C144      1.0  0.72910  0.06070  0.18958  1.0000 0.6236551078
C   C145      1.0  0.08560  0.19000  0.00423  1.0000 -0.411206622
C   C146      1.0  0.81000  0.89560  0.33756  1.0000 -0.411206622
C   C147      1.0  0.10440  0.91440  0.67090  1.0000 -0.411206622
C   C148      1.0  0.91440  0.81000  0.50423  1.0000 -0.411206622
C   C149      1.0  0.19000  0.10440  0.83756  1.0000 -0.411206622
C   C150      1.0  0.89560  0.08560  0.17090  1.0000 -0.411206622
C   C151      1.0  0.19000  0.08560  0.32910  1.0000 -0.411206622
C   C152      1.0  0.89560  0.81000  0.99577  1.0000 -0.411206622
C   C153      1.0  0.91440  0.10440  0.66244  1.0000 -0.411206622
C   C154      1.0  0.81000  0.91440  0.82910  1.0000 -0.411206622
C   C155      1.0  0.10440  0.19000  0.49577  1.0000 -0.411206622
C   C156      1.0  0.08560  0.89560  0.16244  1.0000 -0.411206622
C   C157      1.0  0.21690  0.27220  0.00137  1.0000 0.6614311806
C   C158      1.0  0.72780  0.94470  0.33470  1.0000 0.6614311806
C   C159      1.0  0.05530  0.78310  0.66804  1.0000 0.6614311806
C   C160      1.0  0.78310  0.72780  0.50137  1.0000 0.6614311806
C   C161      1.0  0.27220  0.05530  0.83470  1.0000 0.6614311806
C   C162      1.0  0.94470  0.21690  0.16804  1.0000 0.6614311806
C   C163      1.0  0.27220  0.21690  0.33196  1.0000 0.6614311806
C   C164      1.0  0.94470  0.72780  0.99863  1.0000 0.6614311806
C   C165      1.0  0.78310  0.05530  0.66530  1.0000 0.6614311806
C   C166      1.0  0.72780  0.78310  0.83196  1.0000 0.6614311806
C   C167      1.0  0.05530  0.27220  0.49863  1.0000 0.6614311806
C   C168      1.0  0.21690  0.94470  0.16530  1.0000 0.6614311806
C   C169      1.0  0.90410  0.11150  0.02186  1.0000 -0.4933358906
C   C170      1.0  0.88850  0.79260  0.35519  1.0000 -0.4933358906
C   C171      1.0  0.20740  0.09590  0.68853  1.0000 -0.4933358906
C   C172      1.0  0.09590  0.88850  0.52186  1.0000 -0.4933358906
C   C173      1.0  0.11150  0.20740  0.85519  1.0000 -0.4933358906
C   C174      1.0  0.79260  0.90410  0.18853  1.0000 -0.4933358906
C   C175      1.0  0.11150  0.90410  0.31147  1.0000 -0.4933358906
C   C176      1.0  0.79260  0.88850  0.97814  1.0000 -0.4933358906
C   C177      1.0  0.09590  0.20740  0.64481  1.0000 -0.4933358906
C   C178      1.0  0.88850  0.09590  0.81147  1.0000 -0.4933358906
C   C179      1.0  0.20740  0.11150  0.47814  1.0000 -0.4933358906
C   C180      1.0  0.90410  0.79260  0.14481  1.0000 -0.4933358906
C   C181      1.0  0.69250  0.23620  0.97481  1.0000 0.2644454141
C   C182      1.0  0.76380  0.45630  0.30814  1.0000 0.2644454141
C   C183      1.0  0.54370  0.30750  0.64148  1.0000 0.2644454141
C   C184      1.0  0.30750  0.76380  0.47481  1.0000 0.2644454141
C   C185      1.0  0.23620  0.54370  0.80814  1.0000 0.2644454141
C   C186      1.0  0.45630  0.69250  0.14148  1.0000 0.2644454141
C   C187      1.0  0.23620  0.69250  0.35852  1.0000 0.2644454141
C   C188      1.0  0.45630  0.76380  0.02519  1.0000 0.2740363977
C   C189      1.0  0.30750  0.54370  0.69186  1.0000 0.2644454141
C   C190      1.0  0.76380  0.30750  0.85852  1.0000 0.2644454141
C   C191      1.0  0.54370  0.23620  0.52519  1.0000 0.2644454141
C   C192      1.0  0.69250  0.45630  0.19186  1.0000 0.2644454141
C   C193      1.0  0.79920  0.36560  0.97565  1.0000 0.6118694168
C   C194      1.0  0.63440  0.43360  0.30898  1.0000 0.6118694168
C   C195      1.0  0.56640  0.20080  0.64232  1.0000 0.6118694168
C   C196      1.0  0.20080  0.63440  0.47565  1.0000 0.6118694168
C   C197      1.0  0.36560  0.56640  0.80898  1.0000 0.6118694168
C   C198      1.0  0.43360  0.79920  0.14232  1.0000 0.6118694168
C   C199      1.0  0.36560  0.79920  0.35768  1.0000 0.6118694168
C   C200      1.0  0.43360  0.63440  0.02435  1.0000 0.6118694168
C   C201      1.0  0.20080  0.56640  0.69102  1.0000 0.6118694168
C   C202      1.0  0.63440  0.20080  0.85768  1.0000 0.6118694168
C   C203      1.0  0.56640  0.36560  0.52435  1.0000 0.6118694168
C   C204      1.0  0.79920  0.43360  0.19102  1.0000 0.6118694168
C   C205      1.0  0.60680  0.20300  0.98940  1.0000 -0.4216966508
C   C206      1.0  0.79700  0.40380  0.32273  1.0000 -0.4216966508
C   C207      1.0  0.59620  0.39320  0.65607  1.0000 -0.4216966508
C   C208      1.0  0.39320  0.79700  0.48940  1.0000 -0.4216966508
C   C209      1.0  0.20300  0.59620  0.82273  1.0000 -0.4216966508
C   C210      1.0  0.40380  0.60680  0.15607  1.0000 -0.4216966508
C   C211      1.0  0.20300  0.60680  0.34393  1.0000 -0.4216966508
C   C212      1.0  0.40380  0.79700  0.01060  1.0000 -0.4216966508
C   C213      1.0  0.39320  0.59620  0.67727  1.0000 -0.4216966508
C   C214      1.0  0.79700  0.39320  0.84393  1.0000 -0.4216966508
C   C215      1.0  0.59620  0.20300  0.51060  1.0000 -0.4216966508
C   C216      1.0  0.60680  0.40380  0.17727  1.0000 -0.4216966508
C   C217      1.0  0.55330  0.28110  0.99076  1.0000 0.6796044356
C   C218      1.0  0.71890  0.27220  0.32409  1.0000 0.6796044356
C   C219      1.0  0.72780  0.44670  0.65743  1.0000 0.6796044356
C   C220      1.0  0.44670  0.71890  0.49076  1.0000 0.6796044356
C   C221      1.0  0.28110  0.72780  0.82409  1.0000 0.6796044356
C   C222      1.0  0.27220  0.55330  0.15743  1.0000 0.6796044356
C   C223      1.0  0.28110  0.55330  0.34257  1.0000 0.6796044356
C   C224      1.0  0.27220  0.71890  0.00924  1.0000 0.6796044356
C   C225      1.0  0.44670  0.72780  0.67591  1.0000 0.6796044356
C   C226      1.0  0.71890  0.44670  0.84257  1.0000 0.6796044356
C   C227      1.0  0.72780  0.28110  0.50924  1.0000 0.6796044356
C   C228      1.0  0.55330  0.27220  0.17591  1.0000 0.6796044356
C   C229      1.0  0.74140  0.14740  0.97484  1.0000 -0.4706618913
C   C230      1.0  0.85260  0.59400  0.30817  1.0000 -0.4706618913
C   C231      1.0  0.40600  0.25860  0.64151  1.0000 -0.4706618913
C   C232      1.0  0.25860  0.85260  0.47484  1.0000 -0.4706618913
C   C233      1.0  0.14740  0.40600  0.80817  1.0000 -0.4706618913
C   C234      1.0  0.59400  0.74140  0.14151  1.0000 -0.4706618913
C   C235      1.0  0.14740  0.74140  0.35849  1.0000 -0.4706618913
C   C236      1.0  0.59400  0.85260  0.02516  1.0000 -0.4706618913
C   C237      1.0  0.25860  0.40600  0.69183  1.0000 -0.4706618913
C   C238      1.0  0.85260  0.25860  0.85849  1.0000 -0.4706618913
C   C239      1.0  0.40600  0.14740  0.52516  1.0000 -0.4706618913
C   C240      1.0  0.74140  0.59400  0.19183  1.0000 -0.4706618913
N   N1        1.0  0.33760  0.16780  0.06140  1.0000 0.6654612493
N   N2        1.0  0.83220  0.16980  0.39473  1.0000 0.6654612493
N   N3        1.0  0.83020  0.66240  0.72807  1.0000 0.6654612493
N   N4        1.0  0.66240  0.83220  0.56140  1.0000 0.6654612493
N   N5        1.0  0.16780  0.83020  0.89473  1.0000 0.6654612493
N   N6        1.0  0.16980  0.33760  0.22807  1.0000 0.6654612493
N   N7        1.0  0.16780  0.33760  0.27193  1.0000 0.6654612493
N   N8        1.0  0.16980  0.83220  0.93860  1.0000 0.6654612493
N   N9        1.0  0.66240  0.83020  0.60527  1.0000 0.6654612493
N   N10       1.0  0.83220  0.66240  0.77193  1.0000 0.6654612493
N   N11       1.0  0.83020  0.16780  0.43860  1.0000 0.6654612493
N   N12       1.0  0.33760  0.16980  0.10527  1.0000 0.6654612493
O   O1        1.0  0.35450  0.54020  0.98346  1.0000 -0.4640312869
O   O2        1.0  0.45980  0.81430  0.31679  1.0000 -0.4640312869
O   O3        1.0  0.18570  0.64550  0.65013  1.0000 -0.4640312869
O   O4        1.0  0.64550  0.45980  0.48346  1.0000 -0.4640312869
O   O5        1.0  0.54020  0.18570  0.81679  1.0000 -0.4640312869
O   O6        1.0  0.81430  0.35450  0.15013  1.0000 -0.4640312869
O   O7        1.0  0.54020  0.35450  0.34987  1.0000 -0.4640312869
O   O8        1.0  0.81430  0.45980  0.01654  1.0000 -0.4640312869
O   O9        1.0  0.64550  0.18570  0.68321  1.0000 -0.4640312869
O   O10       1.0  0.45980  0.64550  0.84987  1.0000 -0.4640312869
O   O11       1.0  0.18570  0.54020  0.51654  1.0000 -0.4640312869
O   O12       1.0  0.35450  0.81430  0.18321  1.0000 -0.4640312869
O   O13       1.0  0.46000  0.46150  0.96486  1.0000 -0.671383103
O   O14       1.0  0.53850  0.99850  0.29819  1.0000 -0.671383103
O   O15       1.0  0.00150  0.54000  0.63153  1.0000 -0.671383103
O   O16       1.0  0.54000  0.53850  0.46486  1.0000 -0.671383103
O   O17       1.0  0.46150  0.00150  0.79819  1.0000 -0.671383103
O   O18       1.0  0.99850  0.46000  0.13153  1.0000 -0.671383103
O   O19       1.0  0.46150  0.46000  0.36847  1.0000 -0.671383103
O   O20       1.0  0.99850  0.53850  0.03514  1.0000 -0.671383103
O   O21       1.0  0.54000  0.00150  0.70181  1.0000 -0.671383103
O   O22       1.0  0.53850  0.54000  0.86847  1.0000 -0.671383103
O   O23       1.0  0.00150  0.46150  0.53514  1.0000 -0.671383103
O   O24       1.0  0.46000  0.99850  0.20181  1.0000 -0.671383103
O   O25       1.0  0.40030  0.51520  0.94316  1.0000 -0.5852390506
O   O26       1.0  0.48480  0.88510  0.27649  1.0000 -0.5852390506
O   O27       1.0  0.11490  0.59970  0.60983  1.0000 -0.5852390506
O   O28       1.0  0.59970  0.48480  0.44316  1.0000 -0.5809320594
O   O29       1.0  0.51520  0.11490  0.77649  1.0000 -0.5809320594
O   O30       1.0  0.88510  0.40030  0.10983  1.0000 -0.5809320594
O   O31       1.0  0.51520  0.40030  0.39017  1.0000 -0.5809320594
O   O32       1.0  0.88510  0.48480  0.05684  1.0000 -0.5809320594
O   O33       1.0  0.59970  0.11490  0.72351  1.0000 -0.5809320594
O   O34       1.0  0.48480  0.59970  0.89017  1.0000 -0.5809320594
O   O35       1.0  0.11490  0.51520  0.55684  1.0000 -0.5852390506
O   O36       1.0  0.40030  0.88510  0.22351  1.0000 -0.5852390506
O   O37       1.0  0.64970  0.50960  0.01153  1.0000 -0.5809320594
O   O38       1.0  0.49040  0.14010  0.34486  1.0000 -0.5809320594
O   O39       1.0  0.85990  0.35030  0.67820  1.0000 -0.5852390506
O   O40       1.0  0.35030  0.49040  0.51153  1.0000 -0.5809320594
O   O41       1.0  0.50960  0.85990  0.84486  1.0000 -0.5809320594
O   O42       1.0  0.14010  0.64970  0.17820  1.0000 -0.5809320594
O   O43       1.0  0.50960  0.64970  0.32180  1.0000 -0.5809320594
O   O44       1.0  0.14010  0.49040  0.98847  1.0000 -0.5809320594
O   O45       1.0  0.35030  0.85990  0.65514  1.0000 -0.5852390506
O   O46       1.0  0.49040  0.35030  0.82180  1.0000 -0.5852390506
O   O47       1.0  0.85990  0.50960  0.48847  1.0000 -0.5809320594
O   O48       1.0  0.64970  0.14010  0.15514  1.0000 -0.5809320594
O   O49       1.0  0.50320  0.42930  0.02901  1.0000 -0.67755313
O   O50       1.0  0.57070  0.07390  0.36234  1.0000 -0.67755313
O   O51       1.0  0.92610  0.49680  0.69568  1.0000 -0.67755313
O   O52       1.0  0.49680  0.57070  0.52901  1.0000 -0.67755313
O   O53       1.0  0.42930  0.92610  0.86234  1.0000 -0.67755313
O   O54       1.0  0.07390  0.50320  0.19568  1.0000 -0.67755313
O   O55       1.0  0.42930  0.50320  0.30432  1.0000 -0.67755313
O   O56       1.0  0.07390  0.57070  0.97099  1.0000 -0.67755313
O   O57       1.0  0.49680  0.92610  0.63766  1.0000 -0.67755313
O   O58       1.0  0.57070  0.49680  0.80432  1.0000 -0.67755313
O   O59       1.0  0.92610  0.42930  0.47099  1.0000 -0.67755313
O   O60       1.0  0.50320  0.07390  0.13766  1.0000 -0.67755313
O   O61       1.0  0.65860  0.73190  0.91604  1.0000 -0.5363685427
O   O62       1.0  0.26810  0.92670  0.24937  1.0000 -0.5363685427
O   O63       1.0  0.07330  0.34140  0.58271  1.0000 -0.5363685427
O   O64       1.0  0.34140  0.26810  0.41604  1.0000 -0.5363685427
O   O65       1.0  0.73190  0.07330  0.74937  1.0000 -0.5363685427
O   O66       1.0  0.92670  0.65860  0.08271  1.0000 -0.5363685427
O   O67       1.0  0.73190  0.65860  0.41729  1.0000 -0.5363685427
O   O68       1.0  0.92670  0.26810  0.08396  1.0000 -0.5363685427
O   O69       1.0  0.34140  0.07330  0.75063  1.0000 -0.5363685427
O   O70       1.0  0.26810  0.34140  0.91729  1.0000 -0.5363685427
O   O71       1.0  0.07330  0.73190  0.58396  1.0000 -0.5363685427
O   O72       1.0  0.65860  0.92670  0.25063  1.0000 -0.5363685427
O   O73       1.0  0.64380  0.57690  0.93616  1.0000 -0.6540027785
O   O74       1.0  0.42310  0.06690  0.26949  1.0000 -0.6540027785
O   O75       1.0  0.93310  0.35620  0.60283  1.0000 -0.6540027785
O   O76       1.0  0.35620  0.42310  0.43616  1.0000 -0.6540027785
O   O77       1.0  0.57690  0.93310  0.76949  1.0000 -0.6540027785
O   O78       1.0  0.06690  0.64380  0.10283  1.0000 -0.6540027785
O   O79       1.0  0.57690  0.64380  0.39717  1.0000 -0.6540027785
O   O80       1.0  0.06690  0.42310  0.06384  1.0000 -0.6540027785
O   O81       1.0  0.35620  0.93310  0.73051  1.0000 -0.6540027785
O   O82       1.0  0.42310  0.35620  0.89717  1.0000 -0.6540027785
O   O83       1.0  0.93310  0.57690  0.56384  1.0000 -0.6540027785
O   O84       1.0  0.64380  0.06690  0.23051  1.0000 -0.6540027785
O   O85       1.0  0.20050  0.35950  0.06291  1.0000 -0.6263082602
O   O86       1.0  0.64050  0.84100  0.39624  1.0000 -0.6263082602
O   O87       1.0  0.15900  0.79950  0.72958  1.0000 -0.6263082602
O   O88       1.0  0.79950  0.64050  0.56291  1.0000 -0.6263082602
O   O89       1.0  0.35950  0.15900  0.89624  1.0000 -0.6249881216
O   O90       1.0  0.84100  0.20050  0.22958  1.0000 -0.6249881216
O   O91       1.0  0.35950  0.20050  0.27042  1.0000 -0.6249881216
O   O92       1.0  0.84100  0.64050  0.93709  1.0000 -0.6263082602
O   O93       1.0  0.79950  0.15900  0.60376  1.0000 -0.6249881216
O   O94       1.0  0.64050  0.79950  0.77042  1.0000 -0.6263082602
O   O95       1.0  0.15900  0.35950  0.43709  1.0000 -0.6263082602
O   O96       1.0  0.20050  0.84100  0.10376  1.0000 -0.6263082602
O   O97       1.0  0.65260  0.52460  0.90338  1.0000 -0.6915820803
O   O98       1.0  0.47540  0.12800  0.23671  1.0000 -0.6915820803
O   O99       1.0  0.87200  0.34740  0.57005  1.0000 -0.6915820803
O   O100      1.0  0.34740  0.47540  0.40338  1.0000 -0.6915820803
O   O101      1.0  0.52460  0.87200  0.73671  1.0000 -0.6915820803
O   O102      1.0  0.12800  0.65260  0.07005  1.0000 -0.6915820803
O   O103      1.0  0.52460  0.65260  0.42995  1.0000 -0.6915820803
O   O104      1.0  0.12800  0.47540  0.09662  1.0000 -0.6915820803
O   O105      1.0  0.34740  0.87200  0.76329  1.0000 -0.6915820803
O   O106      1.0  0.47540  0.34740  0.92995  1.0000 -0.6915820803
O   O107      1.0  0.87200  0.52460  0.59662  1.0000 -0.6915820803
O   O108      1.0  0.65260  0.12800  0.26329  1.0000 -0.6915820803
O   O109      1.0  0.41230  0.22330  0.94993  1.0000 -0.6135451077
O   O110      1.0  0.77670  0.18900  0.28326  1.0000 -0.6135451077
O   O111      1.0  0.81100  0.58770  0.61660  1.0000 -0.6135451077
O   O112      1.0  0.58770  0.77670  0.44993  1.0000 -0.6135451077
O   O113      1.0  0.22330  0.81100  0.78326  1.0000 -0.6135451077
O   O114      1.0  0.18900  0.41230  0.11660  1.0000 -0.6135451077
O   O115      1.0  0.22330  0.41230  0.38340  1.0000 -0.6135451077
O   O116      1.0  0.18900  0.77670  0.05007  1.0000 -0.6135451077
O   O117      1.0  0.58770  0.81100  0.71674  1.0000 -0.6135451077
O   O118      1.0  0.77670  0.58770  0.88340  1.0000 -0.6135451077
O   O119      1.0  0.81100  0.22330  0.55007  1.0000 -0.6135451077
O   O120      1.0  0.41230  0.18900  0.21674  1.0000 -0.6135451077
O   O121      1.0  0.10060  0.17690  0.03270  1.0000 -0.5118152179
O   O122      1.0  0.82310  0.92370  0.36603  1.0000 -0.5118152179
O   O123      1.0  0.07630  0.89940  0.69937  1.0000 -0.5118152179
O   O124      1.0  0.89940  0.82310  0.53270  1.0000 -0.5118152179
O   O125      1.0  0.17690  0.07630  0.86603  1.0000 -0.5118152179
O   O126      1.0  0.92370  0.10060  0.19937  1.0000 -0.5118152179
O   O127      1.0  0.17690  0.10060  0.30063  1.0000 -0.5118152179
O   O128      1.0  0.92370  0.82310  0.96730  1.0000 -0.5118152179
O   O129      1.0  0.89940  0.07630  0.63397  1.0000 -0.5118152179
O   O130      1.0  0.82310  0.89940  0.80063  1.0000 -0.5118152179
O   O131      1.0  0.07630  0.17690  0.46730  1.0000 -0.5118152179
O   O132      1.0  0.10060  0.92370  0.13397  1.0000 -0.5118152179
O   O133      1.0  0.63910  0.63760  0.98539  1.0000 -0.5809320594
O   O134      1.0  0.36240  0.00150  0.31872  1.0000 -0.5809320594
O   O135      1.0  0.99850  0.36090  0.65206  1.0000 -0.5809320594
O   O136      1.0  0.36090  0.36240  0.48539  1.0000 -0.5809320594
O   O137      1.0  0.63760  0.99850  0.81872  1.0000 -0.5809320594
O   O138      1.0  0.00150  0.63910  0.15206  1.0000 -0.5809320594
O   O139      1.0  0.63760  0.63910  0.34794  1.0000 -0.5809320594
O   O140      1.0  0.00150  0.36240  0.01461  1.0000 -0.5809320594
O   O141      1.0  0.36090  0.99850  0.68128  1.0000 -0.5809320594
O   O142      1.0  0.36240  0.36090  0.84794  1.0000 -0.5809320594
O   O143      1.0  0.99850  0.63760  0.51461  1.0000 -0.5809320594
O   O144      1.0  0.63910  0.00150  0.18128  1.0000 -0.5809320594
O   O145      1.0  0.74430  0.60650  0.96673  1.0000 -0.6915820803
O   O146      1.0  0.39350  0.13780  0.30006  1.0000 -0.6915820803
O   O147      1.0  0.86220  0.25570  0.63340  1.0000 -0.6915820803
O   O148      1.0  0.25570  0.39350  0.46673  1.0000 -0.6915820803
O   O149      1.0  0.60650  0.86220  0.80006  1.0000 -0.6915820803
O   O150      1.0  0.13780  0.74430  0.13340  1.0000 -0.6915820803
O   O151      1.0  0.60650  0.74430  0.36660  1.0000 -0.6915820803
O   O152      1.0  0.13780  0.39350  0.03327  1.0000 -0.6915820803
O   O153      1.0  0.25570  0.86220  0.69994  1.0000 -0.6915820803
O   O154      1.0  0.39350  0.25570  0.86660  1.0000 -0.6915820803
O   O155      1.0  0.86220  0.60650  0.53327  1.0000 -0.6915820803
O   O156      1.0  0.74430  0.13780  0.19994  1.0000 -0.6915820803
O   O157      1.0  0.28290  0.35370  0.01160  1.0000 -0.6915820803
O   O158      1.0  0.64630  0.92920  0.34493  1.0000 -0.6915820803
O   O159      1.0  0.07080  0.71710  0.67827  1.0000 -0.6915820803
O   O160      1.0  0.71710  0.64630  0.51160  1.0000 -0.6915820803
O   O161      1.0  0.35370  0.07080  0.84493  1.0000 -0.6915820803
O   O162      1.0  0.92920  0.28290  0.17827  1.0000 -0.6915820803
O   O163      1.0  0.35370  0.28290  0.32173  1.0000 -0.6915820803
O   O164      1.0  0.92920  0.64630  0.98840  1.0000 -0.6915820803
O   O165      1.0  0.71710  0.07080  0.65507  1.0000 -0.6915820803
O   O166      1.0  0.64630  0.71710  0.82173  1.0000 -0.6915820803
O   O167      1.0  0.07080  0.35370  0.48840  1.0000 -0.6915820803
O   O168      1.0  0.28290  0.92920  0.15507  1.0000 -0.6915820803
O   O169      1.0  0.26190  0.27180  0.98869  1.0000 -0.5237208494
O   O170      1.0  0.72820  0.99010  0.32202  1.0000 -0.5237208494
O   O171      1.0  0.00990  0.73810  0.65536  1.0000 -0.5287686217
O   O172      1.0  0.73810  0.72820  0.48869  1.0000 -0.5287686217
O   O173      1.0  0.27180  0.00990  0.82202  1.0000 -0.5237208494
O   O174      1.0  0.99010  0.26190  0.15536  1.0000 -0.5237208494
O   O175      1.0  0.27180  0.26190  0.34464  1.0000 -0.5237208494
O   O176      1.0  0.99010  0.72820  0.01131  1.0000 -0.5287686217
O   O177      1.0  0.73810  0.00990  0.67798  1.0000 -0.5237208494
O   O178      1.0  0.72820  0.73810  0.84464  1.0000 -0.5237208494
O   O179      1.0  0.00990  0.27180  0.51131  1.0000 -0.5237208494
O   O180      1.0  0.26190  0.99010  0.17798  1.0000 -0.5287686217
O   O181      1.0  0.62390  0.22480  0.96086  1.0000 -0.5363685427
O   O182      1.0  0.77520  0.39910  0.29419  1.0000 -0.5287686217
O   O183      1.0  0.60090  0.37610  0.62753  1.0000 -0.5363685427
O   O184      1.0  0.37610  0.77520  0.46086  1.0000 -0.5363685427
O   O185      1.0  0.22480  0.60090  0.79419  1.0000 -0.5363685427
O   O186      1.0  0.39910  0.62390  0.12753  1.0000 -0.5363685427
O   O187      1.0  0.22480  0.62390  0.37247  1.0000 -0.5363685427
O   O188      1.0  0.39910  0.77520  0.03914  1.0000 -0.5363685427
O   O189      1.0  0.37610  0.60090  0.70581  1.0000 -0.5363685427
O   O190      1.0  0.77520  0.37610  0.87247  1.0000 -0.5363685427
O   O191      1.0  0.60090  0.22480  0.53914  1.0000 -0.5363685427
O   O192      1.0  0.62390  0.39910  0.20581  1.0000 -0.5287686217
O   O193      1.0  0.81000  0.43900  0.96474  1.0000 -0.671383103
O   O194      1.0  0.56100  0.37100  0.29807  1.0000 -0.671383103
O   O195      1.0  0.62900  0.19000  0.63141  1.0000 -0.671383103
O   O196      1.0  0.19000  0.56100  0.46474  1.0000 -0.671383103
O   O197      1.0  0.43900  0.62900  0.79807  1.0000 -0.671383103
O   O198      1.0  0.37100  0.81000  0.13141  1.0000 -0.671383103
O   O199      1.0  0.43900  0.81000  0.36859  1.0000 -0.671383103
O   O200      1.0  0.37100  0.56100  0.03526  1.0000 -0.671383103
O   O201      1.0  0.19000  0.62900  0.70193  1.0000 -0.671383103
O   O202      1.0  0.56100  0.19000  0.86859  1.0000 -0.671383103
O   O203      1.0  0.62900  0.43900  0.53526  1.0000 -0.671383103
O   O204      1.0  0.81000  0.37100  0.20193  1.0000 -0.671383103
O   O205      1.0  0.47630  0.61060  0.01272  1.0000 -0.5706537096
O   O206      1.0  0.38940  0.86570  0.34605  1.0000 -0.5706537096
O   O207      1.0  0.13430  0.52370  0.67939  1.0000 -0.5706537096
O   O208      1.0  0.52370  0.38940  0.51272  1.0000 -0.5706537096
O   O209      1.0  0.61060  0.13430  0.84605  1.0000 -0.5706537096
O   O210      1.0  0.86570  0.47630  0.17939  1.0000 -0.5706537096
O   O211      1.0  0.61060  0.47630  0.32061  1.0000 -0.5706537096
O   O212      1.0  0.86570  0.38940  0.98728  1.0000 -0.5706537096
O   O213      1.0  0.52370  0.13430  0.65395  1.0000 -0.5706537096
O   O214      1.0  0.38940  0.52370  0.82061  1.0000 -0.5706537096
O   O215      1.0  0.13430  0.61060  0.48728  1.0000 -0.5706537096
O   O216      1.0  0.47630  0.86570  0.15395  1.0000 -0.5706537096
O   O217      1.0  0.57680  0.36430  0.98129  1.0000 -0.6915820803
O   O218      1.0  0.63570  0.21250  0.31462  1.0000 -0.6915820803
O   O219      1.0  0.78750  0.42320  0.64796  1.0000 -0.6915820803
O   O220      1.0  0.42320  0.63570  0.48129  1.0000 -0.6915820803
O   O221      1.0  0.36430  0.78750  0.81462  1.0000 -0.6915820803
O   O222      1.0  0.21250  0.57680  0.14796  1.0000 -0.6915820803
O   O223      1.0  0.36430  0.57680  0.35204  1.0000 -0.6915820803
O   O224      1.0  0.21250  0.63570  0.01871  1.0000 -0.6915820803
O   O225      1.0  0.42320  0.78750  0.68538  1.0000 -0.6915820803
O   O226      1.0  0.63570  0.42320  0.85204  1.0000 -0.6915820803
O   O227      1.0  0.78750  0.36430  0.51871  1.0000 -0.6915820803
O   O228      1.0  0.57680  0.21250  0.18538  1.0000 -0.6915820803
O   O229      1.0  0.48240  0.26520  0.00216  1.0000 -0.5237208494
O   O230      1.0  0.73480  0.21720  0.33549  1.0000 -0.5237208494
O   O231      1.0  0.78280  0.51760  0.66883  1.0000 -0.5237208494
O   O232      1.0  0.51760  0.73480  0.50216  1.0000 -0.5237208494
O   O233      1.0  0.26520  0.78280  0.83549  1.0000 -0.5237208494
O   O234      1.0  0.21720  0.48240  0.16883  1.0000 -0.5237208494
O   O235      1.0  0.26520  0.48240  0.33117  1.0000 -0.5237208494
O   O236      1.0  0.21720  0.73480  0.99784  1.0000 -0.5237208494
O   O237      1.0  0.51760  0.78280  0.66451  1.0000 -0.5237208494
O   O238      1.0  0.73480  0.51760  0.83117  1.0000 -0.5237208494
O   O239      1.0  0.78280  0.26520  0.49784  1.0000 -0.5237208494
O   O240      1.0  0.48240  0.21720  0.16451  1.0000 -0.5237208494
O   O241      1.0  0.28990  0.56010  0.91306  1.0000 -0.2249884584
O   O242      1.0  0.43990  0.72980  0.24639  1.0000 -0.239772761
O   O243      1.0  0.27020  0.71010  0.57973  1.0000 -0.239772761
O   O244      1.0  0.71010  0.43990  0.41306  1.0000 -0.239772761
O   O245      1.0  0.56010  0.27020  0.74639  1.0000 -0.239772761
O   O246      1.0  0.72980  0.28990  0.07973  1.0000 -0.239772761
O   O247      1.0  0.56010  0.28990  0.42027  1.0000 -0.239772761
O   O248      1.0  0.72980  0.43990  0.08694  1.0000 -0.239772761
O   O249      1.0  0.71010  0.27020  0.75361  1.0000 -0.2284410822
O   O250      1.0  0.43990  0.71010  0.92027  1.0000 -0.239772761
O   O251      1.0  0.27020  0.56010  0.58694  1.0000 -0.2284410822
O   O252      1.0  0.28990  0.72980  0.25361  1.0000 -0.2284410822
O   O253      1.0  0.71450  0.36860  0.93164  1.0000 -0.087826378
O   O254      1.0  0.63140  0.34590  0.26497  1.0000 -0.087826378
O   O255      1.0  0.65410  0.28550  0.59831  1.0000 -0.087826378
O   O256      1.0  0.28550  0.63140  0.43164  1.0000 -0.087826378
O   O257      1.0  0.36860  0.65410  0.76497  1.0000 -0.087826378
O   O258      1.0  0.34590  0.71450  0.09831  1.0000 -0.087826378
O   O259      1.0  0.36860  0.71450  0.40169  1.0000 -0.087826378
O   O260      1.0  0.34590  0.63140  0.06836  1.0000 -0.087826378
O   O261      1.0  0.28550  0.65410  0.73503  1.0000 -0.087826378
O   O262      1.0  0.63140  0.28550  0.90169  1.0000 -0.087826378
O   O263      1.0  0.65410  0.36860  0.56836  1.0000 -0.087826378
O   O264      1.0  0.71450  0.34590  0.23503  1.0000 -0.087826378
O   O265      1.0  0.45170  0.49330  0.06151  1.0000 -0.096332475
O   O266      1.0  0.50670  0.95840  0.39484  1.0000 -0.096332475
O   O267      1.0  0.04160  0.54830  0.72818  1.0000 -0.096332475
O   O268      1.0  0.54830  0.50670  0.56151  1.0000 -0.087826378
O   O269      1.0  0.49330  0.04160  0.89484  1.0000 -0.096332475
O   O270      1.0  0.95840  0.45170  0.22818  1.0000 -0.096332475
O   O271      1.0  0.49330  0.45170  0.27182  1.0000 -0.096332475
O   O272      1.0  0.95840  0.50670  0.93849  1.0000 -0.087826378
O   O273      1.0  0.54830  0.04160  0.60516  1.0000 -0.096332475
O   O274      1.0  0.50670  0.54830  0.77182  1.0000 -0.096332475
O   O275      1.0  0.04160  0.49330  0.43849  1.0000 -0.087826378
O   O276      1.0  0.45170  0.95840  0.10516  1.0000 -0.096332475
O   O277      1.0  0.32430  0.17300  0.02690  1.0000 -0.1920682779
O   O278      1.0  0.82700  0.15130  0.36023  1.0000 -0.1920682779
O   O279      1.0  0.84870  0.67570  0.69357  1.0000 -0.1920682779
O   O280      1.0  0.67570  0.82700  0.52690  1.0000 -0.1920682779
O   O281      1.0  0.17300  0.84870  0.86023  1.0000 -0.1920682779
O   O282      1.0  0.15130  0.32430  0.19357  1.0000 -0.1920682779
O   O283      1.0  0.17300  0.32430  0.30643  1.0000 -0.1920682779
O   O284      1.0  0.15130  0.82700  0.97310  1.0000 -0.1920682779
O   O285      1.0  0.67570  0.84870  0.63977  1.0000 -0.1920682779
O   O286      1.0  0.82700  0.67570  0.80643  1.0000 -0.1920682779
O   O287      1.0  0.84870  0.17300  0.47310  1.0000 -0.1920682779
O   O288      1.0  0.32430  0.15130  0.13977  1.0000 -0.1920682779
O   O289      1.0  0.42650  0.26710  0.05811  1.0000 -0.4000895358
O   O290      1.0  0.73290  0.15940  0.39144  1.0000 -0.4000895358
O   O291      1.0  0.84060  0.57350  0.72478  1.0000 -0.4000895358
O   O292      1.0  0.57350  0.73290  0.55811  1.0000 -0.4000895358
O   O293      1.0  0.26710  0.84060  0.89144  1.0000 -0.4000895358
O   O294      1.0  0.15940  0.42650  0.22478  1.0000 -0.4000895358
O   O295      1.0  0.26710  0.42650  0.27522  1.0000 -0.4000895358
O   O296      1.0  0.15940  0.73290  0.94189  1.0000 -0.4000895358
O   O297      1.0  0.57350  0.84060  0.60856  1.0000 -0.4000895358
O   O298      1.0  0.73290  0.57350  0.77522  1.0000 -0.4000895358
O   O299      1.0  0.84060  0.26710  0.44189  1.0000 -0.4000895358
O   O300      1.0  0.42650  0.15940  0.10856  1.0000 -0.4000895358
O   O301      1.0  0.23850  0.15380  0.05822  1.0000 -0.4000895358
O   O302      1.0  0.84620  0.08470  0.39155  1.0000 -0.4000895358
O   O303      1.0  0.91530  0.76150  0.72489  1.0000 -0.4000895358
O   O304      1.0  0.76150  0.84620  0.55822  1.0000 -0.4000895358
O   O305      1.0  0.15380  0.91530  0.89155  1.0000 -0.4000895358
O   O306      1.0  0.08470  0.23850  0.22489  1.0000 -0.4000895358
O   O307      1.0  0.15380  0.23850  0.27511  1.0000 -0.4000895358
O   O308      1.0  0.08470  0.84620  0.94178  1.0000 -0.4000895358
O   O309      1.0  0.76150  0.91530  0.60845  1.0000 -0.4000895358
O   O310      1.0  0.84620  0.76150  0.77511  1.0000 -0.4000895358
O   O311      1.0  0.91530  0.15380  0.44178  1.0000 -0.4000895358
O   O312      1.0  0.23850  0.08470  0.10845  1.0000 -0.4000895358
O   O313      1.0  0.34710  0.09400  0.07000  1.0000 -0.3298678923
O   O314      1.0  0.90600  0.25310  0.40333  1.0000 -0.3298678923
O   O315      1.0  0.74690  0.65290  0.73667  1.0000 -0.3298678923
O   O316      1.0  0.65290  0.90600  0.57000  1.0000 -0.3298678923
O   O317      1.0  0.09400  0.74690  0.90333  1.0000 -0.3298678923
O   O318      1.0  0.25310  0.34710  0.23667  1.0000 -0.3298678923
O   O319      1.0  0.09400  0.34710  0.26333  1.0000 -0.3298678923
O   O320      1.0  0.25310  0.90600  0.93000  1.0000 -0.3298678923
O   O321      1.0  0.65290  0.74690  0.59667  1.0000 -0.3298678923
O   O322      1.0  0.90600  0.65290  0.76333  1.0000 -0.3298678923
O   O323      1.0  0.74690  0.09400  0.43000  1.0000 -0.3298678923
O   O324      1.0  0.34710  0.25310  0.09667  1.0000 -0.3298678923
