# DDEC6 charges by PACMAN v1.1 (https://github.com/mtap-research/PACMAN-charge/)
data_2007[Fe][dia]3[FSR]17
_chemical_formula_sum              "Fe12 H24 C24 O48"
_cell_length_a       11.3416
_cell_length_b       9.8058
_cell_length_c       18.2631
_cell_angle_alpha    90
_cell_angle_beta     127.184
_cell_angle_gamma    90

_symmetry_space_group_name_H-M    "P 1"
_symmetry_Int_Tables_number       1

loop_
  _symmetry_equiv_pos_as_xyz
  'x, y, z'

loop_
  _atom_site_type_symbol
  _atom_site_label
  _atom_site_symmetry_multiplicity
  _atom_site_fract_x
  _atom_site_fract_y
  _atom_site_fract_z
  _atom_site_occupancy
  _atom_site_charge
Fe  Fe1       1.0  0.62430  0.91673  0.86836  1.0000 0.900451582
Fe  Fe2       1.0  0.37570  0.41673  0.63164  1.0000 0.900451582
Fe  Fe3       1.0  0.37570  0.08327  0.13164  1.0000 0.900451582
Fe  Fe4       1.0  0.62430  0.58327  0.36836  1.0000 0.900451582
Fe  Fe5       1.0  0.57509  0.89820  0.31424  1.0000 0.900451582
Fe  Fe6       1.0  0.42491  0.39820  0.18576  1.0000 0.900451582
Fe  Fe7       1.0  0.42491  0.10180  0.68576  1.0000 0.900451582
Fe  Fe8       1.0  0.57509  0.60180  0.81424  1.0000 0.900451582
Fe  Fe9       1.0  0.50000  0.00000  0.00000  1.0000 0.9341907615
Fe  Fe10      1.0  0.50000  0.50000  0.50000  1.0000 0.9341907615
Fe  Fe11      1.0  0.00000  0.00000  0.00000  1.0000 0.9536148721
Fe  Fe12      1.0  1.00000  0.50000  0.50000  1.0000 0.9536148721
H   H1        1.0  0.49830  0.74550  0.63400  1.0000 0.1130384539
H   H2        1.0  0.50170  0.24550  0.86600  1.0000 0.1130384539
H   H3        1.0  0.50170  0.25450  0.36600  1.0000 0.1130384539
H   H4        1.0  0.49830  0.75450  0.13400  1.0000 0.1130384539
H   H5        1.0  0.20360  0.01850  0.73080  1.0000 0.1190958626
H   H6        1.0  0.79640  0.51850  0.76920  1.0000 0.1190958626
H   H7        1.0  0.79640  0.98150  0.26920  1.0000 0.1190958626
H   H8        1.0  0.20360  0.48150  0.23080  1.0000 0.1130384539
H   H9        1.0  0.52460  0.61320  0.96560  1.0000 0.1130384539
H   H10       1.0  0.47540  0.11320  0.53440  1.0000 0.1130384539
H   H11       1.0  0.47540  0.38680  0.03440  1.0000 0.1130384539
H   H12       1.0  0.52460  0.88680  0.46560  1.0000 0.1130384539
H   H13       1.0  0.74640  0.18460  0.76300  1.0000 0.1130384539
H   H14       1.0  0.25360  0.68460  0.73700  1.0000 0.1130384539
H   H15       1.0  0.25360  0.81540  0.23700  1.0000 0.1130384539
H   H16       1.0  0.74640  0.31540  0.26300  1.0000 0.1130384539
H   H17       1.0  0.76240  0.17480  0.06440  1.0000 0.1130384539
H   H18       1.0  0.23760  0.67480  0.43560  1.0000 0.1130384539
H   H19       1.0  0.23760  0.82520  0.93560  1.0000 0.1130384539
H   H20       1.0  0.76240  0.32520  0.56440  1.0000 0.1130384539
H   H21       1.0  0.98690  0.69720  0.99450  1.0000 0.1190958626
H   H22       1.0  0.01310  0.19720  0.50550  1.0000 0.1190958626
H   H23       1.0  0.01310  0.30280  0.00550  1.0000 0.1190958626
H   H24       1.0  0.98690  0.80280  0.49450  1.0000 0.1190958626
C   C1        1.0  0.50310  0.81810  0.67021  1.0000 0.4519425744
C   C2        1.0  0.49690  0.31810  0.82979  1.0000 0.4519425744
C   C3        1.0  0.49690  0.18190  0.32979  1.0000 0.4519425744
C   C4        1.0  0.50310  0.68190  0.17021  1.0000 0.4519425744
C   C5        1.0  0.30010  0.00300  0.78592  1.0000 0.4329361358
C   C6        1.0  0.69990  0.50300  0.71408  1.0000 0.4329361358
C   C7        1.0  0.69990  0.99700  0.21408  1.0000 0.4329361358
C   C8        1.0  0.30010  0.49700  0.28592  1.0000 0.4329361358
C   C9        1.0  0.53370  0.70710  0.95691  1.0000 0.4329361358
C   C10       1.0  0.46630  0.20710  0.54309  1.0000 0.4329361358
C   C11       1.0  0.46630  0.29290  0.04309  1.0000 0.4329361358
C   C12       1.0  0.53370  0.79290  0.45691  1.0000 0.4329361358
C   C13       1.0  0.76570  0.12690  0.81091  1.0000 0.4362256416
C   C14       1.0  0.23430  0.62690  0.68909  1.0000 0.4362256416
C   C15       1.0  0.23430  0.87310  0.18909  1.0000 0.4362256416
C   C16       1.0  0.76570  0.37310  0.31091  1.0000 0.4362256416
C   C17       1.0  0.77200  0.11190  0.02873  1.0000 0.4634742328
C   C18       1.0  0.22800  0.61190  0.47127  1.0000 0.4634742328
C   C19       1.0  0.22800  0.88810  0.97127  1.0000 0.4634742328
C   C20       1.0  0.77200  0.38810  0.52873  1.0000 0.4634742328
C   C21       1.0  0.88350  0.71360  0.95212  1.0000 0.4660240748
C   C22       1.0  0.11650  0.21360  0.54788  1.0000 0.4660240748
C   C23       1.0  0.11650  0.28640  0.04788  1.0000 0.4660240748
C   C24       1.0  0.88350  0.78640  0.45212  1.0000 0.4660240748
O   O1        1.0  0.56604  0.79344  0.75506  1.0000 -0.5388621537
O   O2        1.0  0.43396  0.29344  0.74494  1.0000 -0.5388621537
O   O3        1.0  0.43396  0.20656  0.24494  1.0000 -0.5388621537
O   O4        1.0  0.56604  0.70656  0.25506  1.0000 -0.5388621537
O   O5        1.0  0.44780  0.92836  0.63109  1.0000 -0.4699049479
O   O6        1.0  0.55220  0.42836  0.86891  1.0000 -0.4699049479
O   O7        1.0  0.55220  0.07164  0.36891  1.0000 -0.4699049479
O   O8        1.0  0.44780  0.57164  0.13109  1.0000 -0.4699049479
O   O9        1.0  0.40579  0.99631  0.77979  1.0000 -0.5388621537
O   O10       1.0  0.59421  0.49631  0.72021  1.0000 -0.5388621537
O   O11       1.0  0.59421  0.00369  0.22021  1.0000 -0.5388621537
O   O12       1.0  0.40579  0.50369  0.27979  1.0000 -0.5388621537
O   O13       1.0  0.31240  0.99110  0.85779  1.0000 -0.4816493775
O   O14       1.0  0.68760  0.49110  0.64221  1.0000 -0.4816493775
O   O15       1.0  0.68760  0.00890  0.14221  1.0000 -0.4816493775
O   O16       1.0  0.31240  0.50890  0.35779  1.0000 -0.4816493775
O   O17       1.0  0.54729  0.73633  0.89491  1.0000 -0.5343264377
O   O18       1.0  0.45271  0.23633  0.60509  1.0000 -0.5343264377
O   O19       1.0  0.45271  0.26367  0.10509  1.0000 -0.5343264377
O   O20       1.0  0.54729  0.76367  0.39491  1.0000 -0.5343264377
O   O21       1.0  0.53100  0.78935  0.00744  1.0000 -0.4864516102
O   O22       1.0  0.46900  0.28935  0.49256  1.0000 -0.4864516102
O   O23       1.0  0.46900  0.21065  0.99256  1.0000 -0.4864516102
O   O24       1.0  0.53100  0.71065  0.50744  1.0000 -0.4864516102
O   O25       1.0  0.65348  0.08019  0.80282  1.0000 -0.5388621537
O   O26       1.0  0.34652  0.58019  0.69718  1.0000 -0.5388621537
O   O27       1.0  0.34652  0.91981  0.19718  1.0000 -0.5388621537
O   O28       1.0  0.65348  0.41981  0.30282  1.0000 -0.5388621537
O   O29       1.0  0.89626  0.10503  0.87442  1.0000 -0.4699049479
O   O30       1.0  0.10374  0.60503  0.62558  1.0000 -0.4699049479
O   O31       1.0  0.10374  0.89497  0.12558  1.0000 -0.4699049479
O   O32       1.0  0.89626  0.39497  0.37442  1.0000 -0.4699049479
O   O33       1.0  0.66249  0.03126  0.97624  1.0000 -0.5525895989
O   O34       1.0  0.33751  0.53126  0.52376  1.0000 -0.5525895989
O   O35       1.0  0.33751  0.96874  0.02376  1.0000 -0.5525895989
O   O36       1.0  0.66249  0.46874  0.47624  1.0000 -0.5525895989
O   O37       1.0  0.88780  0.11538  0.03718  1.0000 -0.4816493775
O   O38       1.0  0.11220  0.61538  0.46282  1.0000 -0.4816493775
O   O39       1.0  0.11220  0.88462  0.96282  1.0000 -0.4816493775
O   O40       1.0  0.88780  0.38462  0.53718  1.0000 -0.4816493775
O   O41       1.0  0.84019  0.83733  0.94213  1.0000 -0.5388621537
O   O42       1.0  0.15981  0.33733  0.55787  1.0000 -0.5388621537
O   O43       1.0  0.15981  0.16267  0.05787  1.0000 -0.5388621537
O   O44       1.0  0.84019  0.66267  0.44213  1.0000 -0.5388621537
O   O45       1.0  0.80290  0.61320  0.91153  1.0000 -0.4864516102
O   O46       1.0  0.19710  0.11320  0.58847  1.0000 -0.4816493775
O   O47       1.0  0.19710  0.38680  0.08847  1.0000 -0.4864516102
O   O48       1.0  0.80290  0.88680  0.41153  1.0000 -0.4864516102
