# DDEC6 charges by PACMAN v1.1 (https://github.com/mtap-research/PACMAN-charge/)
data_2007[V][bpq]3[FSR]1
_chemical_formula_sum              "V4 H16 C32 O20"
_cell_length_a       6.8091
_cell_length_b       13.5674
_cell_length_c       16.4128
_cell_angle_alpha    90
_cell_angle_beta     90
_cell_angle_gamma    90

_symmetry_space_group_name_H-M    "P 1"
_symmetry_Int_Tables_number       1

loop_
  _symmetry_equiv_pos_as_xyz
  'x, y, z'

loop_
  _atom_site_type_symbol
  _atom_site_label
  _atom_site_symmetry_multiplicity
  _atom_site_fract_x
  _atom_site_fract_y
  _atom_site_fract_z
  _atom_site_occupancy
  _atom_site_charge
V   V1        1.0  0.20020  0.73916  0.25000  1.0000 1.8179333814
V   V2        1.0  0.70020  0.76084  0.25000  1.0000 1.8179333814
V   V3        1.0  0.79980  0.26084  0.75000  1.0000 1.8179333814
V   V4        1.0  0.29980  0.23916  0.75000  1.0000 1.8179333814
H   H1        1.0  0.20150  0.54250  0.05540  1.0000 0.1314605781
H   H2        1.0  0.70150  0.95750  0.44460  1.0000 0.1314605781
H   H3        1.0  0.79850  0.45750  0.55540  1.0000 0.1314605781
H   H4        1.0  0.29850  0.04250  0.94460  1.0000 0.1314605781
H   H5        1.0  0.79850  0.45750  0.94460  1.0000 0.1314605781
H   H6        1.0  0.29850  0.04250  0.55540  1.0000 0.1314605781
H   H7        1.0  0.20150  0.54250  0.44460  1.0000 0.1314605781
H   H8        1.0  0.70150  0.95750  0.05540  1.0000 0.1314605781
H   H9        1.0  0.78300  0.56110  0.05480  1.0000 0.1314605781
H   H10       1.0  0.28300  0.93890  0.44520  1.0000 0.1314605781
H   H11       1.0  0.21700  0.43890  0.55480  1.0000 0.1314605781
H   H12       1.0  0.71700  0.06110  0.94520  1.0000 0.1314605781
H   H13       1.0  0.21700  0.43890  0.94520  1.0000 0.1314605781
H   H14       1.0  0.71700  0.06110  0.55480  1.0000 0.1314605781
H   H15       1.0  0.78300  0.56110  0.44520  1.0000 0.1314605781
H   H16       1.0  0.28300  0.93890  0.05480  1.0000 0.1314605781
C   C1        1.0  0.32250  0.52610  0.03290  1.0000 -0.1063523592
C   C2        1.0  0.82250  0.97390  0.46710  1.0000 -0.1063523592
C   C3        1.0  0.67750  0.47390  0.53290  1.0000 -0.1063523592
C   C4        1.0  0.17750  0.02610  0.96710  1.0000 -0.1063523592
C   C5        1.0  0.67750  0.47390  0.96710  1.0000 -0.1063523592
C   C6        1.0  0.17750  0.02610  0.53290  1.0000 -0.1063523592
C   C7        1.0  0.32250  0.52610  0.46710  1.0000 -0.1063523592
C   C8        1.0  0.82250  0.97390  0.03290  1.0000 -0.1063523592
C   C9        1.0  0.66750  0.53690  0.03230  1.0000 -0.0997799236
C   C10       1.0  0.16750  0.96310  0.46770  1.0000 -0.0997799236
C   C11       1.0  0.33250  0.46310  0.53230  1.0000 -0.0997799236
C   C12       1.0  0.83250  0.03690  0.96770  1.0000 -0.0997799236
C   C13       1.0  0.33250  0.46310  0.96770  1.0000 -0.0997799236
C   C14       1.0  0.83250  0.03690  0.53230  1.0000 -0.0997799236
C   C15       1.0  0.66750  0.53690  0.46770  1.0000 -0.0997799236
C   C16       1.0  0.16750  0.96310  0.03230  1.0000 -0.0997799236
C   C17       1.0  0.49110  0.56500  0.06490  1.0000 -0.0155956136
C   C18       1.0  0.99110  0.93500  0.43510  1.0000 -0.0155956136
C   C19       1.0  0.50890  0.43500  0.56490  1.0000 -0.0155956136
C   C20       1.0  0.00890  0.06500  0.93510  1.0000 -0.0155956136
C   C21       1.0  0.50890  0.43500  0.93510  1.0000 -0.0155956136
C   C22       1.0  0.00890  0.06500  0.56490  1.0000 -0.0155956136
C   C23       1.0  0.49110  0.56500  0.43510  1.0000 -0.0155956136
C   C24       1.0  0.99110  0.93500  0.06490  1.0000 -0.0145891981
C   C25       1.0  0.47810  0.63330  0.13660  1.0000 0.617952735
C   C26       1.0  0.97810  0.86670  0.36340  1.0000 0.617952735
C   C27       1.0  0.52190  0.36670  0.63660  1.0000 0.617952735
C   C28       1.0  0.02190  0.13330  0.86340  1.0000 0.617952735
C   C29       1.0  0.52190  0.36670  0.86340  1.0000 0.617952735
C   C30       1.0  0.02190  0.13330  0.63660  1.0000 0.617952735
C   C31       1.0  0.47810  0.63330  0.36340  1.0000 0.617952735
C   C32       1.0  0.97810  0.86670  0.13660  1.0000 0.617952735
O   O1        1.0  0.47510  0.80840  0.25000  1.0000 -0.8018975399
O   O2        1.0  0.97510  0.69160  0.25000  1.0000 -0.8018975399
O   O3        1.0  0.52490  0.19160  0.75000  1.0000 -0.8018975399
O   O4        1.0  0.02490  0.30840  0.75000  1.0000 -0.8018975399
O   O5        1.0  0.31180  0.65550  0.16320  1.0000 -0.5829040753
O   O6        1.0  0.81180  0.84450  0.33680  1.0000 -0.5829040753
O   O7        1.0  0.68820  0.34450  0.66320  1.0000 -0.5829040753
O   O8        1.0  0.18820  0.15550  0.83680  1.0000 -0.5829040753
O   O9        1.0  0.68820  0.34450  0.83680  1.0000 -0.5829040753
O   O10       1.0  0.18820  0.15550  0.66320  1.0000 -0.5829040753
O   O11       1.0  0.31180  0.65550  0.33680  1.0000 -0.5829040753
O   O12       1.0  0.81180  0.84450  0.16320  1.0000 -0.5829040753
O   O13       1.0  0.64150  0.66650  0.16260  1.0000 -0.5829040753
O   O14       1.0  0.14150  0.83350  0.33740  1.0000 -0.5852745823
O   O15       1.0  0.35850  0.33350  0.66260  1.0000 -0.5852745823
O   O16       1.0  0.85850  0.16650  0.83740  1.0000 -0.5829040753
O   O17       1.0  0.35850  0.33350  0.83740  1.0000 -0.5852745823
O   O18       1.0  0.85850  0.16650  0.66260  1.0000 -0.5852745823
O   O19       1.0  0.64150  0.66650  0.33740  1.0000 -0.5829040753
O   O20       1.0  0.14150  0.83350  0.16260  1.0000 -0.5852745823
