# DDEC6 charges by PACMAN v1.1 (https://github.com/mtap-research/PACMAN-charge/)
data_2007[Nd][nan]3[FSR]2
_chemical_formula_sum              "Nd4 H6 C8 N2 O26"
_cell_length_a       6.2672
_cell_length_b       8.6204
_cell_length_c       12.936
_cell_angle_alpha    105.314
_cell_angle_beta     90.439
_cell_angle_gamma    105.081

_symmetry_space_group_name_H-M    "P 1"
_symmetry_Int_Tables_number       1

loop_
  _symmetry_equiv_pos_as_xyz
  'x, y, z'

loop_
  _atom_site_type_symbol
  _atom_site_label
  _atom_site_symmetry_multiplicity
  _atom_site_fract_x
  _atom_site_fract_y
  _atom_site_fract_z
  _atom_site_occupancy
  _atom_site_charge
Nd  Nd1       1.0  0.19087  0.33354  0.92510  1.0000 2.066240137
Nd  Nd2       1.0  0.80913  0.66646  0.07490  1.0000 2.066240137
Nd  Nd3       1.0  0.44244  0.97220  0.74238  1.0000 2.0162797622
Nd  Nd4       1.0  0.55756  0.02780  0.25762  1.0000 2.0162797622
H   H1        1.0  0.01970  0.03050  0.70470  1.0000 0.3850687496
H   H2        1.0  0.98030  0.96950  0.29530  1.0000 0.3850687496
H   H3        1.0  0.75640  0.81560  0.59690  1.0000 0.4058993511
H   H4        1.0  0.24360  0.18440  0.40310  1.0000 0.4058993511
H   H5        1.0  0.68590  0.74290  0.68420  1.0000 0.3828058593
H   H6        1.0  0.31410  0.25710  0.31580  1.0000 0.3828058593
C   C1        1.0  0.05530  0.94810  0.95440  1.0000 0.5530424766
C   C2        1.0  0.94470  0.05190  0.04560  1.0000 0.5530424766
C   C3        1.0  0.45740  0.69790  0.87160  1.0000 0.5198992393
C   C4        1.0  0.54260  0.30210  0.12840  1.0000 0.5198992393
C   C5        1.0  0.26880  0.60530  0.78170  1.0000 0.5198992393
C   C6        1.0  0.73120  0.39470  0.21830  1.0000 0.5198992393
C   C7        1.0  0.59460  0.08160  0.52130  1.0000 0.5021415405
C   C8        1.0  0.40540  0.91840  0.47870  1.0000 0.5021415405
N   N1        1.0  0.71570  0.29250  0.86860  1.0000 0.7923139386
N   N2        1.0  0.28430  0.70750  0.13140  1.0000 0.7923139386
O   O1        1.0  0.17260  0.02880  0.89650  1.0000 -0.6694483705
O   O2        1.0  0.82740  0.97120  0.10350  1.0000 -0.6694483705
O   O3        1.0  0.02090  0.79610  0.94460  1.0000 -0.5615497329
O   O4        1.0  0.97910  0.20390  0.05540  1.0000 -0.5615497329
O   O5        1.0  0.55830  0.84370  0.87450  1.0000 -0.5615497329
O   O6        1.0  0.44170  0.15630  0.12550  1.0000 -0.5615497329
O   O7        1.0  0.49540  0.61590  0.93420  1.0000 -0.6694483705
O   O8        1.0  0.50460  0.38410  0.06580  1.0000 -0.6694483705
O   O9        1.0  0.23470  0.68580  0.71790  1.0000 -0.6118871518
O   O10       1.0  0.76530  0.31420  0.28210  1.0000 -0.6118871518
O   O11       1.0  0.16410  0.45980  0.77790  1.0000 -0.5311996289
O   O12       1.0  0.83590  0.54020  0.22210  1.0000 -0.5311996289
O   O13       1.0  0.64160  0.13030  0.62050  1.0000 -0.5462415167
O   O14       1.0  0.35840  0.86970  0.37950  1.0000 -0.5462415167
O   O15       1.0  0.68370  0.15070  0.45220  1.0000 -0.5845010229
O   O16       1.0  0.31630  0.84930  0.54780  1.0000 -0.5845010229
O   O17       1.0  0.79940  0.16820  0.83770  1.0000 -0.5731655903
O   O18       1.0  0.20060  0.83180  0.16230  1.0000 -0.5731655903
O   O19       1.0  0.83960  0.43310  0.92470  1.0000 -0.598143483
O   O20       1.0  0.16040  0.56690  0.07530  1.0000 -0.598143483
O   O21       1.0  0.51000  0.26780  0.83950  1.0000 -0.598143483
O   O22       1.0  0.49000  0.73220  0.16050  1.0000 -0.598143483
O   O23       1.0  0.14130  0.10210  0.70520  1.0000 -0.9016528674
O   O24       1.0  0.85870  0.89790  0.29480  1.0000 -0.9016528674
O   O25       1.0  0.73030  0.83010  0.66260  1.0000 -0.7366593428
O   O26       1.0  0.26970  0.16990  0.33740  1.0000 -0.7366593428
