# DDEC6 charges by PACMAN v1.1 (https://github.com/mtap-research/PACMAN-charge/)
data_2007[Cd][nan]3[FSR]2
_chemical_formula_sum              "Cd10 H116 C148 N8 O44"
_cell_length_a       9.949
_cell_length_b       16.15
_cell_length_c       25.5356
_cell_angle_alpha    90
_cell_angle_beta     106.975
_cell_angle_gamma    90

_symmetry_space_group_name_H-M    "P 1"
_symmetry_Int_Tables_number       1

loop_
  _symmetry_equiv_pos_as_xyz
  'x, y, z'

loop_
  _atom_site_type_symbol
  _atom_site_label
  _atom_site_symmetry_multiplicity
  _atom_site_fract_x
  _atom_site_fract_y
  _atom_site_fract_z
  _atom_site_occupancy
  _atom_site_charge
Cd  Cd1       1.0  0.62396  0.41343  0.46342  1.0000 1.0350932903
Cd  Cd2       1.0  0.37604  0.91343  0.03658  1.0000 1.0322865314
Cd  Cd3       1.0  0.37604  0.58657  0.53658  1.0000 1.0322865314
Cd  Cd4       1.0  0.62396  0.08657  0.96342  1.0000 1.0322865314
Cd  Cd5       1.0  0.00000  0.00000  0.00000  1.0000 1.0322865314
Cd  Cd6       1.0  0.00000  0.50000  0.50000  1.0000 1.0322865314
Cd  Cd7       1.0  0.26438  0.14452  0.01578  1.0000 0.9587094612
Cd  Cd8       1.0  0.73562  0.64452  0.48422  1.0000 0.9587094612
Cd  Cd9       1.0  0.73562  0.85548  0.98422  1.0000 0.9587094612
Cd  Cd10      1.0  0.26438  0.35548  0.51578  1.0000 0.9587094612
H   H1        1.0  0.87950  0.37130  0.60620  1.0000 0.3471569321
H   H2        1.0  0.12050  0.87130  0.89380  1.0000 0.3471569321
H   H3        1.0  0.12050  0.62870  0.39380  1.0000 0.3471569321
H   H4        1.0  0.87950  0.12870  0.10620  1.0000 0.3471569321
H   H5        1.0  0.14330  0.22080  0.88090  1.0000 0.3471569321
H   H6        1.0  0.85670  0.72080  0.61910  1.0000 0.3471569321
H   H7        1.0  0.85670  0.77920  0.11910  1.0000 0.3471569321
H   H8        1.0  0.14330  0.27920  0.38090  1.0000 0.3471569321
H   H9        1.0  0.51920  0.46110  0.65670  1.0000 0.1202964132
H   H10       1.0  0.48080  0.96110  0.84330  1.0000 0.1202964132
H   H11       1.0  0.48080  0.53890  0.34330  1.0000 0.1202964132
H   H12       1.0  0.51920  0.03890  0.15670  1.0000 0.1202964132
H   H13       1.0  0.45730  0.46030  0.74410  1.0000 0.1117187854
H   H14       1.0  0.54270  0.96030  0.75590  1.0000 0.1117187854
H   H15       1.0  0.54270  0.53970  0.25590  1.0000 0.1117187854
H   H16       1.0  0.45730  0.03970  0.24410  1.0000 0.1117187854
H   H17       1.0  0.51300  0.42290  0.83430  1.0000 0.1117187854
H   H18       1.0  0.48700  0.92290  0.66570  1.0000 0.1117187854
H   H19       1.0  0.48700  0.57710  0.16570  1.0000 0.1117187854
H   H20       1.0  0.51300  0.07710  0.33430  1.0000 0.1117187854
H   H21       1.0  0.72880  0.35900  0.87570  1.0000 0.1117187854
H   H22       1.0  0.27120  0.85900  0.62430  1.0000 0.1117187854
H   H23       1.0  0.27120  0.64100  0.12430  1.0000 0.1117187854
H   H24       1.0  0.72880  0.14100  0.37570  1.0000 0.1117187854
H   H25       1.0  0.87850  0.32300  0.82770  1.0000 0.1202964132
H   H26       1.0  0.12150  0.82300  0.67230  1.0000 0.1202964132
H   H27       1.0  0.12150  0.67700  0.17230  1.0000 0.1202964132
H   H28       1.0  0.87850  0.17700  0.32770  1.0000 0.1202964132
H   H29       1.0  0.04240  0.29520  0.71770  1.0000 0.1117187854
H   H30       1.0  0.95760  0.79520  0.78230  1.0000 0.1117187854
H   H31       1.0  0.95760  0.70480  0.28230  1.0000 0.1117187854
H   H32       1.0  0.04240  0.20480  0.21770  1.0000 0.1117187854
H   H33       1.0  0.05130  0.32630  0.77660  1.0000 0.1202964132
H   H34       1.0  0.94870  0.82630  0.72340  1.0000 0.1202964132
H   H35       1.0  0.94870  0.67370  0.22340  1.0000 0.1202964132
H   H36       1.0  0.05130  0.17370  0.27660  1.0000 0.1202964132
H   H37       1.0  0.91430  0.99610  0.80970  1.0000 0.1202964132
H   H38       1.0  0.08570  0.49610  0.69030  1.0000 0.1202964132
H   H39       1.0  0.08570  0.00390  0.19030  1.0000 0.1202964132
H   H40       1.0  0.91430  0.50390  0.30970  1.0000 0.1202964132
H   H41       1.0  0.79320  0.95240  0.71360  1.0000 0.1202964132
H   H42       1.0  0.20680  0.45240  0.78640  1.0000 0.1202964132
H   H43       1.0  0.20680  0.04760  0.28640  1.0000 0.1202964132
H   H44       1.0  0.79320  0.54760  0.21360  1.0000 0.1202964132
H   H45       1.0  0.72550  0.98370  0.62230  1.0000 0.1202964132
H   H46       1.0  0.27450  0.48370  0.87770  1.0000 0.1202964132
H   H47       1.0  0.27450  0.01630  0.37770  1.0000 0.1202964132
H   H48       1.0  0.72550  0.51630  0.12230  1.0000 0.1202964132
H   H49       1.0  0.76680  0.11670  0.59230  1.0000 0.1202964132
H   H50       1.0  0.23320  0.61670  0.90770  1.0000 0.1202964132
H   H51       1.0  0.23320  0.88330  0.40770  1.0000 0.1202964132
H   H52       1.0  0.76680  0.38330  0.09230  1.0000 0.1202964132
H   H53       1.0  0.87660  0.21300  0.65150  1.0000 0.1311224576
H   H54       1.0  0.12340  0.71300  0.84850  1.0000 0.1311224576
H   H55       1.0  0.12340  0.78700  0.34850  1.0000 0.1311224576
H   H56       1.0  0.87660  0.28700  0.15150  1.0000 0.1311224576
H   H57       1.0  0.34780  0.37090  0.36250  1.0000 0.1117187854
H   H58       1.0  0.65220  0.87090  0.13750  1.0000 0.1117187854
H   H59       1.0  0.65220  0.62910  0.63750  1.0000 0.1117187854
H   H60       1.0  0.34780  0.12910  0.86250  1.0000 0.1117187854
H   H61       1.0  0.26880  0.32700  0.27350  1.0000 0.1383565194
H   H62       1.0  0.73120  0.82700  0.22650  1.0000 0.1383565194
H   H63       1.0  0.73120  0.67300  0.72650  1.0000 0.1383565194
H   H64       1.0  0.26880  0.17300  0.77350  1.0000 0.1383565194
H   H65       1.0  0.67340  0.32300  0.27250  1.0000 0.1311224576
H   H66       1.0  0.32660  0.82300  0.22750  1.0000 0.1311224576
H   H67       1.0  0.32660  0.67700  0.72750  1.0000 0.1311224576
H   H68       1.0  0.67340  0.17700  0.77250  1.0000 0.1311224576
H   H69       1.0  0.73840  0.36570  0.36180  1.0000 0.1117187854
H   H70       1.0  0.26160  0.86570  0.13820  1.0000 0.1117187854
H   H71       1.0  0.26160  0.63430  0.63820  1.0000 0.1117187854
H   H72       1.0  0.73840  0.13430  0.86180  1.0000 0.1117187854
H   H73       1.0  0.24420  0.22290  0.21110  1.0000 0.1383565194
H   H74       1.0  0.75580  0.72290  0.28890  1.0000 0.1383565194
H   H75       1.0  0.75580  0.77710  0.78890  1.0000 0.1383565194
H   H76       1.0  0.24420  0.27710  0.71110  1.0000 0.1383565194
H   H77       1.0  0.18270  0.16310  0.12590  1.0000 0.1202964132
H   H78       1.0  0.81730  0.66310  0.37410  1.0000 0.1202964132
H   H79       1.0  0.81730  0.83690  0.87410  1.0000 0.1202964132
H   H80       1.0  0.18270  0.33690  0.62590  1.0000 0.1202964132
H   H81       1.0  0.50300  0.26420  0.09400  1.0000 0.1202964132
H   H82       1.0  0.49700  0.76420  0.40600  1.0000 0.1202964132
H   H83       1.0  0.49700  0.73580  0.90600  1.0000 0.1202964132
H   H84       1.0  0.50300  0.23580  0.59400  1.0000 0.1202964132
H   H85       1.0  0.57640  0.32480  0.17840  1.0000 0.1311224576
H   H86       1.0  0.42360  0.82480  0.32160  1.0000 0.1311224576
H   H87       1.0  0.42360  0.67520  0.82160  1.0000 0.1311224576
H   H88       1.0  0.57640  0.17520  0.67840  1.0000 0.1311224576
H   H89       1.0  0.90250  0.31900  0.01210  1.0000 0.1587341554
H   H90       1.0  0.09750  0.81900  0.48790  1.0000 0.1587341554
H   H91       1.0  0.09750  0.68100  0.98790  1.0000 0.1587341554
H   H92       1.0  0.90250  0.18100  0.51210  1.0000 0.1587341554
H   H93       1.0  0.05950  0.28970  0.02910  1.0000 0.1587341554
H   H94       1.0  0.94050  0.78970  0.47090  1.0000 0.1587341554
H   H95       1.0  0.94050  0.71030  0.97090  1.0000 0.1587341554
H   H96       1.0  0.05950  0.21030  0.52910  1.0000 0.1587341554
H   H97       1.0  0.98160  0.30930  0.96760  1.0000 0.1740185148
H   H98       1.0  0.01840  0.80930  0.53240  1.0000 0.1740185148
H   H99       1.0  0.01840  0.69070  0.03240  1.0000 0.1740185148
H   H100      1.0  0.98160  0.19070  0.46760  1.0000 0.1740185148
H   H101      1.0  0.52900  0.14640  0.46530  1.0000 0.1587341554
H   H102      1.0  0.47100  0.64640  0.03470  1.0000 0.1587341554
H   H103      1.0  0.47100  0.85360  0.53470  1.0000 0.1587341554
H   H104      1.0  0.52900  0.35360  0.96530  1.0000 0.1587341554
H   H105      1.0  0.58320  0.22450  0.44110  1.0000 0.1587341554
H   H106      1.0  0.41680  0.72450  0.05890  1.0000 0.1587341554
H   H107      1.0  0.41680  0.77550  0.55890  1.0000 0.1587341554
H   H108      1.0  0.58320  0.27550  0.94110  1.0000 0.1587341554
H   H109      1.0  0.44480  0.18020  0.40750  1.0000 0.1587341554
H   H110      1.0  0.55520  0.68020  0.09250  1.0000 0.1587341554
H   H111      1.0  0.55520  0.81980  0.59250  1.0000 0.1587341554
H   H112      1.0  0.44480  0.31980  0.90750  1.0000 0.1587341554
H   H113      1.0  0.78860  0.97640  0.92870  1.0000 0.3440334923
H   H114      1.0  0.21140  0.47640  0.57130  1.0000 0.3440334923
H   H115      1.0  0.21140  0.02360  0.07130  1.0000 0.3440334923
H   H116      1.0  0.78860  0.52360  0.42870  1.0000 0.3440334923
C   C1        1.0  0.64997  0.43839  0.58187  1.0000 0.6003240175
C   C2        1.0  0.35003  0.93839  0.91813  1.0000 0.6003240175
C   C3        1.0  0.35003  0.56161  0.41813  1.0000 0.6003240175
C   C4        1.0  0.64997  0.06161  0.08187  1.0000 0.6003240175
C   C5        1.0  0.69242  0.41665  0.64194  1.0000 -0.1588800126
C   C6        1.0  0.30758  0.91665  0.85806  1.0000 -0.1588800126
C   C7        1.0  0.30758  0.58335  0.35806  1.0000 -0.1588800126
C   C8        1.0  0.69242  0.08335  0.14194  1.0000 -0.1588800126
C   C9        1.0  0.60339  0.43391  0.67307  1.0000 -0.1588800126
C   C10       1.0  0.39661  0.93391  0.82693  1.0000 -0.1588800126
C   C11       1.0  0.39661  0.56609  0.32693  1.0000 -0.1588800126
C   C12       1.0  0.60339  0.06609  0.17307  1.0000 -0.1588800126
C   C13       1.0  0.63522  0.41191  0.72840  1.0000 0.0651095244
C   C14       1.0  0.36478  0.91191  0.77160  1.0000 0.0651095244
C   C15       1.0  0.36478  0.58809  0.27160  1.0000 0.0651095244
C   C16       1.0  0.63522  0.08809  0.22840  1.0000 0.0651095244
C   C17       1.0  0.54090  0.43253  0.76040  1.0000 -0.1588800126
C   C18       1.0  0.45910  0.93253  0.73960  1.0000 -0.1531011962
C   C19       1.0  0.45910  0.56747  0.23960  1.0000 -0.1588800126
C   C20       1.0  0.54090  0.06747  0.26040  1.0000 -0.1531011962
C   C21       1.0  0.57448  0.41140  0.81388  1.0000 -0.1117637366
C   C22       1.0  0.42552  0.91140  0.68612  1.0000 -0.1117637366
C   C23       1.0  0.42552  0.58860  0.18612  1.0000 -0.1117637366
C   C24       1.0  0.57448  0.08860  0.31388  1.0000 -0.1117637366
C   C25       1.0  0.70477  0.37132  0.83857  1.0000 -0.0880726077
C   C26       1.0  0.29523  0.87132  0.66143  1.0000 -0.0880726077
C   C27       1.0  0.29523  0.62868  0.16143  1.0000 -0.0880726077
C   C28       1.0  0.70477  0.12868  0.33857  1.0000 -0.0880726077
C   C29       1.0  0.79544  0.35034  0.81004  1.0000 -0.1384762996
C   C30       1.0  0.20456  0.85034  0.68996  1.0000 -0.1384762996
C   C31       1.0  0.20456  0.64966  0.18996  1.0000 -0.1384762996
C   C32       1.0  0.79544  0.14966  0.31004  1.0000 -0.1384762996
C   C33       1.0  0.76428  0.37002  0.75278  1.0000 0.0449467204
C   C34       1.0  0.23572  0.87002  0.74722  1.0000 0.0449467204
C   C35       1.0  0.23572  0.62998  0.24722  1.0000 0.0449467204
C   C36       1.0  0.76428  0.12998  0.25278  1.0000 0.0449467204
C   C37       1.0  0.85671  0.34782  0.72166  1.0000 -0.0289701731
C   C38       1.0  0.14329  0.84782  0.77834  1.0000 -0.0289701731
C   C39       1.0  0.14329  0.65218  0.27834  1.0000 -0.0289701731
C   C40       1.0  0.85671  0.15218  0.22166  1.0000 -0.0289701731
C   C41       1.0  0.82151  0.37407  0.66716  1.0000 0.2006075099
C   C42       1.0  0.17849  0.87407  0.83284  1.0000 0.2006075099
C   C43       1.0  0.17849  0.62593  0.33284  1.0000 0.2006075099
C   C44       1.0  0.82151  0.12593  0.16716  1.0000 0.2006075099
C   C45       1.0  0.99222  0.29709  0.74507  1.0000 -0.2503493619
C   C46       1.0  0.00778  0.79709  0.75493  1.0000 -0.2503493619
C   C47       1.0  0.00778  0.70291  0.25493  1.0000 -0.2503493619
C   C48       1.0  0.99222  0.20291  0.24507  1.0000 -0.2503493619
C   C49       1.0  0.97277  0.20971  0.76204  1.0000 -0.0415146821
C   C50       1.0  0.02723  0.70971  0.73796  1.0000 -0.0415146821
C   C51       1.0  0.02723  0.79029  0.23796  1.0000 -0.0415146821
C   C52       1.0  0.97277  0.29029  0.26204  1.0000 -0.0415146821
C   C53       1.0  0.02659  0.18594  0.81599  1.0000 0.1828750498
C   C54       1.0  0.97341  0.68594  0.68401  1.0000 0.1828750498
C   C55       1.0  0.97341  0.81406  0.18401  1.0000 0.1828750498
C   C56       1.0  0.02659  0.31406  0.31599  1.0000 0.1828750498
C   C57       1.0  0.00333  0.10634  0.83466  1.0000 -0.1531011962
C   C58       1.0  0.99667  0.60634  0.66534  1.0000 -0.1531011962
C   C59       1.0  0.99667  0.89366  0.16534  1.0000 -0.1531011962
C   C60       1.0  0.00333  0.39366  0.33466  1.0000 -0.1531011962
C   C61       1.0  0.93134  0.04814  0.79742  1.0000 -0.1588800126
C   C62       1.0  0.06866  0.54814  0.70258  1.0000 -0.1588800126
C   C63       1.0  0.06866  0.95186  0.20258  1.0000 -0.1588800126
C   C64       1.0  0.93134  0.45186  0.29742  1.0000 -0.1588800126
C   C65       1.0  0.88313  0.06651  0.74092  1.0000 0.0651095244
C   C66       1.0  0.11687  0.56651  0.75908  1.0000 0.0651095244
C   C67       1.0  0.11687  0.93349  0.25908  1.0000 0.0651095244
C   C68       1.0  0.88313  0.43349  0.24092  1.0000 0.0651095244
C   C69       1.0  0.81115  0.00461  0.70175  1.0000 -0.1531011962
C   C70       1.0  0.18885  0.50461  0.79825  1.0000 -0.1531011962
C   C71       1.0  0.18885  0.99539  0.29825  1.0000 -0.1531011962
C   C72       1.0  0.81115  0.49539  0.20175  1.0000 -0.1531011962
C   C73       1.0  0.77032  0.02346  0.64772  1.0000 -0.1008207207
C   C74       1.0  0.22968  0.52346  0.85228  1.0000 -0.1008207207
C   C75       1.0  0.22968  0.97654  0.35228  1.0000 -0.1008207207
C   C76       1.0  0.77032  0.47654  0.14772  1.0000 -0.1008207207
C   C77       1.0  0.79584  0.10438  0.62954  1.0000 -0.1008207207
C   C78       1.0  0.20416  0.60438  0.87046  1.0000 -0.1008207207
C   C79       1.0  0.20416  0.89562  0.37046  1.0000 -0.1008207207
C   C80       1.0  0.79584  0.39562  0.12954  1.0000 -0.1008207207
C   C81       1.0  0.86013  0.16161  0.66494  1.0000 -0.1384762996
C   C82       1.0  0.13987  0.66161  0.83506  1.0000 -0.1384762996
C   C83       1.0  0.13987  0.83839  0.33506  1.0000 -0.1384762996
C   C84       1.0  0.86013  0.33839  0.16494  1.0000 -0.1384762996
C   C85       1.0  0.90541  0.14865  0.72266  1.0000 0.0320466883
C   C86       1.0  0.09459  0.64865  0.77734  1.0000 0.0320466883
C   C87       1.0  0.09459  0.85135  0.27734  1.0000 0.0320466883
C   C88       1.0  0.90541  0.35135  0.22266  1.0000 0.0320466883
C   C89       1.0  0.05209  0.08250  0.89452  1.0000 0.6003240175
C   C90       1.0  0.94791  0.58250  0.60548  1.0000 0.6003240175
C   C91       1.0  0.94791  0.91750  0.10548  1.0000 0.6003240175
C   C92       1.0  0.05209  0.41750  0.39452  1.0000 0.6003240175
C   C93       1.0  0.41369  0.36086  0.34386  1.0000 0.0894305136
C   C94       1.0  0.58631  0.86086  0.15614  1.0000 0.0894305136
C   C95       1.0  0.58631  0.63914  0.65614  1.0000 0.0894305136
C   C96       1.0  0.41369  0.13914  0.84386  1.0000 0.0894305136
C   C97       1.0  0.36458  0.33391  0.29021  1.0000 -0.1863053166
C   C98       1.0  0.63542  0.83391  0.20979  1.0000 -0.1863053166
C   C99       1.0  0.63542  0.66609  0.70979  1.0000 -0.1863053166
C   C100      1.0  0.36458  0.16609  0.79021  1.0000 -0.1863053166
C   C101      1.0  0.46216  0.31716  0.26161  1.0000 0.1202964132
C   C102      1.0  0.53784  0.81716  0.23839  1.0000 0.1202964132
C   C103      1.0  0.53784  0.68284  0.73839  1.0000 0.1202964132
C   C104      1.0  0.46216  0.18284  0.76161  1.0000 0.1202964132
C   C105      1.0  0.60483  0.33156  0.29007  1.0000 -0.1803737368
C   C106      1.0  0.39517  0.83156  0.20993  1.0000 -0.1803737368
C   C107      1.0  0.39517  0.66844  0.70993  1.0000 -0.1803737368
C   C108      1.0  0.60483  0.16844  0.79007  1.0000 -0.1803737368
C   C109      1.0  0.64348  0.35819  0.34381  1.0000 0.0894305136
C   C110      1.0  0.35652  0.85819  0.15619  1.0000 0.0894305136
C   C111      1.0  0.35652  0.64181  0.65619  1.0000 0.0894305136
C   C112      1.0  0.64348  0.14181  0.84381  1.0000 0.0894305136
C   C113      1.0  0.41755  0.28039  0.20553  1.0000 0.1117187854
C   C114      1.0  0.58245  0.78039  0.29447  1.0000 0.1117187854
C   C115      1.0  0.58245  0.71961  0.79447  1.0000 0.1117187854
C   C116      1.0  0.41755  0.21961  0.70553  1.0000 0.1117187854
C   C117      1.0  0.29978  0.23200  0.18798  1.0000 -0.1803737368
C   C118      1.0  0.70022  0.73200  0.31202  1.0000 -0.1803737368
C   C119      1.0  0.70022  0.76800  0.81202  1.0000 -0.1803737368
C   C120      1.0  0.29978  0.26800  0.68798  1.0000 -0.1803737368
C   C121      1.0  0.26227  0.19650  0.13637  1.0000 0.0894305136
C   C122      1.0  0.73773  0.69650  0.36363  1.0000 0.0894305136
C   C123      1.0  0.73773  0.80350  0.86363  1.0000 0.0894305136
C   C124      1.0  0.26227  0.30350  0.63637  1.0000 0.0894305136
C   C125      1.0  0.45024  0.25567  0.11819  1.0000 0.0841058768
C   C126      1.0  0.54976  0.75567  0.38181  1.0000 0.0841058768
C   C127      1.0  0.54976  0.74433  0.88181  1.0000 0.0841058768
C   C128      1.0  0.45024  0.24433  0.61819  1.0000 0.0841058768
C   C129      1.0  0.49549  0.29250  0.16882  1.0000 -0.1803737368
C   C130      1.0  0.50451  0.79250  0.33118  1.0000 -0.1803737368
C   C131      1.0  0.50451  0.70750  0.83118  1.0000 -0.1803737368
C   C132      1.0  0.49549  0.20750  0.66882  1.0000 -0.1803737368
C   C133      1.0  0.92403  0.19954  0.99243  1.0000 0.7076836652
C   C134      1.0  0.07597  0.69954  0.50757  1.0000 0.7076836652
C   C135      1.0  0.07597  0.80046  0.00757  1.0000 0.7076836652
C   C136      1.0  0.92403  0.30046  0.49243  1.0000 0.7076836652
C   C137      1.0  0.97110  0.28713  0.00110  1.0000 -0.6035776236
C   C138      1.0  0.02890  0.78713  0.49890  1.0000 -0.6035776236
C   C139      1.0  0.02890  0.71287  0.99890  1.0000 -0.6035776236
C   C140      1.0  0.97110  0.21287  0.50110  1.0000 -0.6035776236
C   C141      1.0  0.41694  0.25046  0.46981  1.0000 0.6831588573
C   C142      1.0  0.58306  0.75046  0.03019  1.0000 0.6831588573
C   C143      1.0  0.58306  0.74954  0.53019  1.0000 0.6831588573
C   C144      1.0  0.41694  0.24954  0.96981  1.0000 0.6831588573
C   C145      1.0  0.50115  0.19538  0.44355  1.0000 -0.6035776236
C   C146      1.0  0.49885  0.69538  0.05645  1.0000 -0.6035776236
C   C147      1.0  0.49885  0.80462  0.55645  1.0000 -0.6035776236
C   C148      1.0  0.50115  0.30462  0.94355  1.0000 -0.6035776236
N   N1        1.0  0.54976  0.37355  0.37102  1.0000 -0.2643478387
N   N2        1.0  0.45024  0.87355  0.12898  1.0000 -0.2643478387
N   N3        1.0  0.45024  0.62645  0.62898  1.0000 -0.2643478387
N   N4        1.0  0.54976  0.12645  0.87102  1.0000 -0.2643478387
N   N5        1.0  0.33548  0.20851  0.10150  1.0000 -0.2503493619
N   N6        1.0  0.66452  0.70851  0.39850  1.0000 -0.2503493619
N   N7        1.0  0.66452  0.79149  0.89850  1.0000 -0.2503493619
N   N8        1.0  0.33548  0.29149  0.60150  1.0000 -0.2503493619
O   O1        1.0  0.72873  0.41276  0.55411  1.0000 -0.5430644923
O   O2        1.0  0.27127  0.91276  0.94589  1.0000 -0.5430644923
O   O3        1.0  0.27127  0.58724  0.44589  1.0000 -0.5430644923
O   O4        1.0  0.72873  0.08724  0.05411  1.0000 -0.5430644923
O   O5        1.0  0.53778  0.47654  0.56184  1.0000 -0.5784865492
O   O6        1.0  0.46222  0.97654  0.93816  1.0000 -0.5784865492
O   O7        1.0  0.46222  0.52346  0.43816  1.0000 -0.5784865492
O   O8        1.0  0.53778  0.02346  0.06184  1.0000 -0.5784865492
O   O9        1.0  0.91444  0.35800  0.63832  1.0000 -0.4397913389
O   O10       1.0  0.08556  0.85800  0.86168  1.0000 -0.4397913389
O   O11       1.0  0.08556  0.64200  0.36168  1.0000 -0.4397913389
O   O12       1.0  0.91444  0.14200  0.13832  1.0000 -0.4397913389
O   O13       1.0  0.99483  0.02295  0.91091  1.0000 -0.5602783435
O   O14       1.0  0.00517  0.52295  0.58909  1.0000 -0.5602783435
O   O15       1.0  0.00517  0.97705  0.08909  1.0000 -0.5602783435
O   O16       1.0  0.99483  0.47705  0.41091  1.0000 -0.5602783435
O   O17       1.0  0.15294  0.12720  0.92435  1.0000 -0.5727139139
O   O18       1.0  0.84706  0.62720  0.57565  1.0000 -0.5727139139
O   O19       1.0  0.84706  0.87280  0.07565  1.0000 -0.5727139139
O   O20       1.0  0.15294  0.37280  0.42435  1.0000 -0.5727139139
O   O21       1.0  0.10026  0.24369  0.85228  1.0000 -0.4397913389
O   O22       1.0  0.89974  0.74369  0.64772  1.0000 -0.4397913389
O   O23       1.0  0.89974  0.75631  0.14772  1.0000 -0.4397913389
O   O24       1.0  0.10026  0.25631  0.35228  1.0000 -0.4397913389
O   O25       1.0  0.80256  0.18143  0.96483  1.0000 -0.5784865492
O   O26       1.0  0.19744  0.68143  0.53517  1.0000 -0.5784865492
O   O27       1.0  0.19744  0.81857  0.03517  1.0000 -0.5784865492
O   O28       1.0  0.80256  0.31857  0.46483  1.0000 -0.5784865492
O   O29       1.0  0.01794  0.14584  0.01547  1.0000 -0.6171144345
O   O30       1.0  0.98206  0.64584  0.48453  1.0000 -0.6171144345
O   O31       1.0  0.98206  0.85416  0.98453  1.0000 -0.6171144345
O   O32       1.0  0.01794  0.35416  0.51547  1.0000 -0.6171144345
O   O33       1.0  0.45762  0.32563  0.48179  1.0000 -0.6171144345
O   O34       1.0  0.54238  0.82563  0.01821  1.0000 -0.6171144345
O   O35       1.0  0.54238  0.67437  0.51821  1.0000 -0.6171144345
O   O36       1.0  0.45762  0.17437  0.98179  1.0000 -0.6171144345
O   O37       1.0  0.31075  0.22306  0.48060  1.0000 -0.5602783435
O   O38       1.0  0.68925  0.72306  0.01940  1.0000 -0.5602783435
O   O39       1.0  0.68925  0.77694  0.51940  1.0000 -0.5602783435
O   O40       1.0  0.31075  0.27694  0.98060  1.0000 -0.5602783435
O   O41       1.0  0.76762  0.98288  0.95669  1.0000 -0.8090402805
O   O42       1.0  0.23238  0.48288  0.54331  1.0000 -0.8090402805
O   O43       1.0  0.23238  0.01712  0.04331  1.0000 -0.8090402805
O   O44       1.0  0.76762  0.51712  0.45669  1.0000 -0.8090402805
