# DDEC6 charges by PACMAN v1.1 (https://github.com/mtap-research/PACMAN-charge/)
data_2007[U][nan]3[FSR]1
_chemical_formula_sum              "U12 H112 C168 N24 O132"
_cell_length_a       5.459
_cell_length_b       36.7601
_cell_length_c       26.5981
_cell_angle_alpha    90
_cell_angle_beta     91.406
_cell_angle_gamma    90

_symmetry_space_group_name_H-M    "P 1"
_symmetry_Int_Tables_number       1

loop_
  _symmetry_equiv_pos_as_xyz
  'x, y, z'

loop_
  _atom_site_type_symbol
  _atom_site_label
  _atom_site_symmetry_multiplicity
  _atom_site_fract_x
  _atom_site_fract_y
  _atom_site_fract_z
  _atom_site_occupancy
  _atom_site_charge
U   U1        1.0  0.89873  0.06285  0.53673  1.0000 2.4432193443
U   U2        1.0  0.10127  0.56285  0.96327  1.0000 2.4432193443
U   U3        1.0  0.10127  0.93715  0.46327  1.0000 2.4432193443
U   U4        1.0  0.89873  0.43715  0.03673  1.0000 2.4432193443
U   U5        1.0  0.68471  0.19080  0.61862  1.0000 2.3887368843
U   U6        1.0  0.31529  0.69080  0.88138  1.0000 2.3887368843
U   U7        1.0  0.31529  0.80920  0.38138  1.0000 2.3887368843
U   U8        1.0  0.68471  0.30920  0.11862  1.0000 2.3887368843
U   U9        1.0  0.44725  0.09971  0.03806  1.0000 2.0408876345
U   U10       1.0  0.55275  0.59971  0.46194  1.0000 2.0408876345
U   U11       1.0  0.55275  0.90029  0.96194  1.0000 2.0408876345
U   U12       1.0  0.44725  0.40029  0.53806  1.0000 2.0408876345
H   H1        1.0  0.91830  0.17130  0.31030  1.0000 0.1223970657
H   H2        1.0  0.08170  0.67130  0.18970  1.0000 0.1223970657
H   H3        1.0  0.08170  0.82870  0.68970  1.0000 0.1223970657
H   H4        1.0  0.91830  0.32870  0.81030  1.0000 0.1223970657
H   H5        1.0  0.60050  0.94140  0.57680  1.0000 0.1510421143
H   H6        1.0  0.39950  0.44140  0.92320  1.0000 0.1510421143
H   H7        1.0  0.39950  0.05860  0.42320  1.0000 0.1510421143
H   H8        1.0  0.60050  0.55860  0.07680  1.0000 0.1510421143
H   H9        1.0  0.19700  0.00460  0.66610  1.0000 0.1223970657
H   H10       1.0  0.80300  0.50460  0.83390  1.0000 0.1223970657
H   H11       1.0  0.80300  0.99540  0.33390  1.0000 0.1223970657
H   H12       1.0  0.19700  0.49540  0.16610  1.0000 0.1223970657
H   H13       1.0  0.43740  0.07360  0.65500  1.0000 0.1510421143
H   H14       1.0  0.56260  0.57360  0.84500  1.0000 0.1510421143
H   H15       1.0  0.56260  0.92640  0.34500  1.0000 0.1510421143
H   H16       1.0  0.43740  0.42640  0.15500  1.0000 0.1510421143
H   H17       1.0  0.65170  0.13410  0.41000  1.0000 0.1223970657
H   H18       1.0  0.34830  0.63410  0.09000  1.0000 0.1223970657
H   H19       1.0  0.34830  0.86590  0.59000  1.0000 0.1223970657
H   H20       1.0  0.65170  0.36590  0.91000  1.0000 0.1223970657
H   H21       1.0  0.45290  0.25830  0.59240  1.0000 0.407437186
H   H22       1.0  0.54710  0.75830  0.90760  1.0000 0.407437186
H   H23       1.0  0.54710  0.74170  0.40760  1.0000 0.407437186
H   H24       1.0  0.45290  0.24170  0.09240  1.0000 0.407437186
H   H25       1.0  0.51160  0.23930  0.54140  1.0000 0.3947512016
H   H26       1.0  0.48840  0.73930  0.95860  1.0000 0.3947512016
H   H27       1.0  0.48840  0.76070  0.45860  1.0000 0.3950220153
H   H28       1.0  0.51160  0.26070  0.04140  1.0000 0.3947512016
H   H29       1.0  0.93320  0.98610  0.75460  1.0000 0.1223970657
H   H30       1.0  0.06680  0.48610  0.74540  1.0000 0.1223970657
H   H31       1.0  0.06680  0.01390  0.24540  1.0000 0.1223970657
H   H32       1.0  0.93320  0.51390  0.25460  1.0000 0.1223970657
H   H33       1.0  0.41270  0.98350  0.73540  1.0000 0.1131132052
H   H34       1.0  0.58730  0.48350  0.76460  1.0000 0.1131132052
H   H35       1.0  0.58730  0.01650  0.26460  1.0000 0.1131132052
H   H36       1.0  0.41270  0.51650  0.23540  1.0000 0.1131132052
H   H37       1.0  0.20140  0.18490  0.50320  1.0000 0.1510421143
H   H38       1.0  0.79860  0.68490  0.99680  1.0000 0.1510421143
H   H39       1.0  0.79860  0.81510  0.49680  1.0000 0.1510421143
H   H40       1.0  0.20140  0.31510  0.00320  1.0000 0.1510421143
H   H41       1.0  0.75910  0.19930  0.23930  1.0000 0.1296289936
H   H42       1.0  0.24090  0.69930  0.26070  1.0000 0.1296289936
H   H43       1.0  0.24090  0.80070  0.76070  1.0000 0.1296289936
H   H44       1.0  0.75910  0.30070  0.73930  1.0000 0.1296289936
H   H45       1.0  0.90290  0.87170  0.82640  1.0000 0.1296289936
H   H46       1.0  0.09710  0.37170  0.67360  1.0000 0.1296289936
H   H47       1.0  0.09710  0.12830  0.17360  1.0000 0.1296289936
H   H48       1.0  0.90290  0.62830  0.32640  1.0000 0.1296289936
H   H49       1.0  0.27170  0.13920  0.79860  1.0000 0.1131132052
H   H50       1.0  0.72830  0.63920  0.70140  1.0000 0.1131132052
H   H51       1.0  0.72830  0.86080  0.20140  1.0000 0.1131132052
H   H52       1.0  0.27170  0.36080  0.29860  1.0000 0.1131132052
H   H53       1.0  0.01660  0.14370  0.72950  1.0000 0.1223970657
H   H54       1.0  0.98340  0.64370  0.77050  1.0000 0.1223970657
H   H55       1.0  0.98340  0.85630  0.27050  1.0000 0.1223970657
H   H56       1.0  0.01660  0.35630  0.22950  1.0000 0.1223970657
H   H57       1.0  0.17290  0.97300  0.82470  1.0000 0.1223970657
H   H58       1.0  0.82710  0.47300  0.67530  1.0000 0.1223970657
H   H59       1.0  0.82710  0.02700  0.17530  1.0000 0.1223970657
H   H60       1.0  0.17290  0.52700  0.32470  1.0000 0.1223970657
H   H61       1.0  0.74500  0.15430  0.81350  1.0000 0.1296289936
H   H62       1.0  0.25500  0.65430  0.68650  1.0000 0.1296289936
H   H63       1.0  0.25500  0.84570  0.18650  1.0000 0.1296289936
H   H64       1.0  0.74500  0.34570  0.31350  1.0000 0.1296289936
H   H65       1.0  0.46720  0.16360  0.34260  1.0000 0.1131132052
H   H66       1.0  0.53280  0.66360  0.15740  1.0000 0.1131132052
H   H67       1.0  0.53280  0.83640  0.65740  1.0000 0.1131132052
H   H68       1.0  0.46720  0.33640  0.84260  1.0000 0.1131132052
H   H69       1.0  0.98390  0.15790  0.88630  1.0000 0.1296289936
H   H70       1.0  0.01610  0.65790  0.61370  1.0000 0.1296289936
H   H71       1.0  0.01610  0.84210  0.11370  1.0000 0.1296289936
H   H72       1.0  0.98390  0.34210  0.38630  1.0000 0.1296289936
H   H73       1.0  0.16790  0.28770  0.27010  1.0000 0.1363791481
H   H74       1.0  0.83210  0.78770  0.22990  1.0000 0.1363791481
H   H75       1.0  0.83210  0.71230  0.72990  1.0000 0.1363791481
H   H76       1.0  0.16790  0.21230  0.77010  1.0000 0.1363791481
H   H77       1.0  0.86210  0.05260  0.91330  1.0000 0.1296289936
H   H78       1.0  0.13790  0.55260  0.58670  1.0000 0.1296289936
H   H79       1.0  0.13790  0.94740  0.08670  1.0000 0.1296289936
H   H80       1.0  0.86210  0.44740  0.41330  1.0000 0.1296289936
H   H81       1.0  0.29260  0.05260  0.09620  1.0000 0.3067057908
H   H82       1.0  0.70740  0.55260  0.40380  1.0000 0.3067057908
H   H83       1.0  0.70740  0.94740  0.90380  1.0000 0.3067057908
H   H84       1.0  0.29260  0.44740  0.59620  1.0000 0.3067057908
H   H85       1.0  0.06630  0.07100  0.06910  1.0000 0.2233693108
H   H86       1.0  0.93370  0.57100  0.43090  1.0000 0.2233693108
H   H87       1.0  0.93370  0.92900  0.93090  1.0000 0.2233693108
H   H88       1.0  0.06630  0.42900  0.56910  1.0000 0.2233693108
H   H89       1.0  0.81140  0.14000  0.03380  1.0000 0.2730944745
H   H90       1.0  0.18860  0.64000  0.46620  1.0000 0.2730944745
H   H91       1.0  0.18860  0.86000  0.96620  1.0000 0.2730944745
H   H92       1.0  0.81140  0.36000  0.53380  1.0000 0.2730944745
H   H93       1.0  0.73320  0.12840  0.97900  1.0000 0.2888691232
H   H94       1.0  0.26680  0.62840  0.52100  1.0000 0.2888691232
H   H95       1.0  0.26680  0.87160  0.02100  1.0000 0.2888691232
H   H96       1.0  0.73320  0.37160  0.47900  1.0000 0.2888691232
H   H97       1.0  0.36120  0.14600  0.10120  1.0000 0.2730944745
H   H98       1.0  0.63880  0.64600  0.39880  1.0000 0.2730944745
H   H99       1.0  0.63880  0.85400  0.89880  1.0000 0.2730944745
H   H100      1.0  0.36120  0.35400  0.60120  1.0000 0.2730944745
H   H101      1.0  0.30930  0.16300  0.04800  1.0000 0.2999719709
H   H102      1.0  0.69070  0.66300  0.45200  1.0000 0.2999719709
H   H103      1.0  0.69070  0.83700  0.95200  1.0000 0.2999719709
H   H104      1.0  0.30930  0.33700  0.54800  1.0000 0.2999719709
H   H105      1.0  0.75170  0.05300  0.02550  1.0000 0.2442398325
H   H106      1.0  0.24830  0.55300  0.47450  1.0000 0.2442398325
H   H107      1.0  0.24830  0.94700  0.97450  1.0000 0.2442398325
H   H108      1.0  0.75170  0.44700  0.52550  1.0000 0.2442398325
H   H109      1.0  0.50900  0.04240  0.99640  1.0000 0.2999719709
H   H110      1.0  0.49100  0.54240  0.50360  1.0000 0.2999719709
H   H111      1.0  0.49100  0.95760  0.00360  1.0000 0.2999719709
H   H112      1.0  0.50900  0.45760  0.49640  1.0000 0.2999719709
C   C1        1.0  0.96490  0.19500  0.30290  1.0000 -0.1579235116
C   C2        1.0  0.03510  0.69500  0.19710  1.0000 -0.1579235116
C   C3        1.0  0.03510  0.80500  0.69710  1.0000 -0.1579235116
C   C4        1.0  0.96490  0.30500  0.80290  1.0000 -0.1579235116
C   C5        1.0  0.23010  0.98700  0.56940  1.0000 0.6568046561
C   C6        1.0  0.76990  0.48700  0.93060  1.0000 0.6568046561
C   C7        1.0  0.76990  0.01300  0.43060  1.0000 0.6568046561
C   C8        1.0  0.23010  0.51300  0.06940  1.0000 0.6568046561
C   C9        1.0  0.03720  0.11420  0.63970  1.0000 0.6546631262
C   C10       1.0  0.96280  0.61420  0.86030  1.0000 0.6568046561
C   C11       1.0  0.96280  0.88580  0.36030  1.0000 0.6568046561
C   C12       1.0  0.03720  0.38580  0.13970  1.0000 0.6568046561
C   C13       1.0  0.69010  0.93770  0.65140  1.0000 0.0193920017
C   C14       1.0  0.30990  0.43770  0.84860  1.0000 0.0193920017
C   C15       1.0  0.30990  0.06230  0.34860  1.0000 0.0193920017
C   C16       1.0  0.69010  0.56230  0.15140  1.0000 0.0193920017
C   C17       1.0  0.63190  0.94810  0.69990  1.0000 0.0371241516
C   C18       1.0  0.36810  0.44810  0.80010  1.0000 0.0371241516
C   C19       1.0  0.36810  0.05190  0.30010  1.0000 0.0371241516
C   C20       1.0  0.63190  0.55190  0.19990  1.0000 0.0371241516
C   C21       1.0  0.37440  0.97480  0.61420  1.0000 -0.0227230784
C   C22       1.0  0.62560  0.47480  0.88580  1.0000 -0.0227230784
C   C23       1.0  0.62560  0.02520  0.38580  1.0000 -0.0227230784
C   C24       1.0  0.37440  0.52520  0.11420  1.0000 -0.0227230784
C   C25       1.0  0.45010  0.15760  0.46360  1.0000 -0.0100461465
C   C26       1.0  0.54990  0.65760  0.03640  1.0000 -0.0100461465
C   C27       1.0  0.54990  0.84240  0.53640  1.0000 -0.0100461465
C   C28       1.0  0.45010  0.34240  0.96360  1.0000 -0.0100461465
C   C29       1.0  0.56110  0.94990  0.60860  1.0000 -0.1272215925
C   C30       1.0  0.43890  0.44990  0.89140  1.0000 -0.1272215925
C   C31       1.0  0.43890  0.05010  0.39140  1.0000 -0.1272215925
C   C32       1.0  0.56110  0.55010  0.10860  1.0000 -0.1272215925
C   C33       1.0  0.12530  0.10640  0.95110  1.0000 0.4407519281
C   C34       1.0  0.87470  0.60640  0.54890  1.0000 0.4407519281
C   C35       1.0  0.87470  0.89360  0.04890  1.0000 0.4407519281
C   C36       1.0  0.12530  0.39360  0.45110  1.0000 0.4407519281
C   C37       1.0  0.58220  0.14150  0.50860  1.0000 0.6568046561
C   C38       1.0  0.41780  0.64150  0.99140  1.0000 0.6568046561
C   C39       1.0  0.41780  0.85850  0.49140  1.0000 0.6568046561
C   C40       1.0  0.58220  0.35850  0.00860  1.0000 0.6568046561
C   C41       1.0  0.54880  0.08230  0.72720  1.0000 0.0061085021
C   C42       1.0  0.45120  0.58230  0.77280  1.0000 0.0061085021
C   C43       1.0  0.45120  0.91770  0.27280  1.0000 0.0061085021
C   C44       1.0  0.54880  0.41770  0.22720  1.0000 0.0061085021
C   C45       1.0  0.76110  0.90330  0.77110  1.0000 0.031200964
C   C46       1.0  0.23890  0.40330  0.72890  1.0000 0.031200964
C   C47       1.0  0.23890  0.09670  0.22890  1.0000 0.031200964
C   C48       1.0  0.76110  0.59670  0.27110  1.0000 0.031200964
C   C49       1.0  0.32020  0.98740  0.66220  1.0000 -0.0812734391
C   C50       1.0  0.67980  0.48740  0.83780  1.0000 -0.0812734391
C   C51       1.0  0.67980  0.01260  0.33780  1.0000 -0.0812734391
C   C52       1.0  0.32020  0.51260  0.16220  1.0000 -0.0812734391
C   C53       1.0  0.65350  0.10160  0.81930  1.0000 0.031200964
C   C54       1.0  0.34650  0.60160  0.68070  1.0000 0.031200964
C   C55       1.0  0.34650  0.89840  0.18070  1.0000 0.031200964
C   C56       1.0  0.65350  0.39840  0.31930  1.0000 0.031200964
C   C57       1.0  0.20020  0.10920  0.68490  1.0000 -0.0227230784
C   C58       1.0  0.79980  0.60920  0.81510  1.0000 -0.0256515038
C   C59       1.0  0.79980  0.89080  0.31510  1.0000 -0.0256515038
C   C60       1.0  0.20020  0.39080  0.18490  1.0000 -0.0227230784
C   C61       1.0  0.94800  0.24580  0.24740  1.0000 0.0061085021
C   C62       1.0  0.05200  0.74580  0.25260  1.0000 0.0061085021
C   C63       1.0  0.05200  0.75420  0.75260  1.0000 0.0061085021
C   C64       1.0  0.94800  0.25420  0.74740  1.0000 0.0061085021
C   C65       1.0  0.40120  0.08630  0.68410  1.0000 -0.1272215925
C   C66       1.0  0.59880  0.58630  0.81590  1.0000 -0.1272215925
C   C67       1.0  0.59880  0.91370  0.31590  1.0000 -0.1272215925
C   C68       1.0  0.40120  0.41370  0.18410  1.0000 -0.1272215925
C   C69       1.0  0.77140  0.93720  0.74690  1.0000 0.0371241516
C   C70       1.0  0.22860  0.43720  0.75310  1.0000 0.0371241516
C   C71       1.0  0.22860  0.06280  0.25310  1.0000 0.0371241516
C   C72       1.0  0.77140  0.56280  0.24690  1.0000 0.0371241516
C   C73       1.0  0.23100  0.19420  0.38130  1.0000 0.031200964
C   C74       1.0  0.76900  0.69420  0.11870  1.0000 0.031200964
C   C75       1.0  0.76900  0.80580  0.61870  1.0000 0.031200964
C   C76       1.0  0.23100  0.30580  0.88130  1.0000 0.031200964
C   C77       1.0  0.52670  0.15080  0.41530  1.0000 -0.1006013237
C   C78       1.0  0.47330  0.65080  0.08470  1.0000 -0.1006013237
C   C79       1.0  0.47330  0.84920  0.58470  1.0000 -0.1006013237
C   C80       1.0  0.52670  0.34920  0.91530  1.0000 -0.1006013237
C   C81       1.0  0.50260  0.10160  0.77140  1.0000 0.0371241516
C   C82       1.0  0.49740  0.60160  0.72860  1.0000 0.0371241516
C   C83       1.0  0.49740  0.89840  0.22860  1.0000 0.0371241516
C   C84       1.0  0.50260  0.39840  0.27140  1.0000 0.0371241516
C   C85       1.0  0.92690  0.96290  0.76860  1.0000 -0.1417951032
C   C86       1.0  0.07310  0.46290  0.73140  1.0000 -0.1417951032
C   C87       1.0  0.07310  0.03710  0.23140  1.0000 -0.1417951032
C   C88       1.0  0.92690  0.53710  0.26860  1.0000 -0.1417951032
C   C89       1.0  0.95540  0.10550  0.90600  1.0000 -0.0227230784
C   C90       1.0  0.04460  0.60550  0.59400  1.0000 -0.0227230784
C   C91       1.0  0.04460  0.89450  0.09400  1.0000 -0.0227230784
C   C92       1.0  0.95540  0.39450  0.40600  1.0000 -0.0227230784
C   C93       1.0  0.12750  0.21320  0.33570  1.0000 0.031200964
C   C94       1.0  0.87250  0.71320  0.16430  1.0000 0.031200964
C   C95       1.0  0.87250  0.78680  0.66430  1.0000 0.031200964
C   C96       1.0  0.12750  0.28680  0.83570  1.0000 0.031200964
C   C97       1.0  0.44890  0.97450  0.70380  1.0000 -0.1579235116
C   C98       1.0  0.55110  0.47450  0.79620  1.0000 -0.1579235116
C   C99       1.0  0.55110  0.02550  0.29620  1.0000 -0.1579235116
C   C100      1.0  0.44890  0.52550  0.20380  1.0000 -0.1579235116
C   C101      1.0  0.14990  0.19890  0.43060  1.0000 0.0020555088
C   C102      1.0  0.85010  0.69890  0.06940  1.0000 0.0020555088
C   C103      1.0  0.85010  0.80110  0.56940  1.0000 0.0020555088
C   C104      1.0  0.14990  0.30110  0.93060  1.0000 0.0020555088
C   C105      1.0  0.19770  0.24760  0.32190  1.0000 0.0061085021
C   C106      1.0  0.80230  0.74760  0.17810  1.0000 0.0061085021
C   C107      1.0  0.80230  0.75240  0.67810  1.0000 0.0061085021
C   C108      1.0  0.19770  0.25240  0.82190  1.0000 0.0061085021
C   C109      1.0  0.25830  0.18110  0.47100  1.0000 -0.1467197487
C   C110      1.0  0.74170  0.68110  0.02900  1.0000 -0.1467197487
C   C111      1.0  0.74170  0.81890  0.52900  1.0000 -0.1467197487
C   C112      1.0  0.25830  0.31890  0.97100  1.0000 -0.1417951032
C   C113      1.0  0.87240  0.21140  0.25980  1.0000 -0.0812734391
C   C114      1.0  0.12760  0.71140  0.24020  1.0000 -0.0812734391
C   C115      1.0  0.12760  0.78860  0.74020  1.0000 -0.0812734391
C   C116      1.0  0.87240  0.28860  0.75980  1.0000 -0.0812734391
C   C117      1.0  0.91010  0.89470  0.81190  1.0000 -0.176843141
C   C118      1.0  0.08990  0.39470  0.68810  1.0000 -0.176843141
C   C119      1.0  0.08990  0.10530  0.18810  1.0000 -0.176843141
C   C120      1.0  0.91010  0.60530  0.31190  1.0000 -0.176843141
C   C121      1.0  0.30330  0.12520  0.77030  1.0000 -0.1467197487
C   C122      1.0  0.69670  0.62520  0.72970  1.0000 -0.1467197487
C   C123      1.0  0.69670  0.87480  0.22970  1.0000 -0.1467197487
C   C124      1.0  0.30330  0.37480  0.27030  1.0000 -0.1467197487
C   C125      1.0  0.15250  0.12840  0.72860  1.0000 -0.0692932036
C   C126      1.0  0.84750  0.62840  0.77140  1.0000 -0.0692932036
C   C127      1.0  0.84750  0.87160  0.27140  1.0000 -0.0692932036
C   C128      1.0  0.15250  0.37160  0.22860  1.0000 -0.0692932036
C   C129      1.0  0.07260  0.92080  0.83140  1.0000 -0.0256515038
C   C130      1.0  0.92740  0.42080  0.66860  1.0000 -0.0256515038
C   C131      1.0  0.92740  0.07920  0.16860  1.0000 -0.0256515038
C   C132      1.0  0.07260  0.57920  0.33140  1.0000 -0.0256515038
C   C133      1.0  0.24190  0.91280  0.87490  1.0000 0.4341375932
C   C134      1.0  0.75810  0.41280  0.62510  1.0000 0.4341375932
C   C135      1.0  0.75810  0.08720  0.12510  1.0000 0.4341375932
C   C136      1.0  0.24190  0.58720  0.37490  1.0000 0.4341375932
C   C137      1.0  0.07350  0.95500  0.81060  1.0000 -0.1006013237
C   C138      1.0  0.92650  0.45500  0.68940  1.0000 -0.1006013237
C   C139      1.0  0.92650  0.04500  0.18940  1.0000 -0.1006013237
C   C140      1.0  0.07350  0.54500  0.31060  1.0000 -0.1006013237
C   C141      1.0  0.76690  0.13370  0.83340  1.0000 -0.1467197487
C   C142      1.0  0.23310  0.63370  0.66667  1.0000 -0.1467197487
C   C143      1.0  0.23310  0.86630  0.16660  1.0000 -0.1467197487
C   C144      1.0  0.76690  0.36630  0.33340  1.0000 -0.1467197487
C   C145      1.0  0.41600  0.16880  0.37500  1.0000 -0.1671018868
C   C146      1.0  0.58400  0.66880  0.12500  1.0000 -0.1671018868
C   C147      1.0  0.58400  0.83120  0.62500  1.0000 -0.1671018868
C   C148      1.0  0.41600  0.33120  0.87500  1.0000 -0.1671018868
C   C149      1.0  0.68650  0.07200  0.85110  1.0000 0.0371241516
C   C150      1.0  0.31350  0.57200  0.64890  1.0000 0.0371241516
C   C151      1.0  0.31350  0.92800  0.14890  1.0000 0.0371241516
C   C152      1.0  0.68650  0.42800  0.35110  1.0000 0.0371241516
C   C153      1.0  0.91400  0.13580  0.87690  1.0000 -0.1175164252
C   C154      1.0  0.08600  0.63580  0.62310  1.0000 -0.1175164252
C   C155      1.0  0.08600  0.86420  0.12310  1.0000 -0.1175164252
C   C156      1.0  0.91400  0.36420  0.37690  1.0000 -0.1175164252
C   C157      1.0  0.11500  0.26450  0.27840  1.0000 -0.1579235116
C   C158      1.0  0.88500  0.76450  0.22160  1.0000 -0.1579235116
C   C159      1.0  0.88500  0.73550  0.72160  1.0000 -0.1579235116
C   C160      1.0  0.11500  0.23550  0.77840  1.0000 -0.1579235116
C   C161      1.0  0.83900  0.07320  0.89350  1.0000 -0.1671018868
C   C162      1.0  0.16100  0.57320  0.60650  1.0000 -0.1671018868
C   C163      1.0  0.16100  0.92680  0.10650  1.0000 -0.1671018868
C   C164      1.0  0.83900  0.42680  0.39350  1.0000 -0.1671018868
C   C165      1.0  0.84500  0.26620  0.20280  1.0000 0.5612759993
C   C166      1.0  0.15500  0.76620  0.29720  1.0000 0.5612759993
C   C167      1.0  0.15500  0.73380  0.79720  1.0000 0.5612759993
C   C168      1.0  0.84500  0.23380  0.70280  1.0000 0.5612759993
N   N1        1.0  0.88920  0.91140  0.64230  1.0000 0.4895131991
N   N2        1.0  0.11080  0.41140  0.85770  1.0000 0.4895131991
N   N3        1.0  0.11080  0.08860  0.35770  1.0000 0.4895131991
N   N4        1.0  0.88920  0.58860  0.14230  1.0000 0.4895131991
N   N5        1.0  0.75950  0.05780  0.72270  1.0000 0.4797174737
N   N6        1.0  0.24050  0.55780  0.77730  1.0000 0.4797174737
N   N7        1.0  0.24050  0.94220  0.27730  1.0000 0.4797174737
N   N8        1.0  0.75950  0.44220  0.22270  1.0000 0.4797174737
N   N9        1.0  0.58780  0.87530  0.75400  1.0000 0.4977321431
N   N10       1.0  0.41220  0.37530  0.74600  1.0000 0.4977321431
N   N11       1.0  0.41220  0.12470  0.24600  1.0000 0.4977321431
N   N12       1.0  0.58780  0.62470  0.25400  1.0000 0.4977321431
N   N13       1.0  0.95100  0.22400  0.44090  1.0000 0.467810935
N   N14       1.0  0.04900  0.72400  0.05910  1.0000 0.467810935
N   N15       1.0  0.04900  0.77600  0.55910  1.0000 0.467810935
N   N16       1.0  0.95100  0.27600  0.94090  1.0000 0.467810935
N   N17       1.0  0.55900  0.03730  0.84190  1.0000 0.467810935
N   N18       1.0  0.44100  0.53730  0.65810  1.0000 0.4797174737
N   N19       1.0  0.44100  0.96270  0.15810  1.0000 0.467810935
N   N20       1.0  0.55900  0.46270  0.34190  1.0000 0.467810935
N   N21       1.0  0.36500  0.26920  0.35360  1.0000 0.463857393
N   N22       1.0  0.63500  0.76920  0.14640  1.0000 0.463857393
N   N23       1.0  0.63500  0.73080  0.64640  1.0000 0.463857393
N   N24       1.0  0.36500  0.23080  0.85360  1.0000 0.463857393
O   O1        1.0  0.07400  0.01190  0.57480  1.0000 -0.6284210726
O   O2        1.0  0.92600  0.51190  0.92520  1.0000 -0.6284210726
O   O3        1.0  0.92600  0.98810  0.42520  1.0000 -0.6284210726
O   O4        1.0  0.07400  0.48810  0.07480  1.0000 -0.6284210726
O   O5        1.0  0.08390  0.09555  0.60110  1.0000 -0.6236506969
O   O6        1.0  0.91610  0.59555  0.89890  1.0000 -0.6236506969
O   O7        1.0  0.91610  0.90445  0.39890  1.0000 -0.6236506969
O   O8        1.0  0.08390  0.40445  0.10110  1.0000 -0.6236506969
O   O9        1.0  0.72250  0.11495  0.50160  1.0000 -0.6284210726
O   O10       1.0  0.27750  0.61495  0.99840  1.0000 -0.6284210726
O   O11       1.0  0.27750  0.88505  0.49840  1.0000 -0.6284210726
O   O12       1.0  0.72250  0.38505  0.00160  1.0000 -0.6284210726
O   O13       1.0  0.55080  0.15577  0.55020  1.0000 -0.6092813804
O   O14       1.0  0.44920  0.65577  0.94980  1.0000 -0.6092813804
O   O15       1.0  0.44920  0.84423  0.44980  1.0000 -0.6092813804
O   O16       1.0  0.55080  0.34423  0.05020  1.0000 -0.6092813804
O   O17       1.0  0.20200  0.07750  0.96740  1.0000 -0.5209288642
O   O18       1.0  0.79800  0.57750  0.53260  1.0000 -0.5209288642
O   O19       1.0  0.79800  0.92250  0.03260  1.0000 -0.5209288642
O   O20       1.0  0.20200  0.42250  0.46740  1.0000 -0.5209288642
O   O21       1.0  0.44600  0.23576  0.57420  1.0000 -0.7656035021
O   O22       1.0  0.55400  0.73576  0.92580  1.0000 -0.7656035021
O   O23       1.0  0.55400  0.76424  0.42580  1.0000 -0.7656035021
O   O24       1.0  0.44600  0.26424  0.07420  1.0000 -0.7656035021
O   O25       1.0  0.63370  0.05530  0.57210  1.0000 -0.6491980405
O   O26       1.0  0.36630  0.55530  0.92790  1.0000 -0.6553867057
O   O27       1.0  0.36630  0.94470  0.42790  1.0000 -0.6553867057
O   O28       1.0  0.63370  0.44470  0.07210  1.0000 -0.6491980405
O   O29       1.0  0.16660  0.07030  0.50200  1.0000 -0.6669137075
O   O30       1.0  0.83340  0.57030  0.99800  1.0000 -0.6669137075
O   O31       1.0  0.83340  0.92970  0.49800  1.0000 -0.6669137075
O   O32       1.0  0.16660  0.42970  0.00200  1.0000 -0.6669137075
O   O33       1.0  0.41750  0.18010  0.65020  1.0000 -0.6491980405
O   O34       1.0  0.58250  0.68010  0.84980  1.0000 -0.6491980405
O   O35       1.0  0.58250  0.81990  0.34980  1.0000 -0.6491980405
O   O36       1.0  0.41750  0.31990  0.15020  1.0000 -0.6491980405
O   O37       1.0  0.86050  0.13607  0.64190  1.0000 -0.6236506969
O   O38       1.0  0.13950  0.63607  0.85810  1.0000 -0.6236506969
O   O39       1.0  0.13950  0.86393  0.35810  1.0000 -0.6236506969
O   O40       1.0  0.86050  0.36393  0.14190  1.0000 -0.6236506969
O   O41       1.0  0.98380  0.91200  0.60160  1.0000 -0.2882289434
O   O42       1.0  0.01620  0.41200  0.89840  1.0000 -0.2882289434
O   O43       1.0  0.01620  0.08800  0.39840  1.0000 -0.2882289434
O   O44       1.0  0.98380  0.58800  0.10160  1.0000 -0.2882289434
O   O45       1.0  0.89030  0.05250  0.75980  1.0000 -0.3234203651
O   O46       1.0  0.10970  0.55250  0.74020  1.0000 -0.3234203651
O   O47       1.0  0.10970  0.94750  0.24020  1.0000 -0.3234203651
O   O48       1.0  0.89030  0.44750  0.25980  1.0000 -0.3234203651
O   O49       1.0  0.94830  0.20270  0.58630  1.0000 -0.6843640103
O   O50       1.0  0.05170  0.70270  0.91370  1.0000 -0.6843640103
O   O51       1.0  0.05170  0.79730  0.41370  1.0000 -0.6843640103
O   O52       1.0  0.94830  0.29730  0.08630  1.0000 -0.6843640103
O   O53       1.0  0.79900  0.04410  0.68240  1.0000 -0.2882289434
O   O54       1.0  0.20100  0.54410  0.81760  1.0000 -0.2882289434
O   O55       1.0  0.20100  0.95590  0.31760  1.0000 -0.2882289434
O   O56       1.0  0.79900  0.45590  0.18240  1.0000 -0.2882289434
O   O57       1.0  0.94650  0.89020  0.67510  1.0000 -0.3092784454
O   O58       1.0  0.05350  0.39020  0.82490  1.0000 -0.3092784454
O   O59       1.0  0.05350  0.10980  0.32490  1.0000 -0.3092784454
O   O60       1.0  0.94650  0.60980  0.17510  1.0000 -0.3092784454
O   O61       1.0  0.41710  0.88410  0.72670  1.0000 -0.3092784454
O   O62       1.0  0.58290  0.38410  0.77330  1.0000 -0.3092784454
O   O63       1.0  0.58290  0.11590  0.27330  1.0000 -0.3092784454
O   O64       1.0  0.41710  0.61590  0.22670  1.0000 -0.3092784454
O   O65       1.0  0.62610  0.84410  0.76750  1.0000 -0.3289248317
O   O66       1.0  0.37390  0.34410  0.73250  1.0000 -0.3289248317
O   O67       1.0  0.37390  0.15590  0.23250  1.0000 -0.3289248317
O   O68       1.0  0.62610  0.65590  0.26750  1.0000 -0.3289248317
O   O69       1.0  0.32600  0.93760  0.90040  1.0000 -0.5387943282
O   O70       1.0  0.67400  0.43760  0.59960  1.0000 -0.5387943282
O   O71       1.0  0.67400  0.06240  0.09960  1.0000 -0.5387943282
O   O72       1.0  0.32600  0.56240  0.40040  1.0000 -0.5387943282
O   O73       1.0  0.38700  0.03690  0.81370  1.0000 -0.2882289434
O   O74       1.0  0.61300  0.53690  0.68630  1.0000 -0.2882289434
O   O75       1.0  0.61300  0.96310  0.18630  1.0000 -0.2882289434
O   O76       1.0  0.38700  0.46310  0.31370  1.0000 -0.2882289434
O   O77       1.0  0.19600  0.13350  0.97120  1.0000 -0.4908036783
O   O78       1.0  0.80400  0.63350  0.52880  1.0000 -0.4908036783
O   O79       1.0  0.80400  0.86650  0.02880  1.0000 -0.4908036783
O   O80       1.0  0.19600  0.36650  0.47120  1.0000 -0.4908036783
O   O81       1.0  0.83800  0.23700  0.40940  1.0000 -0.2385717625
O   O82       1.0  0.16200  0.73700  0.09060  1.0000 -0.2385717625
O   O83       1.0  0.16200  0.76300  0.59060  1.0000 -0.2385717625
O   O84       1.0  0.83800  0.26300  0.90940  1.0000 -0.2385717625
O   O85       1.0  0.34700  0.26770  0.39740  1.0000 -0.2385717625
O   O86       1.0  0.65300  0.76770  0.10260  1.0000 -0.245673646
O   O87       1.0  0.65300  0.73230  0.60260  1.0000 -0.245673646
O   O88       1.0  0.34700  0.23230  0.89740  1.0000 -0.2385717625
O   O89       1.0  0.88490  0.29987  0.19910  1.0000 -0.5693672493
O   O90       1.0  0.11510  0.79987  0.30090  1.0000 -0.5693672493
O   O91       1.0  0.11510  0.70013  0.80090  1.0000 -0.5693672493
O   O92       1.0  0.88490  0.20013  0.69910  1.0000 -0.5693672493
O   O93       1.0  0.72490  0.25049  0.16830  1.0000 -0.5946898058
O   O94       1.0  0.27510  0.75049  0.33170  1.0000 -0.5946898058
O   O95       1.0  0.27510  0.74951  0.83170  1.0000 -0.5946898058
O   O96       1.0  0.72490  0.24951  0.66830  1.0000 -0.5946898058
O   O97       1.0  0.63500  0.01050  0.86250  1.0000 -0.3092784454
O   O98       1.0  0.36500  0.51050  0.63750  1.0000 -0.3092784454
O   O99       1.0  0.36500  0.98950  0.13750  1.0000 -0.3092784454
O   O100      1.0  0.63500  0.48950  0.36250  1.0000 -0.3092784454
O   O101      1.0  0.87400  0.22630  0.48040  1.0000 -0.2148354545
O   O102      1.0  0.12600  0.72630  0.01960  1.0000 -0.2182742019
O   O103      1.0  0.12600  0.77370  0.51960  1.0000 -0.2182742019
O   O104      1.0  0.87400  0.27370  0.98040  1.0000 -0.2182742019
O   O105      1.0  0.48400  0.29050  0.33850  1.0000 -0.2182742019
O   O106      1.0  0.51600  0.79050  0.16150  1.0000 -0.2182742019
O   O107      1.0  0.51600  0.70950  0.66150  1.0000 -0.2182742019
O   O108      1.0  0.48400  0.20950  0.83850  1.0000 -0.2182742019
O   O109      1.0  0.29920  0.88160  0.88600  1.0000 -0.5387943282
O   O110      1.0  0.70080  0.38160  0.61400  1.0000 -0.5387943282
O   O111      1.0  0.70080  0.11840  0.11400  1.0000 -0.533807595
O   O112      1.0  0.29920  0.61840  0.38600  1.0000 -0.533807595
O   O113      1.0  0.26850  0.97171  0.52770  1.0000 -0.6284210726
O   O114      1.0  0.73150  0.47171  0.97230  1.0000 -0.6284210726
O   O115      1.0  0.73150  0.02829  0.47230  1.0000 -0.6284210726
O   O116      1.0  0.26850  0.52829  0.02770  1.0000 -0.6284210726
O   O117      1.0  0.22800  0.06130  0.06460  1.0000 -0.6491980405
O   O118      1.0  0.77200  0.56130  0.43540  1.0000 -0.6491980405
O   O119      1.0  0.77200  0.93870  0.93540  1.0000 -0.6491980405
O   O120      1.0  0.22800  0.43870  0.56460  1.0000 -0.6491980405
O   O121      1.0  0.67500  0.13670  0.01080  1.0000 -0.6491980405
O   O122      1.0  0.32500  0.63670  0.48920  1.0000 -0.6491980405
O   O123      1.0  0.32500  0.86330  0.98920  1.0000 -0.6491980405
O   O124      1.0  0.67500  0.36330  0.51080  1.0000 -0.6491980405
O   O125      1.0  0.29000  0.14170  0.06830  1.0000 -0.6284210726
O   O126      1.0  0.71000  0.64170  0.43170  1.0000 -0.6284210726
O   O127      1.0  0.71000  0.85830  0.93170  1.0000 -0.6284210726
O   O128      1.0  0.29000  0.35830  0.56830  1.0000 -0.6284210726
O   O129      1.0  0.62100  0.06190  0.00410  1.0000 -0.6092813804
O   O130      1.0  0.37900  0.56190  0.49590  1.0000 -0.6092813804
O   O131      1.0  0.37900  0.93810  0.99590  1.0000 -0.6092813804
O   O132      1.0  0.62100  0.43810  0.50410  1.0000 -0.6092813804
