# DDEC6 charges by PACMAN v1.1 (https://github.com/mtap-research/PACMAN-charge/)
data_2007[Fe][dia]3[FSR]10
_chemical_formula_sum              "Fe12 H24 C24 O48"
_cell_length_a       11.3369
_cell_length_b       9.8474
_cell_length_c       18.1884
_cell_angle_alpha    90
_cell_angle_beta     127.407
_cell_angle_gamma    90

_symmetry_space_group_name_H-M    "P 1"
_symmetry_Int_Tables_number       1

loop_
  _symmetry_equiv_pos_as_xyz
  'x, y, z'

loop_
  _atom_site_type_symbol
  _atom_site_label
  _atom_site_symmetry_multiplicity
  _atom_site_fract_x
  _atom_site_fract_y
  _atom_site_fract_z
  _atom_site_occupancy
  _atom_site_charge
Fe  Fe1       1.0  0.62294  0.91782  0.86765  1.0000 0.9072251187
Fe  Fe2       1.0  0.37706  0.41782  0.63235  1.0000 0.9045669204
Fe  Fe3       1.0  0.37706  0.08218  0.13235  1.0000 0.9072251187
Fe  Fe4       1.0  0.62294  0.58218  0.36765  1.0000 0.9045669204
Fe  Fe5       1.0  0.57559  0.89607  0.31464  1.0000 0.9072251187
Fe  Fe6       1.0  0.42441  0.39607  0.18536  1.0000 0.9072251187
Fe  Fe7       1.0  0.42441  0.10393  0.68536  1.0000 0.9072251187
Fe  Fe8       1.0  0.57559  0.60393  0.81464  1.0000 0.9072251187
Fe  Fe9       1.0  0.50000  0.00000  0.00000  1.0000 0.9369640714
Fe  Fe10      1.0  0.50000  0.50000  0.50000  1.0000 0.9344416624
Fe  Fe11      1.0  0.00000  0.00000  0.00000  1.0000 0.948190636
Fe  Fe12      1.0  0.00000  0.50000  0.50000  1.0000 0.948190636
H   H1        1.0  0.49230  0.74720  0.63160  1.0000 0.1118116281
H   H2        1.0  0.50770  0.24720  0.86840  1.0000 0.1118116281
H   H3        1.0  0.50770  0.25280  0.36840  1.0000 0.1118116281
H   H4        1.0  0.49230  0.75280  0.13160  1.0000 0.1118116281
H   H5        1.0  0.20300  0.02220  0.73010  1.0000 0.1176624364
H   H6        1.0  0.79700  0.52220  0.76990  1.0000 0.1176624364
H   H7        1.0  0.79700  0.97780  0.26990  1.0000 0.1176624364
H   H8        1.0  0.20300  0.47780  0.23010  1.0000 0.1176624364
H   H9        1.0  0.52310  0.61500  0.96590  1.0000 0.1118116281
H   H10       1.0  0.47690  0.11500  0.53410  1.0000 0.1118116281
H   H11       1.0  0.47690  0.38500  0.03410  1.0000 0.1118116281
H   H12       1.0  0.52310  0.88500  0.46590  1.0000 0.1118116281
H   H13       1.0  0.74830  0.17250  0.75780  1.0000 0.1118116281
H   H14       1.0  0.25170  0.67250  0.74220  1.0000 0.1118116281
H   H15       1.0  0.25170  0.82750  0.24220  1.0000 0.1118116281
H   H16       1.0  0.74830  0.32750  0.25780  1.0000 0.1118116281
H   H17       1.0  0.76650  0.16970  0.06850  1.0000 0.1118116281
H   H18       1.0  0.23350  0.66970  0.43150  1.0000 0.1118116281
H   H19       1.0  0.23350  0.83030  0.93150  1.0000 0.1118116281
H   H20       1.0  0.76650  0.33030  0.56850  1.0000 0.1118116281
H   H21       1.0  0.98670  0.69870  0.00330  1.0000 0.1176624364
H   H22       1.0  0.01330  0.19870  0.49670  1.0000 0.1176624364
H   H23       1.0  0.01330  0.30130  0.99670  1.0000 0.1176624364
H   H24       1.0  0.98670  0.80130  0.50330  1.0000 0.1176624364
C   C1        1.0  0.49760  0.81970  0.66800  1.0000 0.4543508357
C   C2        1.0  0.50240  0.31970  0.83200  1.0000 0.4543508357
C   C3        1.0  0.50240  0.18030  0.33200  1.0000 0.4543508357
C   C4        1.0  0.49760  0.68030  0.16800  1.0000 0.4617291059
C   C5        1.0  0.29970  0.00540  0.78550  1.0000 0.436996687
C   C6        1.0  0.70030  0.50540  0.71450  1.0000 0.436996687
C   C7        1.0  0.70030  0.99460  0.21450  1.0000 0.436996687
C   C8        1.0  0.29970  0.49460  0.28550  1.0000 0.436996687
C   C9        1.0  0.53190  0.70850  0.95710  1.0000 0.436996687
C   C10       1.0  0.46810  0.20850  0.54290  1.0000 0.4293533118
C   C11       1.0  0.46810  0.29150  0.04290  1.0000 0.4293533118
C   C12       1.0  0.53190  0.79150  0.45710  1.0000 0.4293533118
C   C13       1.0  0.76670  0.11900  0.80720  1.0000 0.4293533118
C   C14       1.0  0.23330  0.61900  0.69280  1.0000 0.4293533118
C   C15       1.0  0.23330  0.88100  0.19280  1.0000 0.4293533118
C   C16       1.0  0.76670  0.38100  0.30720  1.0000 0.4293533118
C   C17       1.0  0.77330  0.11150  0.02950  1.0000 0.4617291059
C   C18       1.0  0.22670  0.61150  0.47050  1.0000 0.4691923624
C   C19       1.0  0.22670  0.88850  0.97050  1.0000 0.4691923624
C   C20       1.0  0.77330  0.38850  0.52950  1.0000 0.4617291059
C   C21       1.0  0.88380  0.71480  0.95690  1.0000 0.4691923624
C   C22       1.0  0.11620  0.21480  0.54310  1.0000 0.4691923624
C   C23       1.0  0.11620  0.28520  0.04310  1.0000 0.4691923624
C   C24       1.0  0.88380  0.78520  0.45690  1.0000 0.4691923624
O   O1        1.0  0.56310  0.79525  0.75371  1.0000 -0.5403928878
O   O2        1.0  0.43690  0.29525  0.74629  1.0000 -0.5403928878
O   O3        1.0  0.43690  0.20475  0.24629  1.0000 -0.5403928878
O   O4        1.0  0.56310  0.70475  0.25371  1.0000 -0.5403928878
O   O5        1.0  0.44060  0.92869  0.62794  1.0000 -0.4708110476
O   O6        1.0  0.55940  0.42869  0.87206  1.0000 -0.4708110476
O   O7        1.0  0.55940  0.07131  0.37206  1.0000 -0.4708110476
O   O8        1.0  0.44060  0.57131  0.12794  1.0000 -0.4708110476
O   O9        1.0  0.40500  0.99955  0.77908  1.0000 -0.5403928878
O   O10       1.0  0.59500  0.49955  0.72092  1.0000 -0.5403928878
O   O11       1.0  0.59500  0.00045  0.22092  1.0000 -0.5403928878
O   O12       1.0  0.40500  0.50045  0.27908  1.0000 -0.5403928878
O   O13       1.0  0.31150  0.99110  0.85733  1.0000 -0.479043954
O   O14       1.0  0.68850  0.49110  0.64267  1.0000 -0.479043954
O   O15       1.0  0.68850  0.00890  0.14267  1.0000 -0.479043954
O   O16       1.0  0.31150  0.50890  0.35733  1.0000 -0.479043954
O   O17       1.0  0.54660  0.73809  0.89495  1.0000 -0.5403928878
O   O18       1.0  0.45340  0.23809  0.60505  1.0000 -0.5403928878
O   O19       1.0  0.45340  0.26191  0.10505  1.0000 -0.5403928878
O   O20       1.0  0.54660  0.76191  0.39495  1.0000 -0.5403928878
O   O21       1.0  0.52810  0.79050  0.00727  1.0000 -0.486643535
O   O22       1.0  0.47190  0.29050  0.49273  1.0000 -0.486643535
O   O23       1.0  0.47190  0.20950  0.99273  1.0000 -0.486643535
O   O24       1.0  0.52810  0.70950  0.50727  1.0000 -0.486643535
O   O25       1.0  0.65340  0.07955  0.80115  1.0000 -0.5403928878
O   O26       1.0  0.34660  0.57955  0.69885  1.0000 -0.5403928878
O   O27       1.0  0.34660  0.92045  0.19885  1.0000 -0.5403928878
O   O28       1.0  0.65340  0.42045  0.30115  1.0000 -0.5403928878
O   O29       1.0  0.89690  0.09391  0.87101  1.0000 -0.4601706946
O   O30       1.0  0.10310  0.59391  0.62899  1.0000 -0.4601706946
O   O31       1.0  0.10310  0.90609  0.12899  1.0000 -0.4601706946
O   O32       1.0  0.89690  0.40609  0.37101  1.0000 -0.4601706946
O   O33       1.0  0.66400  0.03007  0.97690  1.0000 -0.5566026205
O   O34       1.0  0.33600  0.53007  0.52310  1.0000 -0.5566026205
O   O35       1.0  0.33600  0.96993  0.02310  1.0000 -0.5566026205
O   O36       1.0  0.66400  0.46993  0.47690  1.0000 -0.5566026205
O   O37       1.0  0.88530  0.12115  0.03414  1.0000 -0.479043954
O   O38       1.0  0.11470  0.62115  0.46586  1.0000 -0.479043954
O   O39       1.0  0.11470  0.87885  0.96586  1.0000 -0.479043954
O   O40       1.0  0.88530  0.37885  0.53414  1.0000 -0.479043954
O   O41       1.0  0.83900  0.83830  0.94312  1.0000 -0.5455710376
O   O42       1.0  0.16100  0.33830  0.55688  1.0000 -0.5455710376
O   O43       1.0  0.16100  0.16170  0.05688  1.0000 -0.5455710376
O   O44       1.0  0.83900  0.66170  0.44312  1.0000 -0.5455710376
O   O45       1.0  0.80370  0.61433  0.91462  1.0000 -0.486643535
O   O46       1.0  0.19630  0.11433  0.58538  1.0000 -0.486643535
O   O47       1.0  0.19630  0.38567  0.08538  1.0000 -0.486643535
O   O48       1.0  0.80370  0.88567  0.41462  1.0000 -0.486643535
