# DDEC6 charges by PACMAN v1.1 (https://github.com/mtap-research/PACMAN-charge/)
data_2007[Fe][dia]3[FSR]2
_chemical_formula_sum              "Fe12 H24 C24 O48"
_cell_length_a       11.3806
_cell_length_b       9.8451
_cell_length_c       18.3883
_cell_angle_alpha    90
_cell_angle_beta     126.909
_cell_angle_gamma    90

_symmetry_space_group_name_H-M    "P 1"
_symmetry_Int_Tables_number       1

loop_
  _symmetry_equiv_pos_as_xyz
  'x, y, z'

loop_
  _atom_site_type_symbol
  _atom_site_label
  _atom_site_symmetry_multiplicity
  _atom_site_fract_x
  _atom_site_fract_y
  _atom_site_fract_z
  _atom_site_occupancy
  _atom_site_charge
Fe  Fe1       1.0  0.62246  0.91597  0.86692  1.0000 0.9107533756
Fe  Fe2       1.0  0.37754  0.41597  0.63308  1.0000 0.9107533756
Fe  Fe3       1.0  0.37754  0.08403  0.13308  1.0000 0.9107533756
Fe  Fe4       1.0  0.62246  0.58403  0.36692  1.0000 0.9107533756
Fe  Fe5       1.0  0.57349  0.89620  0.31262  1.0000 0.9107533756
Fe  Fe6       1.0  0.42651  0.39620  0.18738  1.0000 0.9107533756
Fe  Fe7       1.0  0.42651  0.10380  0.68738  1.0000 0.9107533756
Fe  Fe8       1.0  0.57349  0.60380  0.81262  1.0000 0.9107533756
Fe  Fe9       1.0  0.50000  0.00000  0.00000  1.0000 0.9585486117
Fe  Fe10      1.0  0.50000  0.50000  0.50000  1.0000 0.9585486117
Fe  Fe11      1.0  0.00000  0.00000  0.00000  1.0000 1.0029630724
Fe  Fe12      1.0  0.00000  0.50000  0.50000  1.0000 1.0029630724
H   H1        1.0  0.50190  0.75180  0.63470  1.0000 0.1095017321
H   H2        1.0  0.49810  0.25180  0.86530  1.0000 0.1095017321
H   H3        1.0  0.49810  0.24820  0.36530  1.0000 0.1095017321
H   H4        1.0  0.50190  0.74820  0.13470  1.0000 0.1095017321
H   H5        1.0  0.21070  0.02870  0.73600  1.0000 0.1095017321
H   H6        1.0  0.78930  0.52870  0.76400  1.0000 0.1095017321
H   H7        1.0  0.78930  0.97130  0.26400  1.0000 0.1095017321
H   H8        1.0  0.21070  0.47130  0.23600  1.0000 0.1095017321
H   H9        1.0  0.51700  0.61470  0.96040  1.0000 0.1095017321
H   H10       1.0  0.48300  0.11470  0.53960  1.0000 0.1095017321
H   H11       1.0  0.48300  0.38530  0.03960  1.0000 0.1095017321
H   H12       1.0  0.51700  0.88530  0.46040  1.0000 0.1095017321
H   H13       1.0  0.75200  0.18730  0.76950  1.0000 0.1095017321
H   H14       1.0  0.24800  0.68730  0.73050  1.0000 0.1095017321
H   H15       1.0  0.24800  0.81270  0.23050  1.0000 0.1095017321
H   H16       1.0  0.75200  0.31270  0.26950  1.0000 0.1095017321
H   H17       1.0  0.77410  0.15490  0.07260  1.0000 0.1095017321
H   H18       1.0  0.22590  0.65490  0.42740  1.0000 0.1095017321
H   H19       1.0  0.22590  0.84510  0.92740  1.0000 0.1095017321
H   H20       1.0  0.77410  0.34510  0.57260  1.0000 0.1095017321
H   H21       1.0  0.98350  0.69930  0.99080  1.0000 0.1191178698
H   H22       1.0  0.01650  0.19930  0.50920  1.0000 0.1191178698
H   H23       1.0  0.01650  0.30070  0.00920  1.0000 0.1191178698
H   H24       1.0  0.98350  0.80070  0.49080  1.0000 0.1191178698
C   C1        1.0  0.50440  0.82220  0.67090  1.0000 0.4540769904
C   C2        1.0  0.49560  0.32220  0.82910  1.0000 0.4540769904
C   C3        1.0  0.49560  0.17780  0.32910  1.0000 0.4540769904
C   C4        1.0  0.50440  0.67780  0.17090  1.0000 0.4540769904
C   C5        1.0  0.30660  0.00990  0.78930  1.0000 0.4366193402
C   C6        1.0  0.69340  0.50990  0.71070  1.0000 0.4366193402
C   C7        1.0  0.69340  0.99010  0.21070  1.0000 0.4366193402
C   C8        1.0  0.30660  0.49010  0.28930  1.0000 0.4366193402
C   C9        1.0  0.52600  0.70830  0.95210  1.0000 0.4366193402
C   C10       1.0  0.47400  0.20830  0.54790  1.0000 0.4366193402
C   C11       1.0  0.47400  0.29170  0.04790  1.0000 0.4366193402
C   C12       1.0  0.52600  0.79170  0.45210  1.0000 0.4366193402
C   C13       1.0  0.76770  0.12740  0.81510  1.0000 0.4294268552
C   C14       1.0  0.23230  0.62740  0.68490  1.0000 0.4294268552
C   C15       1.0  0.23230  0.87260  0.18490  1.0000 0.4294268552
C   C16       1.0  0.76770  0.37260  0.31510  1.0000 0.4294268552
C   C17       1.0  0.77580  0.10020  0.03070  1.0000 0.4611337546
C   C18       1.0  0.22420  0.60020  0.46930  1.0000 0.4611337546
C   C19       1.0  0.22420  0.89980  0.96930  1.0000 0.4611337546
C   C20       1.0  0.77580  0.39980  0.53070  1.0000 0.4611337546
C   C21       1.0  0.88130  0.71780  0.94900  1.0000 0.4540769904
C   C22       1.0  0.11870  0.21780  0.55100  1.0000 0.4540769904
C   C23       1.0  0.11870  0.28220  0.05100  1.0000 0.4611337546
C   C24       1.0  0.88130  0.78220  0.44900  1.0000 0.4540769904
O   O1        1.0  0.56460  0.79420  0.75431  1.0000 -0.5415923762
O   O2        1.0  0.43540  0.29420  0.74569  1.0000 -0.5415923762
O   O3        1.0  0.43540  0.20580  0.24569  1.0000 -0.5514963356
O   O4        1.0  0.56460  0.70580  0.25431  1.0000 -0.5415923762
O   O5        1.0  0.44950  0.93170  0.63310  1.0000 -0.4701116283
O   O6        1.0  0.55050  0.43170  0.86690  1.0000 -0.4701116283
O   O7        1.0  0.55050  0.06830  0.36690  1.0000 -0.4701116283
O   O8        1.0  0.44950  0.56830  0.13310  1.0000 -0.4701116283
O   O9        1.0  0.40900  0.99850  0.78065  1.0000 -0.5415923762
O   O10       1.0  0.59100  0.49850  0.71935  1.0000 -0.5415923762
O   O11       1.0  0.59100  0.00150  0.21935  1.0000 -0.5415923762
O   O12       1.0  0.40900  0.50150  0.28065  1.0000 -0.5415923762
O   O13       1.0  0.32170  0.99840  0.86164  1.0000 -0.4876803872
O   O14       1.0  0.67830  0.49840  0.63836  1.0000 -0.4876803872
O   O15       1.0  0.67830  0.00160  0.13836  1.0000 -0.4876803872
O   O16       1.0  0.32170  0.50160  0.36164  1.0000 -0.4876803872
O   O17       1.0  0.54560  0.73820  0.89283  1.0000 -0.5415923762
O   O18       1.0  0.45440  0.23820  0.60717  1.0000 -0.5415923762
O   O19       1.0  0.45440  0.26180  0.10717  1.0000 -0.5415923762
O   O20       1.0  0.54560  0.76180  0.39283  1.0000 -0.5415923762
O   O21       1.0  0.51750  0.78970  0.99981  1.0000 -0.4876803872
O   O22       1.0  0.48250  0.28970  0.50019  1.0000 -0.4812681612
O   O23       1.0  0.48250  0.21030  0.00019  1.0000 -0.4812681612
O   O24       1.0  0.51750  0.71030  0.49981  1.0000 -0.4812681612
O   O25       1.0  0.65450  0.07990  0.80406  1.0000 -0.5346848902
O   O26       1.0  0.34550  0.57990  0.69594  1.0000 -0.5346848902
O   O27       1.0  0.34550  0.92010  0.19594  1.0000 -0.5415923762
O   O28       1.0  0.65450  0.42010  0.30406  1.0000 -0.5415923762
O   O29       1.0  0.89620  0.10320  0.87940  1.0000 -0.4701116283
O   O30       1.0  0.10380  0.60320  0.62060  1.0000 -0.4701116283
O   O31       1.0  0.10380  0.89680  0.12060  1.0000 -0.4701116283
O   O32       1.0  0.89620  0.39680  0.37940  1.0000 -0.4701116283
O   O33       1.0  0.66330  0.02500  0.97691  1.0000 -0.5514963356
O   O34       1.0  0.33670  0.52500  0.52309  1.0000 -0.5514963356
O   O35       1.0  0.33670  0.97500  0.02309  1.0000 -0.5551402506
O   O36       1.0  0.66330  0.47500  0.47691  1.0000 -0.5514963356
O   O37       1.0  0.88510  0.10770  0.03280  1.0000 -0.4812681612
O   O38       1.0  0.11490  0.60770  0.46720  1.0000 -0.4812681612
O   O39       1.0  0.11490  0.89230  0.96720  1.0000 -0.4812681612
O   O40       1.0  0.88510  0.39230  0.53280  1.0000 -0.4812681612
O   O41       1.0  0.84060  0.84320  0.94014  1.0000 -0.5514963356
O   O42       1.0  0.15940  0.34320  0.55986  1.0000 -0.5514963356
O   O43       1.0  0.15940  0.15680  0.05986  1.0000 -0.5514963356
O   O44       1.0  0.84060  0.65680  0.44014  1.0000 -0.5514963356
O   O45       1.0  0.79900  0.62000  0.90802  1.0000 -0.4812681612
O   O46       1.0  0.20100  0.12000  0.59198  1.0000 -0.4812681612
O   O47       1.0  0.20100  0.38000  0.09198  1.0000 -0.4812681612
O   O48       1.0  0.79900  0.88000  0.40802  1.0000 -0.4812681612
