# DDEC6 charges by PACMAN v1.1 (https://github.com/mtap-research/PACMAN-charge/)
data_2008[Co][neb]3[FSR]1
_chemical_formula_sum              "Co4 H72 C72 N8 O24"
_cell_length_a       19.8899
_cell_length_b       19.8899
_cell_length_c       9.4044
_cell_angle_alpha    77.5345
_cell_angle_beta     102.465
_cell_angle_gamma    141.467

_symmetry_space_group_name_H-M    "P 1"
_symmetry_Int_Tables_number       1

loop_
  _symmetry_equiv_pos_as_xyz
  'x, y, z'

loop_
  _atom_site_type_symbol
  _atom_site_label
  _atom_site_symmetry_multiplicity
  _atom_site_fract_x
  _atom_site_fract_y
  _atom_site_fract_z
  _atom_site_occupancy
  _atom_site_charge
Co  Co1       1.0  0.58212  0.85710  0.17572  1.0000 0.8646445788
Co  Co2       1.0  0.85710  0.58212  0.32428  1.0000 0.8646445788
Co  Co3       1.0  0.41788  0.14290  0.82428  1.0000 0.8646445788
Co  Co4       1.0  0.14290  0.41788  0.67572  1.0000 0.8646445788
H   H1        1.0  0.56700  0.82460  0.85930  1.0000 0.1046010323
H   H2        1.0  0.82460  0.56700  0.64070  1.0000 0.1046010323
H   H3        1.0  0.43300  0.17540  0.14070  1.0000 0.1046010323
H   H4        1.0  0.17540  0.43300  0.35930  1.0000 0.1046010323
H   H5        1.0  0.54360  0.86780  0.62350  1.0000 0.1418310917
H   H6        1.0  0.86780  0.54360  0.87650  1.0000 0.1418310917
H   H7        1.0  0.45640  0.13220  0.37650  1.0000 0.1418310917
H   H8        1.0  0.13220  0.45640  0.12350  1.0000 0.1418310917
H   H9        1.0  0.51830  0.02050  0.77980  1.0000 0.1301130869
H   H10       1.0  0.02050  0.51830  0.72020  1.0000 0.1301130869
H   H11       1.0  0.48170  0.97950  0.22020  1.0000 0.1301130869
H   H12       1.0  0.97950  0.48170  0.27980  1.0000 0.1301130869
H   H13       1.0  0.54280  0.97320  0.01030  1.0000 0.1046010323
H   H14       1.0  0.97320  0.54280  0.48970  1.0000 0.1046010323
H   H15       1.0  0.45720  0.02680  0.98970  1.0000 0.1046010323
H   H16       1.0  0.02680  0.45720  0.51030  1.0000 0.1046010323
H   H17       1.0  0.65670  0.76970  0.15040  1.0000 0.1074212037
H   H18       1.0  0.76970  0.65670  0.34960  1.0000 0.1074212037
H   H19       1.0  0.34330  0.23030  0.84960  1.0000 0.1074212037
H   H20       1.0  0.23030  0.34330  0.65040  1.0000 0.1074212037
H   H21       1.0  0.80070  0.82610  0.08760  1.0000 0.1301130869
H   H22       1.0  0.82610  0.80070  0.41240  1.0000 0.1301130869
H   H23       1.0  0.19930  0.17390  0.91240  1.0000 0.1301130869
H   H24       1.0  0.17390  0.19930  0.58760  1.0000 0.1301130869
H   H25       1.0  0.95950  0.12770  0.02130  1.0000 0.1418310917
H   H26       1.0  0.12770  0.95950  0.47870  1.0000 0.1418310917
H   H27       1.0  0.04050  0.87230  0.97870  1.0000 0.1418310917
H   H28       1.0  0.87230  0.04050  0.52130  1.0000 0.1418310917
H   H29       1.0  0.80950  0.06270  0.07860  1.0000 0.1195468523
H   H30       1.0  0.06270  0.80950  0.42140  1.0000 0.1195468523
H   H31       1.0  0.19050  0.93730  0.92140  1.0000 0.1195468523
H   H32       1.0  0.93730  0.19050  0.57860  1.0000 0.1195468523
H   H33       1.0  0.51810  0.95630  0.44680  1.0000 0.1195468523
H   H34       1.0  0.95630  0.51810  0.05320  1.0000 0.1195468523
H   H35       1.0  0.48190  0.04370  0.55320  1.0000 0.1195468523
H   H36       1.0  0.04370  0.48190  0.94680  1.0000 0.1195468523
H   H37       1.0  0.05390  0.10310  0.98090  1.0000 0.1195468523
H   H38       1.0  0.10310  0.05390  0.51910  1.0000 0.1195468523
H   H39       1.0  0.94610  0.89690  0.01910  1.0000 0.1195468523
H   H40       1.0  0.89690  0.94610  0.48090  1.0000 0.1195468523
H   H41       1.0  0.27190  0.69030  0.44150  1.0000 0.1301130869
H   H42       1.0  0.69030  0.27190  0.05850  1.0000 0.1301130869
H   H43       1.0  0.72810  0.30970  0.55850  1.0000 0.1301130869
H   H44       1.0  0.30970  0.72810  0.94150  1.0000 0.1301130869
H   H45       1.0  0.30880  0.78800  0.16060  1.0000 0.1074212037
H   H46       1.0  0.78800  0.30880  0.33940  1.0000 0.1074212037
H   H47       1.0  0.69120  0.21200  0.83940  1.0000 0.1074212037
H   H48       1.0  0.21200  0.69120  0.66060  1.0000 0.1074212037
H   H49       1.0  0.18240  0.78780  0.05980  1.0000 0.1301130869
H   H50       1.0  0.78780  0.18240  0.44020  1.0000 0.1301130869
H   H51       1.0  0.81760  0.21220  0.94020  1.0000 0.1301130869
H   H52       1.0  0.21220  0.81760  0.55980  1.0000 0.1301130869
H   H53       1.0  0.15520  0.70220  0.34590  1.0000 0.1074212037
H   H54       1.0  0.70220  0.15520  0.15410  1.0000 0.1074212037
H   H55       1.0  0.84480  0.29780  0.65410  1.0000 0.1074212037
H   H56       1.0  0.29780  0.84480  0.84590  1.0000 0.1074212037
H   H57       1.0  0.54300  0.77180  0.43600  1.0000 0.3386806168
H   H58       1.0  0.77180  0.54300  0.06400  1.0000 0.3386806168
H   H59       1.0  0.45700  0.22820  0.56400  1.0000 0.3386806168
H   H60       1.0  0.22820  0.45700  0.93600  1.0000 0.3386806168
H   H61       1.0  0.65100  0.87640  0.44400  1.0000 0.3538340695
H   H62       1.0  0.87640  0.65100  0.05600  1.0000 0.3538340695
H   H63       1.0  0.34900  0.12360  0.55600  1.0000 0.3538340695
H   H64       1.0  0.12360  0.34900  0.94400  1.0000 0.3538340695
H   H65       1.0  0.41350  0.67210  0.07400  1.0000 0.3670294575
H   H66       1.0  0.67210  0.41350  0.42600  1.0000 0.3670294575
H   H67       1.0  0.58650  0.32790  0.92600  1.0000 0.3670294575
H   H68       1.0  0.32790  0.58650  0.57400  1.0000 0.3670294575
H   H69       1.0  0.44320  0.65120  0.20880  1.0000 0.3670294575
H   H70       1.0  0.65120  0.44320  0.29120  1.0000 0.3670294575
H   H71       1.0  0.55680  0.34880  0.79120  1.0000 0.3670294575
H   H72       1.0  0.34880  0.55680  0.70880  1.0000 0.3670294575
C   C1        1.0  0.55694  0.86466  0.84240  1.0000 0.0780333422
C   C2        1.0  0.86466  0.55694  0.65760  1.0000 0.0780333422
C   C3        1.0  0.44306  0.13534  0.15760  1.0000 0.0780333422
C   C4        1.0  0.13534  0.44306  0.34240  1.0000 0.0780333422
C   C5        1.0  0.54293  0.89027  0.70080  1.0000 -0.1734750204
C   C6        1.0  0.89027  0.54293  0.79920  1.0000 -0.1734750204
C   C7        1.0  0.45707  0.10973  0.29920  1.0000 -0.1734750204
C   C8        1.0  0.10973  0.45707  0.20080  1.0000 -0.1734750204
C   C9        1.0  0.52774  0.94960  0.67120  1.0000 0.1725060262
C   C10       1.0  0.94960  0.52774  0.82880  1.0000 0.1725060262
C   C11       1.0  0.47226  0.05040  0.32880  1.0000 0.1725060262
C   C12       1.0  0.05040  0.47226  0.17120  1.0000 0.1725060262
C   C13       1.0  0.52806  0.98034  0.79310  1.0000 -0.1948856644
C   C14       1.0  0.98034  0.52806  0.70690  1.0000 -0.1948856644
C   C15       1.0  0.47194  0.01966  0.20690  1.0000 -0.1982207768
C   C16       1.0  0.01966  0.47194  0.29310  1.0000 -0.1948856644
C   C17       1.0  0.54266  0.95154  0.93060  1.0000 0.0899689739
C   C18       1.0  0.95154  0.54266  0.56940  1.0000 0.0899689739
C   C19       1.0  0.45734  0.04846  0.06940  1.0000 0.0899689739
C   C20       1.0  0.04846  0.45734  0.43060  1.0000 0.0899689739
C   C21       1.0  0.71871  0.84349  0.12260  1.0000 0.0780333422
C   C22       1.0  0.84349  0.71871  0.37740  1.0000 0.0780333422
C   C23       1.0  0.28129  0.15651  0.87740  1.0000 0.0780333422
C   C24       1.0  0.15651  0.28129  0.62260  1.0000 0.0780333422
C   C25       1.0  0.80503  0.87677  0.08570  1.0000 -0.1982207768
C   C26       1.0  0.87677  0.80503  0.41430  1.0000 -0.1982207768
C   C27       1.0  0.19497  0.12323  0.91430  1.0000 -0.1982207768
C   C28       1.0  0.12323  0.19497  0.58570  1.0000 -0.1982207768
C   C29       1.0  0.89802  0.98438  0.04590  1.0000 0.1491952904
C   C30       1.0  0.98438  0.89802  0.45410  1.0000 0.1491952904
C   C31       1.0  0.10198  0.01562  0.95410  1.0000 0.1491952904
C   C32       1.0  0.01562  0.10198  0.54590  1.0000 0.1491952904
C   C33       1.0  0.89785  0.05335  0.04600  1.0000 -0.183396288
C   C34       1.0  0.05335  0.89785  0.45400  1.0000 -0.183396288
C   C35       1.0  0.10215  0.94665  0.95400  1.0000 -0.183396288
C   C36       1.0  0.94665  0.10215  0.54600  1.0000 -0.183396288
C   C37       1.0  0.80776  0.01384  0.08190  1.0000 0.0899689739
C   C38       1.0  0.01384  0.80776  0.41810  1.0000 0.0899689739
C   C39       1.0  0.19224  0.98616  0.91810  1.0000 0.0899689739
C   C40       1.0  0.98616  0.19224  0.58190  1.0000 0.0899689739
C   C41       1.0  0.51154  0.97566  0.52080  1.0000 -0.1321925603
C   C42       1.0  0.97566  0.51154  0.97920  1.0000 -0.1321925603
C   C43       1.0  0.48846  0.02434  0.47920  1.0000 -0.1321925603
C   C44       1.0  0.02434  0.48846  0.02080  1.0000 -0.1321925603
C   C45       1.0  0.99448  0.02792  0.00410  1.0000 -0.1321925603
C   C46       1.0  0.02792  0.99448  0.49590  1.0000 -0.1361379258
C   C47       1.0  0.00552  0.97208  0.99590  1.0000 -0.1361379258
C   C48       1.0  0.97208  0.00552  0.50410  1.0000 -0.1321925603
C   C49       1.0  0.39525  0.74719  0.33920  1.0000 0.6125382997
C   C50       1.0  0.74719  0.39525  0.16080  1.0000 0.6125382997
C   C51       1.0  0.60475  0.25281  0.66080  1.0000 0.6125382997
C   C52       1.0  0.25281  0.60475  0.83920  1.0000 0.6125382997
C   C53       1.0  0.30620  0.72508  0.35380  1.0000 -0.2589955747
C   C54       1.0  0.72508  0.30620  0.14620  1.0000 -0.2589955747
C   C55       1.0  0.69380  0.27492  0.64620  1.0000 -0.2589955747
C   C56       1.0  0.27492  0.69380  0.85380  1.0000 -0.2589955747
C   C57       1.0  0.27314  0.75262  0.24730  1.0000 -0.0612899864
C   C58       1.0  0.75262  0.27314  0.25270  1.0000 -0.0612899864
C   C59       1.0  0.72686  0.24738  0.75270  1.0000 -0.0612899864
C   C60       1.0  0.24738  0.72686  0.74730  1.0000 -0.0612899864
C   C61       1.0  0.04992  0.71708  0.15650  1.0000 0.6125382997
C   C62       1.0  0.71708  0.04992  0.34350  1.0000 0.6125382997
C   C63       1.0  0.95008  0.28292  0.84350  1.0000 0.6125382997
C   C64       1.0  0.28292  0.95008  0.65650  1.0000 0.6125382997
C   C65       1.0  0.14717  0.75103  0.14680  1.0000 -0.2481907018
C   C66       1.0  0.75103  0.14717  0.35320  1.0000 -0.2481907018
C   C67       1.0  0.85283  0.24897  0.85320  1.0000 -0.2481907018
C   C68       1.0  0.24897  0.85283  0.64680  1.0000 -0.2481907018
C   C69       1.0  0.18632  0.73172  0.25620  1.0000 -0.0612899864
C   C70       1.0  0.73172  0.18632  0.24380  1.0000 -0.0612899864
C   C71       1.0  0.81368  0.26828  0.74380  1.0000 -0.0612899864
C   C72       1.0  0.26828  0.81368  0.75620  1.0000 -0.0612899864
N   N1        1.0  0.55684  0.89408  0.95820  1.0000 -0.2589955747
N   N2        1.0  0.89408  0.55684  0.54180  1.0000 -0.2589955747
N   N3        1.0  0.44316  0.10592  0.04180  1.0000 -0.2589955747
N   N4        1.0  0.10592  0.44316  0.45820  1.0000 -0.2589955747
N   N5        1.0  0.71804  0.90994  0.12110  1.0000 -0.2481907018
N   N6        1.0  0.90994  0.71804  0.37890  1.0000 -0.2481907018
N   N7        1.0  0.28196  0.09006  0.87890  1.0000 -0.2481907018
N   N8        1.0  0.09006  0.28196  0.62110  1.0000 -0.2481907018
O   O1        1.0  0.45133  0.80759  0.23120  1.0000 -0.5805067502
O   O2        1.0  0.80759  0.45133  0.26880  1.0000 -0.5805067502
O   O3        1.0  0.54867  0.19241  0.76880  1.0000 -0.5805067502
O   O4        1.0  0.19241  0.54867  0.73120  1.0000 -0.5805067502
O   O5        1.0  0.41054  0.70534  0.43850  1.0000 -0.5708322607
O   O6        1.0  0.70534  0.41054  0.06150  1.0000 -0.5708322607
O   O7        1.0  0.58946  0.29466  0.56150  1.0000 -0.5708322607
O   O8        1.0  0.29466  0.58946  0.93850  1.0000 -0.5708322607
O   O9        1.0  0.01123  0.67859  0.27940  1.0000 -0.5805067502
O   O10       1.0  0.67859  0.01123  0.22060  1.0000 -0.5805067502
O   O11       1.0  0.98877  0.32141  0.72060  1.0000 -0.5805067502
O   O12       1.0  0.32141  0.98877  0.77940  1.0000 -0.5805067502
O   O13       1.0  0.01016  0.72490  0.04020  1.0000 -0.5708322607
O   O14       1.0  0.72490  0.01016  0.45980  1.0000 -0.5708322607
O   O15       1.0  0.98984  0.27510  0.95980  1.0000 -0.5708322607
O   O16       1.0  0.27510  0.98984  0.54020  1.0000 -0.5708322607
O   O17       1.0  0.60590  0.81612  0.39720  1.0000 -0.7235974155
O   O18       1.0  0.81612  0.60590  0.10280  1.0000 -0.7235974155
O   O19       1.0  0.39410  0.18388  0.60280  1.0000 -0.7235974155
O   O20       1.0  0.18388  0.39410  0.89720  1.0000 -0.7235974155
O   O21       1.0  0.47063  0.69383  0.12590  1.0000 -0.6878241979
O   O22       1.0  0.69383  0.47063  0.37410  1.0000 -0.6878241979
O   O23       1.0  0.52937  0.30617  0.87410  1.0000 -0.6878241979
O   O24       1.0  0.30617  0.52937  0.62590  1.0000 -0.6878241979
