# DDEC6 charges by PACMAN v1.1 (https://github.com/mtap-research/PACMAN-charge/)
data_2008[LaCu][stp]3[FSR]1
_chemical_formula_sum              "La4 Cu6 H60 C48 N12 O48"
_cell_length_a       13.5136
_cell_length_b       13.5136
_cell_length_c       14.795
_cell_angle_alpha    90
_cell_angle_beta     90
_cell_angle_gamma    120

_symmetry_space_group_name_H-M    "P 1"
_symmetry_Int_Tables_number       1

loop_
  _symmetry_equiv_pos_as_xyz
  'x, y, z'

loop_
  _atom_site_type_symbol
  _atom_site_label
  _atom_site_symmetry_multiplicity
  _atom_site_fract_x
  _atom_site_fract_y
  _atom_site_fract_z
  _atom_site_occupancy
  _atom_site_charge
La  La1       1.0  0.33333  0.66667  0.66700  1.0000 1.8426335559
La  La2       1.0  0.66667  0.33333  0.83300  1.0000 1.8426335559
La  La3       1.0  0.66667  0.33333  0.33300  1.0000 1.8426335559
La  La4       1.0  0.33333  0.66667  0.16700  1.0000 1.8426335559
Cu  Cu1       1.0  0.50000  0.50000  0.50000  1.0000 0.7338535891
Cu  Cu2       1.0  0.50000  0.00000  0.50000  1.0000 0.7338535891
Cu  Cu3       1.0  0.00000  0.50000  0.50000  1.0000 0.7338535891
Cu  Cu4       1.0  0.50000  0.50000  0.00000  1.0000 0.7338535891
Cu  Cu5       1.0  0.00000  0.50000  0.00000  1.0000 0.7351519571
Cu  Cu6       1.0  0.50000  0.00000  0.00000  1.0000 0.7338535891
H   H1        1.0  0.20020  0.34010  0.46520  1.0000 0.1388981671
H   H2        1.0  0.65990  0.86010  0.46520  1.0000 0.1388981671
H   H3        1.0  0.13990  0.79980  0.46520  1.0000 0.1388981671
H   H4        1.0  0.34010  0.20020  0.03480  1.0000 0.1388981671
H   H5        1.0  0.86010  0.65990  0.03480  1.0000 0.1388981671
H   H6        1.0  0.79980  0.13990  0.03480  1.0000 0.1388981671
H   H7        1.0  0.79980  0.65990  0.53480  1.0000 0.1388981671
H   H8        1.0  0.34010  0.13990  0.53480  1.0000 0.1388981671
H   H9        1.0  0.86010  0.20020  0.53480  1.0000 0.1388981671
H   H10       1.0  0.65990  0.79980  0.96520  1.0000 0.1388981671
H   H11       1.0  0.13990  0.34010  0.96520  1.0000 0.1388981671
H   H12       1.0  0.20020  0.86010  0.96520  1.0000 0.1388981671
H   H13       1.0  0.24700  0.28890  0.54500  1.0000 0.1388981671
H   H14       1.0  0.71110  0.95810  0.54500  1.0000 0.1388981671
H   H15       1.0  0.04190  0.75300  0.54500  1.0000 0.1388981671
H   H16       1.0  0.28890  0.24700  0.95500  1.0000 0.1388981671
H   H17       1.0  0.95810  0.71110  0.95500  1.0000 0.1388981671
H   H18       1.0  0.75300  0.04190  0.95500  1.0000 0.1388981671
H   H19       1.0  0.75300  0.71110  0.45500  1.0000 0.1388981671
H   H20       1.0  0.28890  0.04190  0.45500  1.0000 0.1388981671
H   H21       1.0  0.95810  0.24700  0.45500  1.0000 0.1388981671
H   H22       1.0  0.71110  0.75300  0.04500  1.0000 0.1388981671
H   H23       1.0  0.04190  0.28890  0.04500  1.0000 0.1388981671
H   H24       1.0  0.24700  0.95810  0.04500  1.0000 0.1388981671
H   H25       1.0  0.27490  0.46350  0.37840  1.0000 0.1505657596
H   H26       1.0  0.53650  0.81140  0.37840  1.0000 0.1505657596
H   H27       1.0  0.18860  0.72510  0.37840  1.0000 0.1505657596
H   H28       1.0  0.46350  0.27490  0.12160  1.0000 0.1505657596
H   H29       1.0  0.81140  0.53650  0.12160  1.0000 0.1505657596
H   H30       1.0  0.72510  0.18860  0.12160  1.0000 0.1505657596
H   H31       1.0  0.72510  0.53650  0.62160  1.0000 0.1505657596
H   H32       1.0  0.46350  0.18860  0.62160  1.0000 0.1505657596
H   H33       1.0  0.81140  0.27490  0.62160  1.0000 0.1505657596
H   H34       1.0  0.53650  0.72510  0.87840  1.0000 0.1505657596
H   H35       1.0  0.18860  0.46350  0.87840  1.0000 0.1505657596
H   H36       1.0  0.27490  0.81140  0.87840  1.0000 0.1505657596
H   H37       1.0  0.32950  0.39820  0.31390  1.0000 0.1505657596
H   H38       1.0  0.60180  0.93130  0.31390  1.0000 0.1505657596
H   H39       1.0  0.06870  0.67050  0.31390  1.0000 0.1505657596
H   H40       1.0  0.39820  0.32950  0.18610  1.0000 0.1505657596
H   H41       1.0  0.93130  0.60180  0.18610  1.0000 0.1505657596
H   H42       1.0  0.67050  0.06870  0.18610  1.0000 0.1505657596
H   H43       1.0  0.67050  0.60180  0.68610  1.0000 0.1505657596
H   H44       1.0  0.39820  0.06870  0.68610  1.0000 0.1505657596
H   H45       1.0  0.93130  0.32950  0.68610  1.0000 0.1505657596
H   H46       1.0  0.60180  0.67050  0.81390  1.0000 0.1505657596
H   H47       1.0  0.06870  0.39820  0.81390  1.0000 0.1505657596
H   H48       1.0  0.32950  0.93130  0.81390  1.0000 0.1505657596
H   H49       1.0  0.35300  0.32820  0.42250  1.0000 0.2563445078
H   H50       1.0  0.67180  0.02480  0.42250  1.0000 0.2563445078
H   H51       1.0  0.97520  0.64700  0.42250  1.0000 0.2563445078
H   H52       1.0  0.32820  0.35300  0.07750  1.0000 0.2563445078
H   H53       1.0  0.02480  0.67180  0.07750  1.0000 0.2563445078
H   H54       1.0  0.64700  0.97520  0.07750  1.0000 0.2563445078
H   H55       1.0  0.64700  0.67180  0.57750  1.0000 0.2563445078
H   H56       1.0  0.32820  0.97520  0.57750  1.0000 0.2563445078
H   H57       1.0  0.02480  0.35300  0.57750  1.0000 0.2563445078
H   H58       1.0  0.67180  0.64700  0.92250  1.0000 0.2563445078
H   H59       1.0  0.97520  0.32820  0.92250  1.0000 0.2563445078
H   H60       1.0  0.35300  0.02480  0.92250  1.0000 0.2563445078
C   C1        1.0  0.27340  0.45360  0.56470  1.0000 0.6068066464
C   C2        1.0  0.54640  0.81980  0.56470  1.0000 0.6068066464
C   C3        1.0  0.18020  0.72660  0.56470  1.0000 0.6068066464
C   C4        1.0  0.45360  0.27340  0.93530  1.0000 0.6068066464
C   C5        1.0  0.81980  0.54640  0.93530  1.0000 0.6068066464
C   C6        1.0  0.72660  0.18020  0.93530  1.0000 0.6068066464
C   C7        1.0  0.72660  0.54640  0.43530  1.0000 0.6068066464
C   C8        1.0  0.45360  0.18020  0.43530  1.0000 0.6068066464
C   C9        1.0  0.81980  0.27340  0.43530  1.0000 0.6068066464
C   C10       1.0  0.54640  0.72660  0.06470  1.0000 0.6068066464
C   C11       1.0  0.18020  0.45360  0.06470  1.0000 0.6068066464
C   C12       1.0  0.27340  0.81980  0.06470  1.0000 0.6068066464
C   C13       1.0  0.25690  0.35160  0.50850  1.0000 -0.2474014299
C   C14       1.0  0.64840  0.90530  0.50850  1.0000 -0.2474014299
C   C15       1.0  0.09470  0.74310  0.50850  1.0000 -0.2474014299
C   C16       1.0  0.35160  0.25690  0.99150  1.0000 -0.2474014299
C   C17       1.0  0.90530  0.64840  0.99150  1.0000 -0.2474014299
C   C18       1.0  0.74310  0.09470  0.99150  1.0000 -0.2474014299
C   C19       1.0  0.74310  0.64840  0.49150  1.0000 -0.2474014299
C   C20       1.0  0.35160  0.09470  0.49150  1.0000 -0.2474014299
C   C21       1.0  0.90530  0.25690  0.49150  1.0000 -0.2474014299
C   C22       1.0  0.64840  0.74310  0.00850  1.0000 -0.2474014299
C   C23       1.0  0.09470  0.35160  0.00850  1.0000 -0.2474014299
C   C24       1.0  0.25690  0.90530  0.00850  1.0000 -0.2474014299
C   C25       1.0  0.33390  0.44680  0.36230  1.0000 -0.2621212496
C   C26       1.0  0.55320  0.88710  0.36230  1.0000 -0.2621212496
C   C27       1.0  0.11290  0.66610  0.36230  1.0000 -0.2621212496
C   C28       1.0  0.44680  0.33390  0.13770  1.0000 -0.2621212496
C   C29       1.0  0.88710  0.55320  0.13770  1.0000 -0.2621212496
C   C30       1.0  0.66610  0.11290  0.13770  1.0000 -0.2621212496
C   C31       1.0  0.66610  0.55320  0.63770  1.0000 -0.2621212496
C   C32       1.0  0.44680  0.11290  0.63770  1.0000 -0.2621212496
C   C33       1.0  0.88710  0.33390  0.63770  1.0000 -0.2621212496
C   C34       1.0  0.55320  0.66610  0.86230  1.0000 -0.2621212496
C   C35       1.0  0.11290  0.44680  0.86230  1.0000 -0.2621212496
C   C36       1.0  0.33390  0.88710  0.86230  1.0000 -0.2621212496
C   C37       1.0  0.44090  0.56110  0.34150  1.0000 0.6378874288
C   C38       1.0  0.43890  0.87980  0.34150  1.0000 0.6378874288
C   C39       1.0  0.12020  0.55910  0.34150  1.0000 0.6378874288
C   C40       1.0  0.56110  0.44090  0.15850  1.0000 0.6378874288
C   C41       1.0  0.87980  0.43890  0.15850  1.0000 0.6378874288
C   C42       1.0  0.55910  0.12020  0.15850  1.0000 0.6378874288
C   C43       1.0  0.55910  0.43890  0.65850  1.0000 0.6378874288
C   C44       1.0  0.56110  0.12020  0.65850  1.0000 0.6378874288
C   C45       1.0  0.87980  0.44090  0.65850  1.0000 0.6378874288
C   C46       1.0  0.43890  0.55910  0.84150  1.0000 0.6378874288
C   C47       1.0  0.12020  0.56110  0.84150  1.0000 0.6378874288
C   C48       1.0  0.44090  0.87980  0.84150  1.0000 0.6378874288
N   N1        1.0  0.35010  0.38890  0.44110  1.0000 -0.2474014299
N   N2        1.0  0.61110  0.96120  0.44110  1.0000 -0.2474014299
N   N3        1.0  0.03880  0.64990  0.44110  1.0000 -0.2474014299
N   N4        1.0  0.38890  0.35010  0.05890  1.0000 -0.2474014299
N   N5        1.0  0.96120  0.61110  0.05890  1.0000 -0.2474014299
N   N6        1.0  0.64990  0.03880  0.05890  1.0000 -0.2474014299
N   N7        1.0  0.64990  0.61110  0.55890  1.0000 -0.2474014299
N   N8        1.0  0.38890  0.03880  0.55890  1.0000 -0.2474014299
N   N9        1.0  0.96120  0.35010  0.55890  1.0000 -0.2474014299
N   N10       1.0  0.61110  0.64990  0.94110  1.0000 -0.2474014299
N   N11       1.0  0.03880  0.38890  0.94110  1.0000 -0.2474014299
N   N12       1.0  0.35010  0.96120  0.94110  1.0000 -0.2474014299
O   O1        1.0  0.36380  0.54790  0.55270  1.0000 -0.6144718223
O   O2        1.0  0.45210  0.81590  0.55270  1.0000 -0.6144718223
O   O3        1.0  0.18410  0.63620  0.55270  1.0000 -0.6144718223
O   O4        1.0  0.54790  0.36380  0.94730  1.0000 -0.6144718223
O   O5        1.0  0.81590  0.45210  0.94730  1.0000 -0.6144718223
O   O6        1.0  0.63620  0.18410  0.94730  1.0000 -0.6144718223
O   O7        1.0  0.63620  0.45210  0.44730  1.0000 -0.6144718223
O   O8        1.0  0.54790  0.18410  0.44730  1.0000 -0.6144718223
O   O9        1.0  0.81590  0.36380  0.44730  1.0000 -0.6144718223
O   O10       1.0  0.45210  0.63620  0.05270  1.0000 -0.6144718223
O   O11       1.0  0.18410  0.54790  0.05270  1.0000 -0.6144718223
O   O12       1.0  0.36380  0.81590  0.05270  1.0000 -0.6144718223
O   O13       1.0  0.19980  0.44040  0.62200  1.0000 -0.5821167721
O   O14       1.0  0.55960  0.75940  0.62200  1.0000 -0.5821167721
O   O15       1.0  0.24060  0.80020  0.62200  1.0000 -0.5821167721
O   O16       1.0  0.44040  0.19980  0.87800  1.0000 -0.5821167721
O   O17       1.0  0.75940  0.55960  0.87800  1.0000 -0.5821167721
O   O18       1.0  0.80020  0.24060  0.87800  1.0000 -0.5821167721
O   O19       1.0  0.80020  0.55960  0.37800  1.0000 -0.5821167721
O   O20       1.0  0.44040  0.24060  0.37800  1.0000 -0.5821167721
O   O21       1.0  0.75940  0.19980  0.37800  1.0000 -0.5821167721
O   O22       1.0  0.55960  0.80020  0.12200  1.0000 -0.5821167721
O   O23       1.0  0.24060  0.44040  0.12200  1.0000 -0.5821167721
O   O24       1.0  0.19980  0.75940  0.12200  1.0000 -0.5821167721
O   O25       1.0  0.52550  0.59580  0.39320  1.0000 -0.5114055469
O   O26       1.0  0.40420  0.92970  0.39320  1.0000 -0.5114055469
O   O27       1.0  0.07030  0.47450  0.39320  1.0000 -0.5114055469
O   O28       1.0  0.59580  0.52550  0.10680  1.0000 -0.5114055469
O   O29       1.0  0.92970  0.40420  0.10680  1.0000 -0.5114055469
O   O30       1.0  0.47450  0.07030  0.10680  1.0000 -0.5114055469
O   O31       1.0  0.47450  0.40420  0.60680  1.0000 -0.5114055469
O   O32       1.0  0.59580  0.07030  0.60680  1.0000 -0.5114055469
O   O33       1.0  0.92970  0.52550  0.60680  1.0000 -0.5114055469
O   O34       1.0  0.40420  0.47450  0.89320  1.0000 -0.5114055469
O   O35       1.0  0.07030  0.59580  0.89320  1.0000 -0.5114055469
O   O36       1.0  0.52550  0.92970  0.89320  1.0000 -0.5114055469
O   O37       1.0  0.43790  0.61400  0.27390  1.0000 -0.5962943628
O   O38       1.0  0.38600  0.82390  0.27390  1.0000 -0.5962943628
O   O39       1.0  0.17610  0.56210  0.27390  1.0000 -0.5962943628
O   O40       1.0  0.61400  0.43790  0.22610  1.0000 -0.5962943628
O   O41       1.0  0.82390  0.38600  0.22610  1.0000 -0.5962943628
O   O42       1.0  0.56210  0.17610  0.22610  1.0000 -0.5962943628
O   O43       1.0  0.56210  0.38600  0.72610  1.0000 -0.5962943628
O   O44       1.0  0.61400  0.17610  0.72610  1.0000 -0.5962943628
O   O45       1.0  0.82390  0.43790  0.72610  1.0000 -0.5962943628
O   O46       1.0  0.38600  0.56210  0.77390  1.0000 -0.5962943628
O   O47       1.0  0.17610  0.61400  0.77390  1.0000 -0.5962943628
O   O48       1.0  0.43790  0.82390  0.77390  1.0000 -0.5962943628
