# DDEC6 charges by PACMAN v1.1 (https://github.com/mtap-research/PACMAN-charge/)
data_2008[Tb][nan]3[FSR]1
_chemical_formula_sum              "Tb4 H24 C56 N8 O32"
_cell_length_a       6.722
_cell_length_b       14.239
_cell_length_c       22.88
_cell_angle_alpha    90
_cell_angle_beta     90
_cell_angle_gamma    90

_symmetry_space_group_name_H-M    "P 1"
_symmetry_Int_Tables_number       1

loop_
  _symmetry_equiv_pos_as_xyz
  'x, y, z'

loop_
  _atom_site_type_symbol
  _atom_site_label
  _atom_site_symmetry_multiplicity
  _atom_site_fract_x
  _atom_site_fract_y
  _atom_site_fract_z
  _atom_site_occupancy
  _atom_site_charge
Tb  Tb1       1.0  0.25000  0.04757  0.35956  1.0000 1.9440014232
Tb  Tb2       1.0  0.75000  0.45243  0.85956  1.0000 1.9440014232
Tb  Tb3       1.0  0.75000  0.95243  0.64044  1.0000 1.9440014232
Tb  Tb4       1.0  0.25000  0.54757  0.14044  1.0000 1.9440014232
H   H1        1.0  0.25000  0.01270  0.20530  1.0000 0.1425173948
H   H2        1.0  0.75000  0.48730  0.70530  1.0000 0.1425173948
H   H3        1.0  0.75000  0.98730  0.79470  1.0000 0.1425173948
H   H4        1.0  0.25000  0.51270  0.29470  1.0000 0.1425173948
H   H5        1.0  0.25000  0.09260  0.11840  1.0000 0.1520726712
H   H6        1.0  0.75000  0.40740  0.61840  1.0000 0.1520726712
H   H7        1.0  0.75000  0.90740  0.88160  1.0000 0.1520726712
H   H8        1.0  0.25000  0.59260  0.38160  1.0000 0.1520726712
H   H9        1.0  0.25000  0.25210  0.11690  1.0000 0.1520726712
H   H10       1.0  0.75000  0.24790  0.61690  1.0000 0.1520726712
H   H11       1.0  0.75000  0.74790  0.88310  1.0000 0.1520726712
H   H12       1.0  0.25000  0.75210  0.38310  1.0000 0.1520726712
H   H13       1.0  0.25000  0.23080  0.46460  1.0000 0.1425173948
H   H14       1.0  0.75000  0.26920  0.96460  1.0000 0.1425173948
H   H15       1.0  0.75000  0.76920  0.53540  1.0000 0.1425173948
H   H16       1.0  0.25000  0.73080  0.03540  1.0000 0.1425173948
H   H17       1.0  0.25000  0.26120  0.56260  1.0000 0.1425173948
H   H18       1.0  0.75000  0.23880  0.06260  1.0000 0.1425173948
H   H19       1.0  0.75000  0.73880  0.43740  1.0000 0.1425173948
H   H20       1.0  0.25000  0.76120  0.93740  1.0000 0.1425173948
H   H21       1.0  0.25000  0.13780  0.62880  1.0000 0.1520726712
H   H22       1.0  0.75000  0.36220  0.12880  1.0000 0.1520726712
H   H23       1.0  0.75000  0.86220  0.37120  1.0000 0.1520726712
H   H24       1.0  0.25000  0.63780  0.87120  1.0000 0.1520726712
C   C1        1.0  0.25000  0.07800  0.20570  1.0000 0.1120385006
C   C2        1.0  0.75000  0.42200  0.70570  1.0000 0.1120385006
C   C3        1.0  0.75000  0.92200  0.79430  1.0000 0.1120385006
C   C4        1.0  0.25000  0.57800  0.29430  1.0000 0.1120385006
C   C5        1.0  0.25000  0.12590  0.15330  1.0000 -0.1201464068
C   C6        1.0  0.75000  0.37410  0.65330  1.0000 -0.1201464068
C   C7        1.0  0.75000  0.87410  0.84670  1.0000 -0.1201464068
C   C8        1.0  0.25000  0.62590  0.34670  1.0000 -0.1201464068
C   C9        1.0  0.25000  0.22000  0.15230  1.0000 -0.0515316557
C   C10       1.0  0.75000  0.28000  0.65230  1.0000 -0.0515316557
C   C11       1.0  0.75000  0.78000  0.84770  1.0000 -0.0515316557
C   C12       1.0  0.25000  0.72000  0.34770  1.0000 -0.0515316557
C   C13       1.0  0.25000  0.26980  0.20530  1.0000 -0.0034988718
C   C14       1.0  0.75000  0.23020  0.70530  1.0000 -0.0034988718
C   C15       1.0  0.75000  0.73020  0.79470  1.0000 -0.0034988718
C   C16       1.0  0.25000  0.76980  0.29470  1.0000 -0.0034988718
C   C17       1.0  0.25000  0.37680  0.20280  1.0000 0.5815048684
C   C18       1.0  0.75000  0.12320  0.70280  1.0000 0.5815048684
C   C19       1.0  0.75000  0.62320  0.79720  1.0000 0.5815048684
C   C20       1.0  0.25000  0.87680  0.29720  1.0000 0.5815048684
C   C21       1.0  0.25000  0.21920  0.25740  1.0000 0.0999186319
C   C22       1.0  0.75000  0.28080  0.75740  1.0000 0.0999186319
C   C23       1.0  0.75000  0.78080  0.74260  1.0000 0.0999186319
C   C24       1.0  0.25000  0.71920  0.24260  1.0000 0.0999186319
C   C25       1.0  0.25000  0.26530  0.31630  1.0000 0.573326828
C   C26       1.0  0.75000  0.23470  0.81630  1.0000 0.573326828
C   C27       1.0  0.75000  0.73470  0.68370  1.0000 0.573326828
C   C28       1.0  0.25000  0.76530  0.18370  1.0000 0.573326828
C   C29       1.0  0.25000  0.18050  0.49050  1.0000 0.1321401168
C   C30       1.0  0.75000  0.31950  0.99050  1.0000 0.1321401168
C   C31       1.0  0.75000  0.81950  0.50950  1.0000 0.1321401168
C   C32       1.0  0.25000  0.68050  0.00950  1.0000 0.1321401168
C   C33       1.0  0.25000  0.19940  0.54940  1.0000 -0.1095530595
C   C34       1.0  0.75000  0.30060  0.04940  1.0000 -0.1095530595
C   C35       1.0  0.75000  0.80060  0.45060  1.0000 -0.1095530595
C   C36       1.0  0.25000  0.69940  0.95060  1.0000 -0.1095530595
C   C37       1.0  0.25000  0.12610  0.58880  1.0000 -0.0352481194
C   C38       1.0  0.75000  0.37390  0.08880  1.0000 -0.0352481194
C   C39       1.0  0.75000  0.87390  0.41120  1.0000 -0.0352481194
C   C40       1.0  0.25000  0.62610  0.91120  1.0000 -0.0352481194
C   C41       1.0  0.25000  0.03350  0.56750  1.0000 -0.0569231454
C   C42       1.0  0.75000  0.46650  0.06750  1.0000 -0.0569231454
C   C43       1.0  0.75000  0.96650  0.43250  1.0000 -0.0569231454
C   C44       1.0  0.25000  0.53350  0.93250  1.0000 -0.0569231454
C   C45       1.0  0.25000  0.95450  0.61120  1.0000 0.7025283445
C   C46       1.0  0.75000  0.54550  0.11120  1.0000 0.7025283445
C   C47       1.0  0.75000  0.04550  0.38880  1.0000 0.7025283445
C   C48       1.0  0.25000  0.45450  0.88880  1.0000 0.7025283445
C   C49       1.0  0.25000  0.02040  0.50660  1.0000 0.0805886072
C   C50       1.0  0.75000  0.47960  0.00660  1.0000 0.0805886072
C   C51       1.0  0.75000  0.97960  0.49340  1.0000 0.0805886072
C   C52       1.0  0.25000  0.52040  0.99340  1.0000 0.0805886072
C   C53       1.0  0.25000  0.92350  0.47940  1.0000 0.573326828
C   C54       1.0  0.75000  0.57650  0.97940  1.0000 0.573326828
C   C55       1.0  0.75000  0.07650  0.52060  1.0000 0.573326828
C   C56       1.0  0.25000  0.42350  0.02060  1.0000 0.573326828
N   N1        1.0  0.25000  0.12430  0.25870  1.0000 -0.3754383456
N   N2        1.0  0.75000  0.37570  0.75870  1.0000 -0.3754383456
N   N3        1.0  0.75000  0.87570  0.74130  1.0000 -0.3754383456
N   N4        1.0  0.25000  0.62430  0.24130  1.0000 -0.3754383456
N   N5        1.0  0.25000  0.09340  0.46870  1.0000 -0.3347596656
N   N6        1.0  0.75000  0.40660  0.96870  1.0000 -0.3347596656
N   N7        1.0  0.75000  0.90660  0.53130  1.0000 -0.3347596656
N   N8        1.0  0.25000  0.59340  0.03130  1.0000 -0.3347596656
O   O1        1.0  0.25000  0.21120  0.35980  1.0000 -0.5947345625
O   O2        1.0  0.75000  0.28880  0.85980  1.0000 -0.5953511726
O   O3        1.0  0.75000  0.78880  0.64020  1.0000 -0.5953511726
O   O4        1.0  0.25000  0.71120  0.14020  1.0000 -0.5947345625
O   O5        1.0  0.25000  0.35290  0.31900  1.0000 -0.4669186528
O   O6        1.0  0.75000  0.14710  0.81900  1.0000 -0.4669186528
O   O7        1.0  0.75000  0.64710  0.68100  1.0000 -0.4669186528
O   O8        1.0  0.25000  0.85290  0.18100  1.0000 -0.4669186528
O   O9        1.0  0.08700  0.41980  0.19661  1.0000 -0.5786853563
O   O10       1.0  0.91300  0.08020  0.69661  1.0000 -0.5786853563
O   O11       1.0  0.58700  0.58020  0.80339  1.0000 -0.5786853563
O   O12       1.0  0.41300  0.91980  0.30339  1.0000 -0.5786853563
O   O13       1.0  0.91300  0.58020  0.80339  1.0000 -0.5786853563
O   O14       1.0  0.08700  0.91980  0.30339  1.0000 -0.5786853563
O   O15       1.0  0.41300  0.41980  0.19661  1.0000 -0.5786853563
O   O16       1.0  0.58700  0.08020  0.69661  1.0000 -0.5786853563
O   O17       1.0  0.25000  0.92210  0.42330  1.0000 -0.6587504875
O   O18       1.0  0.75000  0.57790  0.92330  1.0000 -0.6587504875
O   O19       1.0  0.75000  0.07790  0.57670  1.0000 -0.6587504875
O   O20       1.0  0.25000  0.42210  0.07670  1.0000 -0.6587504875
O   O21       1.0  0.25000  0.85480  0.51300  1.0000 -0.4669186528
O   O22       1.0  0.75000  0.64520  0.01300  1.0000 -0.4669186528
O   O23       1.0  0.75000  0.14520  0.48700  1.0000 -0.4669186528
O   O24       1.0  0.25000  0.35480  0.98700  1.0000 -0.4669186528
O   O25       1.0  0.08450  0.92450  0.62927  1.0000 -0.6255218517
O   O26       1.0  0.91550  0.57550  0.12927  1.0000 -0.6255218517
O   O27       1.0  0.58450  0.07550  0.37073  1.0000 -0.6255218517
O   O28       1.0  0.41550  0.42450  0.87073  1.0000 -0.6255218517
O   O29       1.0  0.91550  0.07550  0.37073  1.0000 -0.6255218517
O   O30       1.0  0.08450  0.42450  0.87073  1.0000 -0.6255218517
O   O31       1.0  0.41550  0.92450  0.62927  1.0000 -0.6255218517
O   O32       1.0  0.58450  0.57550  0.12927  1.0000 -0.6255218517
