# DDEC6 charges by PACMAN v1.1 (https://github.com/mtap-research/PACMAN-charge/)
data_2008[LaCu][stp]3[FSR]2
_chemical_formula_sum              "La4 Cu6 H60 C48 N12 O48"
_cell_length_a       13.5045
_cell_length_b       13.5045
_cell_length_c       14.836
_cell_angle_alpha    90
_cell_angle_beta     90
_cell_angle_gamma    120

_symmetry_space_group_name_H-M    "P 1"
_symmetry_Int_Tables_number       1

loop_
  _symmetry_equiv_pos_as_xyz
  'x, y, z'

loop_
  _atom_site_type_symbol
  _atom_site_label
  _atom_site_symmetry_multiplicity
  _atom_site_fract_x
  _atom_site_fract_y
  _atom_site_fract_z
  _atom_site_occupancy
  _atom_site_charge
La  La1       1.0  0.66667  0.33333  0.16760  1.0000 1.8501431082
La  La2       1.0  0.33333  0.66667  0.33240  1.0000 1.8501431082
La  La3       1.0  0.33333  0.66667  0.83240  1.0000 1.8501431082
La  La4       1.0  0.66667  0.33333  0.66760  1.0000 1.8501431082
Cu  Cu1       1.0  0.50000  0.50000  0.00000  1.0000 0.7397112583
Cu  Cu2       1.0  0.50000  0.00000  0.00000  1.0000 0.7397112583
Cu  Cu3       1.0  0.00000  0.50000  0.00000  1.0000 0.7397112583
Cu  Cu4       1.0  0.50000  0.50000  0.50000  1.0000 0.7397112583
Cu  Cu5       1.0  0.00000  0.50000  0.50000  1.0000 0.7397112583
Cu  Cu6       1.0  0.50000  0.00000  0.50000  1.0000 0.7397112583
H   H1        1.0  0.75360  0.71070  0.04550  1.0000 0.1417414729
H   H2        1.0  0.28930  0.04290  0.04550  1.0000 0.1417414729
H   H3        1.0  0.95710  0.24640  0.04550  1.0000 0.1417414729
H   H4        1.0  0.71070  0.75360  0.45450  1.0000 0.1417414729
H   H5        1.0  0.04290  0.28930  0.45450  1.0000 0.1417414729
H   H6        1.0  0.24640  0.95710  0.45450  1.0000 0.1417414729
H   H7        1.0  0.24640  0.28930  0.95450  1.0000 0.1417414729
H   H8        1.0  0.71070  0.95710  0.95450  1.0000 0.1417414729
H   H9        1.0  0.04290  0.75360  0.95450  1.0000 0.1417414729
H   H10       1.0  0.28930  0.24640  0.54550  1.0000 0.1417414729
H   H11       1.0  0.95710  0.71070  0.54550  1.0000 0.1417414729
H   H12       1.0  0.75360  0.04290  0.54550  1.0000 0.1417414729
H   H13       1.0  0.79810  0.65490  0.96580  1.0000 0.1349628751
H   H14       1.0  0.34510  0.14320  0.96580  1.0000 0.1349628751
H   H15       1.0  0.85680  0.20190  0.96580  1.0000 0.1349628751
H   H16       1.0  0.65490  0.79810  0.53420  1.0000 0.1349628751
H   H17       1.0  0.14320  0.34510  0.53420  1.0000 0.1349628751
H   H18       1.0  0.20190  0.85680  0.53420  1.0000 0.1349628751
H   H19       1.0  0.20190  0.34510  0.03420  1.0000 0.1349628751
H   H20       1.0  0.65490  0.85680  0.03420  1.0000 0.1349628751
H   H21       1.0  0.14320  0.79810  0.03420  1.0000 0.1349628751
H   H22       1.0  0.34510  0.20190  0.46580  1.0000 0.1349628751
H   H23       1.0  0.85680  0.65490  0.46580  1.0000 0.1349628751
H   H24       1.0  0.79810  0.14320  0.46580  1.0000 0.1349628751
H   H25       1.0  0.67090  0.60290  0.81430  1.0000 0.151079691
H   H26       1.0  0.39710  0.06800  0.81430  1.0000 0.151079691
H   H27       1.0  0.93200  0.32910  0.81430  1.0000 0.151079691
H   H28       1.0  0.60290  0.67090  0.68570  1.0000 0.151079691
H   H29       1.0  0.06800  0.39710  0.68570  1.0000 0.151079691
H   H30       1.0  0.32910  0.93200  0.68570  1.0000 0.151079691
H   H31       1.0  0.32910  0.39710  0.18570  1.0000 0.151079691
H   H32       1.0  0.60290  0.93200  0.18570  1.0000 0.151079691
H   H33       1.0  0.06800  0.67090  0.18570  1.0000 0.151079691
H   H34       1.0  0.39710  0.32910  0.31430  1.0000 0.151079691
H   H35       1.0  0.93200  0.60290  0.31430  1.0000 0.151079691
H   H36       1.0  0.67090  0.06800  0.31430  1.0000 0.151079691
H   H37       1.0  0.72580  0.53790  0.87920  1.0000 0.151079691
H   H38       1.0  0.46210  0.18790  0.87920  1.0000 0.151079691
H   H39       1.0  0.81210  0.27420  0.87920  1.0000 0.151079691
H   H40       1.0  0.53790  0.72580  0.62080  1.0000 0.151079691
H   H41       1.0  0.18790  0.46210  0.62080  1.0000 0.151079691
H   H42       1.0  0.27420  0.81210  0.62080  1.0000 0.151079691
H   H43       1.0  0.27420  0.46210  0.12080  1.0000 0.151079691
H   H44       1.0  0.53790  0.81210  0.12080  1.0000 0.151079691
H   H45       1.0  0.18790  0.72580  0.12080  1.0000 0.151079691
H   H46       1.0  0.46210  0.27420  0.37920  1.0000 0.151079691
H   H47       1.0  0.81210  0.53790  0.37920  1.0000 0.151079691
H   H48       1.0  0.72580  0.18790  0.37920  1.0000 0.151079691
H   H49       1.0  0.64720  0.67100  0.92300  1.0000 0.2570443784
H   H50       1.0  0.32900  0.97620  0.92300  1.0000 0.2570443784
H   H51       1.0  0.02380  0.35280  0.92300  1.0000 0.2570443784
H   H52       1.0  0.67100  0.64720  0.57700  1.0000 0.2570443784
H   H53       1.0  0.97620  0.32900  0.57700  1.0000 0.2570443784
H   H54       1.0  0.35280  0.02380  0.57700  1.0000 0.2570443784
H   H55       1.0  0.35280  0.32900  0.07700  1.0000 0.2570443784
H   H56       1.0  0.67100  0.02380  0.07700  1.0000 0.2570443784
H   H57       1.0  0.97620  0.64720  0.07700  1.0000 0.2570443784
H   H58       1.0  0.32900  0.35280  0.42300  1.0000 0.2570443784
H   H59       1.0  0.02380  0.67100  0.42300  1.0000 0.2570443784
H   H60       1.0  0.64720  0.97620  0.42300  1.0000 0.2570443784
C   C1        1.0  0.72650  0.54700  0.06530  1.0000 0.6072451159
C   C2        1.0  0.45300  0.17950  0.06530  1.0000 0.6072451159
C   C3        1.0  0.82050  0.27350  0.06530  1.0000 0.6072451159
C   C4        1.0  0.54700  0.72650  0.43470  1.0000 0.6072451159
C   C5        1.0  0.17950  0.45300  0.43470  1.0000 0.6072451159
C   C6        1.0  0.27350  0.82050  0.43470  1.0000 0.6072451159
C   C7        1.0  0.27350  0.45300  0.93470  1.0000 0.6072451159
C   C8        1.0  0.54700  0.82050  0.93470  1.0000 0.6072451159
C   C9        1.0  0.17950  0.72650  0.93470  1.0000 0.6072451159
C   C10       1.0  0.45300  0.27350  0.56530  1.0000 0.6072451159
C   C11       1.0  0.82050  0.54700  0.56530  1.0000 0.6072451159
C   C12       1.0  0.72650  0.17950  0.56530  1.0000 0.6072451159
C   C13       1.0  0.74310  0.64790  0.00860  1.0000 -0.2488105846
C   C14       1.0  0.35210  0.09520  0.00860  1.0000 -0.2488105846
C   C15       1.0  0.90480  0.25690  0.00860  1.0000 -0.2488105846
C   C16       1.0  0.64790  0.74310  0.49140  1.0000 -0.2488105846
C   C17       1.0  0.09520  0.35210  0.49140  1.0000 -0.2488105846
C   C18       1.0  0.25690  0.90480  0.49140  1.0000 -0.2488105846
C   C19       1.0  0.25690  0.35210  0.99140  1.0000 -0.2488105846
C   C20       1.0  0.64790  0.90480  0.99140  1.0000 -0.2488105846
C   C21       1.0  0.09520  0.74310  0.99140  1.0000 -0.2488105846
C   C22       1.0  0.35210  0.25690  0.50860  1.0000 -0.2488105846
C   C23       1.0  0.90480  0.64790  0.50860  1.0000 -0.2488105846
C   C24       1.0  0.74310  0.09520  0.50860  1.0000 -0.2488105846
C   C25       1.0  0.66710  0.55430  0.86240  1.0000 -0.2622140016
C   C26       1.0  0.44570  0.11280  0.86240  1.0000 -0.2622140016
C   C27       1.0  0.88720  0.33290  0.86240  1.0000 -0.2622140016
C   C28       1.0  0.55430  0.66710  0.63760  1.0000 -0.2622140016
C   C29       1.0  0.11280  0.44570  0.63760  1.0000 -0.2622140016
C   C30       1.0  0.33290  0.88720  0.63760  1.0000 -0.2622140016
C   C31       1.0  0.33290  0.44570  0.13760  1.0000 -0.2622140016
C   C32       1.0  0.55430  0.88720  0.13760  1.0000 -0.2622140016
C   C33       1.0  0.11280  0.66710  0.13760  1.0000 -0.2622140016
C   C34       1.0  0.44570  0.33290  0.36240  1.0000 -0.2622140016
C   C35       1.0  0.88720  0.55430  0.36240  1.0000 -0.2622140016
C   C36       1.0  0.66710  0.11280  0.36240  1.0000 -0.2622140016
C   C37       1.0  0.56060  0.43980  0.84210  1.0000 0.6361960009
C   C38       1.0  0.56020  0.12080  0.84210  1.0000 0.6361960009
C   C39       1.0  0.87920  0.43940  0.84210  1.0000 0.6361960009
C   C40       1.0  0.43980  0.56060  0.65790  1.0000 0.6361960009
C   C41       1.0  0.12080  0.56020  0.65790  1.0000 0.6361960009
C   C42       1.0  0.43940  0.87920  0.65790  1.0000 0.6361960009
C   C43       1.0  0.43940  0.56020  0.15790  1.0000 0.6361960009
C   C44       1.0  0.43980  0.87920  0.15790  1.0000 0.6361960009
C   C45       1.0  0.12080  0.56060  0.15790  1.0000 0.6361960009
C   C46       1.0  0.56020  0.43940  0.34210  1.0000 0.6361960009
C   C47       1.0  0.87920  0.43980  0.34210  1.0000 0.6361960009
C   C48       1.0  0.56060  0.12080  0.34210  1.0000 0.6361960009
N   N1        1.0  0.65040  0.61050  0.94170  1.0000 -0.2488105846
N   N2        1.0  0.38950  0.03990  0.94170  1.0000 -0.2488105846
N   N3        1.0  0.96010  0.34960  0.94170  1.0000 -0.2488105846
N   N4        1.0  0.61050  0.65040  0.55830  1.0000 -0.2488105846
N   N5        1.0  0.03990  0.38950  0.55830  1.0000 -0.2488105846
N   N6        1.0  0.34960  0.96010  0.55830  1.0000 -0.2488105846
N   N7        1.0  0.34960  0.38950  0.05830  1.0000 -0.2488105846
N   N8        1.0  0.61050  0.96010  0.05830  1.0000 -0.2488105846
N   N9        1.0  0.03990  0.65040  0.05830  1.0000 -0.2488105846
N   N10       1.0  0.38950  0.34960  0.44170  1.0000 -0.2488105846
N   N11       1.0  0.96010  0.61050  0.44170  1.0000 -0.2488105846
N   N12       1.0  0.65040  0.03990  0.44170  1.0000 -0.2488105846
O   O1        1.0  0.80070  0.55930  0.12170  1.0000 -0.5836493935
O   O2        1.0  0.44070  0.24140  0.12170  1.0000 -0.5836493935
O   O3        1.0  0.75860  0.19930  0.12170  1.0000 -0.5836493935
O   O4        1.0  0.55930  0.80070  0.37830  1.0000 -0.5836493935
O   O5        1.0  0.24140  0.44070  0.37830  1.0000 -0.5836493935
O   O6        1.0  0.19930  0.75860  0.37830  1.0000 -0.5836493935
O   O7        1.0  0.19930  0.44070  0.87830  1.0000 -0.5836493935
O   O8        1.0  0.55930  0.75860  0.87830  1.0000 -0.5836493935
O   O9        1.0  0.24140  0.80070  0.87830  1.0000 -0.5836493935
O   O10       1.0  0.44070  0.19930  0.62170  1.0000 -0.5836493935
O   O11       1.0  0.75860  0.55930  0.62170  1.0000 -0.5836493935
O   O12       1.0  0.80070  0.24140  0.62170  1.0000 -0.5836493935
O   O13       1.0  0.63540  0.45200  0.05370  1.0000 -0.619148996
O   O14       1.0  0.54800  0.18340  0.05370  1.0000 -0.619148996
O   O15       1.0  0.81660  0.36460  0.05370  1.0000 -0.619148996
O   O16       1.0  0.45200  0.63540  0.44630  1.0000 -0.619148996
O   O17       1.0  0.18340  0.54800  0.44630  1.0000 -0.619148996
O   O18       1.0  0.36460  0.81660  0.44630  1.0000 -0.619148996
O   O19       1.0  0.36460  0.54800  0.94630  1.0000 -0.619148996
O   O20       1.0  0.45200  0.81660  0.94630  1.0000 -0.619148996
O   O21       1.0  0.18340  0.63540  0.94630  1.0000 -0.619148996
O   O22       1.0  0.54800  0.36460  0.55370  1.0000 -0.619148996
O   O23       1.0  0.81660  0.45200  0.55370  1.0000 -0.619148996
O   O24       1.0  0.63540  0.18340  0.55370  1.0000 -0.619148996
O   O25       1.0  0.56210  0.38610  0.77480  1.0000 -0.5922016765
O   O26       1.0  0.61390  0.17600  0.77480  1.0000 -0.5922016765
O   O27       1.0  0.82400  0.43790  0.77480  1.0000 -0.5922016765
O   O28       1.0  0.38610  0.56210  0.72520  1.0000 -0.5922016765
O   O29       1.0  0.17600  0.61390  0.72520  1.0000 -0.5922016765
O   O30       1.0  0.43790  0.82400  0.72520  1.0000 -0.5922016765
O   O31       1.0  0.43790  0.61390  0.22520  1.0000 -0.5922016765
O   O32       1.0  0.38610  0.82400  0.22520  1.0000 -0.5922016765
O   O33       1.0  0.17600  0.56210  0.22520  1.0000 -0.5922016765
O   O34       1.0  0.61390  0.43790  0.27480  1.0000 -0.5922016765
O   O35       1.0  0.82400  0.38610  0.27480  1.0000 -0.5922016765
O   O36       1.0  0.56210  0.17600  0.27480  1.0000 -0.5922016765
O   O37       1.0  0.47530  0.40370  0.89370  1.0000 -0.5110839869
O   O38       1.0  0.59630  0.07160  0.89370  1.0000 -0.5110839869
O   O39       1.0  0.92840  0.52470  0.89370  1.0000 -0.5110839869
O   O40       1.0  0.40370  0.47530  0.60630  1.0000 -0.5110839869
O   O41       1.0  0.07160  0.59630  0.60630  1.0000 -0.5110839869
O   O42       1.0  0.52470  0.92840  0.60630  1.0000 -0.5110839869
O   O43       1.0  0.52470  0.59630  0.10630  1.0000 -0.5110839869
O   O44       1.0  0.40370  0.92840  0.10630  1.0000 -0.5110839869
O   O45       1.0  0.07160  0.47530  0.10630  1.0000 -0.5110839869
O   O46       1.0  0.59630  0.52470  0.39370  1.0000 -0.5110839869
O   O47       1.0  0.92840  0.40370  0.39370  1.0000 -0.5110839869
O   O48       1.0  0.47530  0.07160  0.39370  1.0000 -0.5110839869
