# DDEC6 charges by PACMAN v1.1 (https://github.com/mtap-research/PACMAN-charge/)
data_2008[Cd][ths]3[FSR]2
_chemical_formula_sum              "Cd8 H56 C16 S4 O60"
_cell_length_a       8.4085
_cell_length_b       9.807
_cell_length_c       21.019
_cell_angle_alpha    90
_cell_angle_beta     90
_cell_angle_gamma    90

_symmetry_space_group_name_H-M    "P 1"
_symmetry_Int_Tables_number       1

loop_
  _symmetry_equiv_pos_as_xyz
  'x, y, z'

loop_
  _atom_site_type_symbol
  _atom_site_label
  _atom_site_symmetry_multiplicity
  _atom_site_fract_x
  _atom_site_fract_y
  _atom_site_fract_z
  _atom_site_occupancy
  _atom_site_charge
Cd  Cd1       1.0  0.99564  0.60750  0.28306  1.0000 1.0325839565
Cd  Cd2       1.0  0.50436  0.39250  0.78306  1.0000 1.0325839565
Cd  Cd3       1.0  0.00436  0.10750  0.21694  1.0000 1.0325839565
Cd  Cd4       1.0  0.49564  0.89250  0.71694  1.0000 1.0325839565
Cd  Cd5       1.0  0.80607  0.16251  0.47737  1.0000 0.9946980522
Cd  Cd6       1.0  0.69393  0.83749  0.97737  1.0000 0.9952813433
Cd  Cd7       1.0  0.19393  0.66251  0.02263  1.0000 0.9946980522
Cd  Cd8       1.0  0.30607  0.33749  0.52263  1.0000 0.9946980522
H   H1        1.0  0.18500  0.18200  0.31350  1.0000 0.3542963511
H   H2        1.0  0.31500  0.81800  0.81350  1.0000 0.3542963511
H   H3        1.0  0.81500  0.68200  0.18650  1.0000 0.3542963511
H   H4        1.0  0.68500  0.31800  0.68650  1.0000 0.3542963511
H   H5        1.0  0.93400  0.90600  0.42100  1.0000 0.3542963511
H   H6        1.0  0.56600  0.09400  0.92100  1.0000 0.3542963511
H   H7        1.0  0.06600  0.40600  0.07900  1.0000 0.3542963511
H   H8        1.0  0.43400  0.59400  0.57900  1.0000 0.3542963511
H   H9        1.0  0.84800  0.21600  0.35670  1.0000 0.3617413938
H   H10       1.0  0.65200  0.78400  0.85670  1.0000 0.3617413938
H   H11       1.0  0.15200  0.71600  0.14330  1.0000 0.3617413938
H   H12       1.0  0.34800  0.28400  0.64330  1.0000 0.3617413938
H   H13       1.0  0.73400  0.31700  0.36580  1.0000 0.3721304392
H   H14       1.0  0.76600  0.68300  0.86580  1.0000 0.3721304392
H   H15       1.0  0.26600  0.81700  0.13420  1.0000 0.3721304392
H   H16       1.0  0.23400  0.18300  0.63420  1.0000 0.3721304392
H   H17       1.0  0.61300  0.96600  0.41180  1.0000 0.3721304392
H   H18       1.0  0.88700  0.03400  0.91180  1.0000 0.3751642452
H   H19       1.0  0.38700  0.46600  0.08820  1.0000 0.3721304392
H   H20       1.0  0.11300  0.53400  0.58820  1.0000 0.3721304392
H   H21       1.0  0.51700  0.05800  0.44360  1.0000 0.3617413938
H   H22       1.0  0.98300  0.94200  0.94360  1.0000 0.3617413938
H   H23       1.0  0.48300  0.55800  0.05640  1.0000 0.3617413938
H   H24       1.0  0.01700  0.44200  0.55640  1.0000 0.3617413938
H   H25       1.0  0.85200  0.95440  0.55740  1.0000 0.3617413938
H   H26       1.0  0.64800  0.04560  0.05740  1.0000 0.3542963511
H   H27       1.0  0.14800  0.45440  0.94260  1.0000 0.3542963511
H   H28       1.0  0.35200  0.54560  0.44260  1.0000 0.3542963511
H   H29       1.0  0.88600  0.07100  0.59100  1.0000 0.3617413938
H   H30       1.0  0.61400  0.92900  0.09100  1.0000 0.3617413938
H   H31       1.0  0.11400  0.57100  0.90900  1.0000 0.3617413938
H   H32       1.0  0.38600  0.42900  0.40900  1.0000 0.3617413938
H   H33       1.0  0.25000  0.53400  0.21510  1.0000 0.3542963511
H   H34       1.0  0.25000  0.46600  0.71510  1.0000 0.3542963511
H   H35       1.0  0.75000  0.03400  0.28490  1.0000 0.3542963511
H   H36       1.0  0.75000  0.96600  0.78490  1.0000 0.3542963511
H   H37       1.0  0.31200  0.63000  0.25590  1.0000 0.3721304392
H   H38       1.0  0.18800  0.37000  0.75590  1.0000 0.3721304392
H   H39       1.0  0.68800  0.13000  0.24410  1.0000 0.3721304392
H   H40       1.0  0.81200  0.87000  0.74410  1.0000 0.3721304392
H   H41       1.0  0.96300  0.42200  0.38320  1.0000 0.338575025
H   H42       1.0  0.53700  0.57800  0.88320  1.0000 0.338575025
H   H43       1.0  0.03700  0.92200  0.11680  1.0000 0.338575025
H   H44       1.0  0.46300  0.07800  0.61680  1.0000 0.338575025
H   H45       1.0  0.10200  0.49200  0.39520  1.0000 0.338575025
H   H46       1.0  0.39800  0.50800  0.89520  1.0000 0.338575025
H   H47       1.0  0.89800  0.99200  0.10480  1.0000 0.338575025
H   H48       1.0  0.60200  0.00800  0.60480  1.0000 0.338575025
H   H49       1.0  0.28300  0.00350  0.34630  1.0000 0.126156208
H   H50       1.0  0.21700  0.99650  0.84630  1.0000 0.126156208
H   H51       1.0  0.71700  0.50350  0.15370  1.0000 0.126156208
H   H52       1.0  0.78300  0.49650  0.65370  1.0000 0.126156208
H   H53       1.0  0.16440  0.91510  0.43770  1.0000 0.1190399425
H   H54       1.0  0.33560  0.08490  0.93770  1.0000 0.1190399425
H   H55       1.0  0.83560  0.41510  0.06230  1.0000 0.1190399425
H   H56       1.0  0.66440  0.58490  0.56230  1.0000 0.1190399425
C   C1        1.0  0.09890  0.88300  0.31292  1.0000 0.5698302583
C   C2        1.0  0.40110  0.11700  0.81292  1.0000 0.5698302583
C   C3        1.0  0.90110  0.38300  0.18708  1.0000 0.5698302583
C   C4        1.0  0.59890  0.61700  0.68708  1.0000 0.5698302583
C   C5        1.0  0.16660  0.00630  0.34882  1.0000 -0.0038682567
C   C6        1.0  0.33340  0.99370  0.84882  1.0000 -0.0038682567
C   C7        1.0  0.83340  0.50630  0.15118  1.0000 -0.0038682567
C   C8        1.0  0.66667  0.49370  0.65118  1.0000 -0.0038682567
C   C9        1.0  0.11690  0.99700  0.41887  1.0000 -0.0137493108
C   C10       1.0  0.38310  0.00300  0.91887  1.0000 -0.0137493108
C   C11       1.0  0.88310  0.49700  0.08113  1.0000 -0.0137493108
C   C12       1.0  0.61690  0.50300  0.58113  1.0000 -0.0137493108
C   C13       1.0  0.17430  0.12090  0.45506  1.0000 0.5698302583
C   C14       1.0  0.32570  0.87910  0.95506  1.0000 0.5698302583
C   C15       1.0  0.82570  0.62090  0.04494  1.0000 0.5698302583
C   C16       1.0  0.67430  0.37910  0.54494  1.0000 0.5698302583
S   S1        1.0  0.63144  0.76038  0.29278  1.0000 1.4201583312
S   S2        1.0  0.86856  0.23962  0.79278  1.0000 1.4201583312
S   S3        1.0  0.36856  0.26038  0.20722  1.0000 1.4201583312
S   S4        1.0  0.13144  0.73962  0.70722  1.0000 1.4201583312
O   O1        1.0  0.04600  0.89630  0.25775  1.0000 -0.5406280487
O   O2        1.0  0.45400  0.10370  0.75775  1.0000 -0.5406280487
O   O3        1.0  0.95400  0.39630  0.24225  1.0000 -0.5406280487
O   O4        1.0  0.54600  0.60370  0.74225  1.0000 -0.5406280487
O   O5        1.0  0.10170  0.77250  0.34239  1.0000 -0.5104690446
O   O6        1.0  0.39830  0.22750  0.84239  1.0000 -0.5104690446
O   O7        1.0  0.89830  0.27250  0.15761  1.0000 -0.5104690446
O   O8        1.0  0.60170  0.72750  0.65761  1.0000 -0.5104690446
O   O9        1.0  0.11280  0.13029  0.32196  1.0000 -0.4622957511
O   O10       1.0  0.38720  0.86971  0.82196  1.0000 -0.4622957511
O   O11       1.0  0.88720  0.63029  0.17804  1.0000 -0.4622957511
O   O12       1.0  0.61280  0.36971  0.67804  1.0000 -0.4622957511
O   O13       1.0  0.94900  0.98780  0.42373  1.0000 -0.476025763
O   O14       1.0  0.55100  0.01220  0.92373  1.0000 -0.476025763
O   O15       1.0  0.05100  0.48780  0.07627  1.0000 -0.476025763
O   O16       1.0  0.44900  0.51220  0.57627  1.0000 -0.476025763
O   O17       1.0  0.07870  0.19840  0.48292  1.0000 -0.5617182805
O   O18       1.0  0.42130  0.80160  0.98292  1.0000 -0.5617182805
O   O19       1.0  0.92130  0.69840  0.01708  1.0000 -0.5617182805
O   O20       1.0  0.57870  0.30160  0.51708  1.0000 -0.5617182805
O   O21       1.0  0.32160  0.14280  0.45649  1.0000 -0.5406280487
O   O22       1.0  0.17840  0.85720  0.95649  1.0000 -0.5406280487
O   O23       1.0  0.67840  0.64280  0.04351  1.0000 -0.5406280487
O   O24       1.0  0.82160  0.35720  0.54351  1.0000 -0.5406280487
O   O25       1.0  0.81130  0.27460  0.38224  1.0000 -0.6679135118
O   O26       1.0  0.68870  0.72540  0.88224  1.0000 -0.6679135118
O   O27       1.0  0.18870  0.77460  0.11776  1.0000 -0.6679135118
O   O28       1.0  0.31130  0.22540  0.61776  1.0000 -0.6679135118
O   O29       1.0  0.60990  0.02200  0.44213  1.0000 -0.6897091138
O   O30       1.0  0.89010  0.97800  0.94213  1.0000 -0.6897091138
O   O31       1.0  0.39010  0.52200  0.05787  1.0000 -0.6897091138
O   O32       1.0  0.10990  0.47800  0.55787  1.0000 -0.6845620229
O   O33       1.0  0.81520  0.03280  0.56779  1.0000 -0.6462884946
O   O34       1.0  0.68480  0.96720  0.06779  1.0000 -0.6462884946
O   O35       1.0  0.18480  0.53280  0.93221  1.0000 -0.6462884946
O   O36       1.0  0.31520  0.46720  0.43221  1.0000 -0.6462884946
O   O37       1.0  0.23520  0.61200  0.23136  1.0000 -0.6897091138
O   O38       1.0  0.26480  0.38800  0.73136  1.0000 -0.6897091138
O   O39       1.0  0.76480  0.11200  0.26864  1.0000 -0.6897091138
O   O40       1.0  0.73520  0.88800  0.76864  1.0000 -0.6897091138
O   O41       1.0  0.01070  0.49730  0.38044  1.0000 -0.6679135118
O   O42       1.0  0.48930  0.50270  0.88044  1.0000 -0.6679135118
O   O43       1.0  0.98930  0.99730  0.11956  1.0000 -0.6679135118
O   O44       1.0  0.51070  0.00270  0.61956  1.0000 -0.6679135118
O   O45       1.0  0.73530  0.64610  0.31247  1.0000 -0.6961051925
O   O46       1.0  0.76470  0.35390  0.81247  1.0000 -0.6961051925
O   O47       1.0  0.26470  0.14610  0.18753  1.0000 -0.6961051925
O   O48       1.0  0.23530  0.85390  0.68753  1.0000 -0.6961051925
O   O49       1.0  0.65300  0.78370  0.22377  1.0000 -0.6679135118
O   O50       1.0  0.84700  0.21630  0.72377  1.0000 -0.6679135118
O   O51       1.0  0.34700  0.28370  0.27623  1.0000 -0.6679135118
O   O52       1.0  0.15300  0.71630  0.77623  1.0000 -0.6679135118
O   O53       1.0  0.46730  0.72490  0.30734  1.0000 -0.6358219538
O   O54       1.0  0.03270  0.27510  0.80734  1.0000 -0.6338536098
O   O55       1.0  0.53270  0.22490  0.19266  1.0000 -0.6358219538
O   O56       1.0  0.96730  0.77510  0.69266  1.0000 -0.6358219538
O   O57       1.0  0.67480  0.88310  0.32792  1.0000 -0.6620354457
O   O58       1.0  0.82520  0.11690  0.82792  1.0000 -0.6620354457
O   O59       1.0  0.32520  0.38310  0.17208  1.0000 -0.6620354457
O   O60       1.0  0.17480  0.61690  0.67208  1.0000 -0.6620354457
