# DDEC6 charges by PACMAN v1.1 (https://github.com/mtap-research/PACMAN-charge/)
data_2008[Ag][nan]3[FSR]1
_chemical_formula_sum              "Ag240 H1440 C1200 N480"
_cell_length_a       45.6736
_cell_length_b       45.6736
_cell_length_c       45.6736
_cell_angle_alpha    94.9819
_cell_angle_beta     94.9819
_cell_angle_gamma    145.722

_symmetry_space_group_name_H-M    "P 1"
_symmetry_Int_Tables_number       1

loop_
  _symmetry_equiv_pos_as_xyz
  'x, y, z'

loop_
  _atom_site_type_symbol
  _atom_site_label
  _atom_site_symmetry_multiplicity
  _atom_site_fract_x
  _atom_site_fract_y
  _atom_site_fract_z
  _atom_site_occupancy
  _atom_site_charge
Ag  Ag1       1.0  0.10138  0.91766  0.23158  1.0000 0.2572484018
Ag  Ag2       1.0  0.11980  0.85138  0.68372  1.0000 0.2572484018
Ag  Ag3       1.0  0.16766  0.43608  0.31628  1.0000 0.2572484018
Ag  Ag4       1.0  0.68608  0.86980  0.76842  1.0000 0.2572484018
Ag  Ag5       1.0  0.14862  0.83234  0.26842  1.0000 0.2572484018
Ag  Ag6       1.0  0.13020  0.89862  0.81628  1.0000 0.2572484018
Ag  Ag7       1.0  0.08234  0.31392  0.18372  1.0000 0.2572484018
Ag  Ag8       1.0  0.56392  0.88020  0.73158  1.0000 0.2572484018
Ag  Ag9       1.0  0.03547  0.80181  0.23864  1.0000 0.2228779392
Ag  Ag10      1.0  0.04683  0.78547  0.73366  1.0000 0.2228779392
Ag  Ag11      1.0  0.05181  0.31317  0.26634  1.0000 0.2228779392
Ag  Ag12      1.0  0.56317  0.79683  0.76136  1.0000 0.2228779392
Ag  Ag13      1.0  0.21453  0.94819  0.26136  1.0000 0.2228779392
Ag  Ag14      1.0  0.20317  0.96453  0.76634  1.0000 0.2228779392
Ag  Ag15      1.0  0.19819  0.43683  0.23366  1.0000 0.2228779392
Ag  Ag16      1.0  0.68683  0.95317  0.73864  1.0000 0.2228779392
Ag  Ag17      1.0  0.09837  0.89523  0.72714  1.0000 0.2228779392
Ag  Ag18      1.0  0.62123  0.84837  0.70314  1.0000 0.2228779392
Ag  Ag19      1.0  0.14523  0.91809  0.29686  1.0000 0.2228779392
Ag  Ag20      1.0  0.16809  0.37123  0.27286  1.0000 0.2228779392
Ag  Ag21      1.0  0.15163  0.85477  0.77286  1.0000 0.2228779392
Ag  Ag22      1.0  0.62877  0.90163  0.79686  1.0000 0.2228779392
Ag  Ag23      1.0  0.10477  0.83191  0.20314  1.0000 0.2228779392
Ag  Ag24      1.0  0.08191  0.37877  0.22714  1.0000 0.2228779392
Ag  Ag25      1.0  0.43845  0.48293  0.68466  1.0000 0.2109161658
Ag  Ag26      1.0  0.00379  0.18845  0.45552  1.0000 0.2109161658
Ag  Ag27      1.0  0.73293  0.54827  0.54448  1.0000 0.2109161658
Ag  Ag28      1.0  0.79827  0.75379  0.31534  1.0000 0.2109161658
Ag  Ag29      1.0  0.81155  0.26707  0.81534  1.0000 0.2109161658
Ag  Ag30      1.0  0.24621  0.56155  0.04448  1.0000 0.2109161658
Ag  Ag31      1.0  0.51707  0.20173  0.95552  1.0000 0.2109161658
Ag  Ag32      1.0  0.45173  0.99621  0.18466  1.0000 0.2109161658
Ag  Ag33      1.0  0.39299  0.47528  0.61791  1.0000 0.2284028959
Ag  Ag34      1.0  0.02508  0.14299  0.41771  1.0000 0.2284028959
Ag  Ag35      1.0  0.72528  0.60737  0.58229  1.0000 0.2284028959
Ag  Ag36      1.0  0.85737  0.77508  0.38209  1.0000 0.2284028959
Ag  Ag37      1.0  0.85701  0.27472  0.88209  1.0000 0.2284028959
Ag  Ag38      1.0  0.22492  0.60701  0.08229  1.0000 0.2284028959
Ag  Ag39      1.0  0.52472  0.14263  0.91771  1.0000 0.2284028959
Ag  Ag40      1.0  0.39263  0.97492  0.11791  1.0000 0.2284028959
Ag  Ag41      1.0  0.13064  0.26456  0.47342  1.0000 0.2572484018
Ag  Ag42      1.0  0.90722  0.88064  0.36608  1.0000 0.2572484018
Ag  Ag43      1.0  0.51456  0.54114  0.63392  1.0000 0.2572484018
Ag  Ag44      1.0  0.79114  0.65722  0.52658  1.0000 0.2572484018
Ag  Ag45      1.0  0.11936  0.48544  0.02658  1.0000 0.2572484018
Ag  Ag46      1.0  0.34278  0.86936  0.13392  1.0000 0.2572484018
Ag  Ag47      1.0  0.73544  0.20886  0.86608  1.0000 0.2572484018
Ag  Ag48      1.0  0.45886  0.09278  0.97342  1.0000 0.2572484018
Ag  Ag49      1.0  0.65828  0.31447  0.96273  1.0000 0.2572484018
Ag  Ag50      1.0  0.94555  0.40828  0.84381  1.0000 0.2572484018
Ag  Ag51      1.0  0.56447  0.10174  0.15619  1.0000 0.2572484018
Ag  Ag52      1.0  0.35174  0.69555  0.03727  1.0000 0.2572484018
Ag  Ag53      1.0  0.59172  0.43553  0.53727  1.0000 0.2572484018
Ag  Ag54      1.0  0.30445  0.34172  0.65619  1.0000 0.2572484018
Ag  Ag55      1.0  0.68553  0.64826  0.34381  1.0000 0.2572484018
Ag  Ag56      1.0  0.89826  0.05445  0.46273  1.0000 0.2572484018
Ag  Ag57      1.0  0.61218  0.21275  0.97753  1.0000 0.2109161658
Ag  Ag58      1.0  0.88465  0.36218  0.89943  1.0000 0.2109161658
Ag  Ag59      1.0  0.46275  0.98522  0.10057  1.0000 0.2228779392
Ag  Ag60      1.0  0.23522  0.63465  0.02247  1.0000 0.2228779392
Ag  Ag61      1.0  0.63782  0.53725  0.52247  1.0000 0.2228779392
Ag  Ag62      1.0  0.36535  0.38782  0.60057  1.0000 0.2109161658
Ag  Ag63      1.0  0.78725  0.76478  0.39943  1.0000 0.2228779392
Ag  Ag64      1.0  0.01478  0.11535  0.47753  1.0000 0.2109161658
Ag  Ag65      1.0  0.59858  0.26640  0.02028  1.0000 0.2405164017
Ag  Ag66      1.0  0.82830  0.34858  0.83218  1.0000 0.2405164017
Ag  Ag67      1.0  0.51640  0.99612  0.16782  1.0000 0.2405164017
Ag  Ag68      1.0  0.24612  0.57830  0.97972  1.0000 0.2405164017
Ag  Ag69      1.0  0.65142  0.48360  0.47972  1.0000 0.2405164017
Ag  Ag70      1.0  0.42170  0.40142  0.66782  1.0000 0.2405164017
Ag  Ag71      1.0  0.73360  0.75388  0.33218  1.0000 0.2405164017
Ag  Ag72      1.0  0.00388  0.17170  0.52028  1.0000 0.2405164017
Ag  Ag73      1.0  0.25547  0.67462  0.86043  1.0000 0.2109161658
Ag  Ag74      1.0  0.64504  0.00547  0.08085  1.0000 0.2109161658
Ag  Ag75      1.0  0.92462  0.56419  0.91915  1.0000 0.2109161658
Ag  Ag76      1.0  0.81419  0.39504  0.13957  1.0000 0.2109161658
Ag  Ag77      1.0  0.99453  0.07538  0.63957  1.0000 0.2109161658
Ag  Ag78      1.0  0.60496  0.74453  0.41915  1.0000 0.2109161658
Ag  Ag79      1.0  0.32538  0.18581  0.58085  1.0000 0.2109161658
Ag  Ag80      1.0  0.43581  0.35496  0.36043  1.0000 0.2109161658
Ag  Ag81      1.0  0.34537  0.78934  0.91373  1.0000 0.2284028959
Ag  Ag82      1.0  0.68164  0.09537  0.05603  1.0000 0.2284028959
Ag  Ag83      1.0  0.03934  0.62561  0.94397  1.0000 0.2284028959
Ag  Ag84      1.0  0.87561  0.43164  0.08627  1.0000 0.2284028959
Ag  Ag85      1.0  0.90463  0.96066  0.58627  1.0000 0.2284028959
Ag  Ag86      1.0  0.56836  0.65463  0.44397  1.0000 0.2284028959
Ag  Ag87      1.0  0.21066  0.12439  0.55603  1.0000 0.2284028959
Ag  Ag88      1.0  0.37439  0.31836  0.41373  1.0000 0.2284028959
Ag  Ag89      1.0  0.38524  0.75495  0.88605  1.0000 0.2572484018
Ag  Ag90      1.0  0.74919  0.13524  0.13029  1.0000 0.2572484018
Ag  Ag91      1.0  0.00495  0.61890  0.86971  1.0000 0.2572484018
Ag  Ag92      1.0  0.86890  0.49919  0.11395  1.0000 0.2572484018
Ag  Ag93      1.0  0.86476  0.99505  0.61395  1.0000 0.2572484018
Ag  Ag94      1.0  0.50081  0.61476  0.36971  1.0000 0.2572484018
Ag  Ag95      1.0  0.24505  0.13110  0.63029  1.0000 0.2572484018
Ag  Ag96      1.0  0.38110  0.25081  0.38605  1.0000 0.2572484018
Ag  Ag97      1.0  0.33281  0.26367  0.31262  1.0000 0.2228779392
Ag  Ag98      1.0  0.27019  0.08281  0.56914  1.0000 0.2228779392
Ag  Ag99      1.0  0.51367  0.70105  0.43086  1.0000 0.2228779392
Ag  Ag100     1.0  0.95105  0.02019  0.68738  1.0000 0.2228779392
Ag  Ag101     1.0  0.91719  0.48633  0.18738  1.0000 0.2228779392
Ag  Ag102     1.0  0.97981  0.66719  0.93086  1.0000 0.2228779392
Ag  Ag103     1.0  0.73633  0.04895  0.06914  1.0000 0.2284028959
Ag  Ag104     1.0  0.29895  0.72981  0.81262  1.0000 0.2228779392
Ag  Ag105     1.0  0.26753  0.21553  0.36454  1.0000 0.2228779392
Ag  Ag106     1.0  0.15299  0.01753  0.55200  1.0000 0.2228779392
Ag  Ag107     1.0  0.46553  0.60099  0.44800  1.0000 0.2284028959
Ag  Ag108     1.0  0.85099  0.90299  0.63546  1.0000 0.2284028959
Ag  Ag109     1.0  0.98247  0.53447  0.13546  1.0000 0.2228779392
Ag  Ag110     1.0  0.09701  0.73247  0.94800  1.0000 0.2228779392
Ag  Ag111     1.0  0.78447  0.14901  0.05200  1.0000 0.2228779392
Ag  Ag112     1.0  0.39901  0.84701  0.86454  1.0000 0.2284028959
Ag  Ag113     1.0  0.30874  0.31310  0.33712  1.0000 0.2572484018
Ag  Ag114     1.0  0.22162  0.05874  0.49564  1.0000 0.2572484018
Ag  Ag115     1.0  0.56310  0.72598  0.50436  1.0000 0.2572484018
Ag  Ag116     1.0  0.97598  0.97162  0.66288  1.0000 0.2572484018
Ag  Ag117     1.0  0.94126  0.43690  0.16288  1.0000 0.2572484018
Ag  Ag118     1.0  0.02838  0.69126  0.00436  1.0000 0.2572484018
Ag  Ag119     1.0  0.68690  0.02402  0.99564  1.0000 0.2572484018
Ag  Ag120     1.0  0.27402  0.77838  0.83712  1.0000 0.2572484018
Ag  Ag121     1.0  0.77469  0.74839  0.82202  1.0000 0.2284028959
Ag  Ag122     1.0  0.20267  0.52469  0.52630  1.0000 0.2284028959
Ag  Ag123     1.0  0.99839  0.67637  0.47370  1.0000 0.2284028959
Ag  Ag124     1.0  0.92637  0.95267  0.17798  1.0000 0.2284028959
Ag  Ag125     1.0  0.47531  0.00161  0.67798  1.0000 0.2284028959
Ag  Ag126     1.0  0.04733  0.22531  0.97370  1.0000 0.2284028959
Ag  Ag127     1.0  0.25161  0.07363  0.02630  1.0000 0.2284028959
Ag  Ag128     1.0  0.32363  0.79733  0.32202  1.0000 0.2284028959
Ag  Ag129     1.0  0.89690  0.81992  0.84224  1.0000 0.1990913638
Ag  Ag130     1.0  0.30466  0.64690  0.57698  1.0000 0.1990913638
Ag  Ag131     1.0  0.06992  0.72768  0.42302  1.0000 0.1990913638
Ag  Ag132     1.0  0.97768  0.05466  0.15776  1.0000 0.1990913638
Ag  Ag133     1.0  0.35310  0.93008  0.65776  1.0000 0.1990913638
Ag  Ag134     1.0  0.94534  0.10310  0.92302  1.0000 0.1990913638
Ag  Ag135     1.0  0.18008  0.02232  0.07698  1.0000 0.1990913638
Ag  Ag136     1.0  0.27232  0.69534  0.34224  1.0000 0.1990913638
Ag  Ag137     1.0  0.79023  0.69317  0.78984  1.0000 0.2572484018
Ag  Ag138     1.0  0.25039  0.54023  0.59706  1.0000 0.2572484018
Ag  Ag139     1.0  0.94317  0.65333  0.40294  1.0000 0.2572484018
Ag  Ag140     1.0  0.90333  0.00039  0.21016  1.0000 0.2572484018
Ag  Ag141     1.0  0.45977  0.05683  0.71016  1.0000 0.2510129282
Ag  Ag142     1.0  0.99961  0.20977  0.90294  1.0000 0.2510129282
Ag  Ag143     1.0  0.30683  0.09667  0.09706  1.0000 0.2572484018
Ag  Ag144     1.0  0.34667  0.74961  0.28984  1.0000 0.2572484018
Ag  Ag145     1.0  0.98451  0.09918  0.87329  1.0000 0.2405164017
Ag  Ag146     1.0  0.36122  0.73451  0.38533  1.0000 0.2405164017
Ag  Ag147     1.0  0.34918  0.97589  0.61467  1.0000 0.2405164017
Ag  Ag148     1.0  0.22589  0.11122  0.12671  1.0000 0.2405164017
Ag  Ag149     1.0  0.26549  0.65082  0.62671  1.0000 0.2405164017
Ag  Ag150     1.0  0.88878  0.01549  0.11467  1.0000 0.2405164017
Ag  Ag151     1.0  0.90082  0.77411  0.88533  1.0000 0.2405164017
Ag  Ag152     1.0  0.02411  0.63878  0.37329  1.0000 0.2405164017
Ag  Ag153     1.0  0.03009  0.11408  0.94405  1.0000 0.2510129282
Ag  Ag154     1.0  0.33604  0.78009  0.41601  1.0000 0.2510129282
Ag  Ag155     1.0  0.36408  0.92003  0.58399  1.0000 0.2510129282
Ag  Ag156     1.0  0.17003  0.08604  0.05595  1.0000 0.2510129282
Ag  Ag157     1.0  0.21991  0.63592  0.55595  1.0000 0.2510129282
Ag  Ag158     1.0  0.91396  0.96991  0.08399  1.0000 0.2510129282
Ag  Ag159     1.0  0.88592  0.82997  0.91601  1.0000 0.2510129282
Ag  Ag160     1.0  0.07997  0.66396  0.44405  1.0000 0.2510129282
Ag  Ag161     1.0  0.09435  0.22519  0.92894  1.0000 0.1990913638
Ag  Ag162     1.0  0.41541  0.84435  0.36916  1.0000 0.1990913638
Ag  Ag163     1.0  0.47519  0.04625  0.63084  1.0000 0.1990913638
Ag  Ag164     1.0  0.29625  0.16541  0.07106  1.0000 0.1990913638
Ag  Ag165     1.0  0.15565  0.52481  0.57106  1.0000 0.1990913638
Ag  Ag166     1.0  0.83459  0.90565  0.13084  1.0000 0.1990913638
Ag  Ag167     1.0  0.77481  0.70375  0.86916  1.0000 0.1990913638
Ag  Ag168     1.0  0.95375  0.58459  0.42894  1.0000 0.1990913638
Ag  Ag169     1.0  0.42516  0.40764  0.14898  1.0000 0.2405164017
Ag  Ag170     1.0  0.52618  0.17516  0.51752  1.0000 0.2405164017
Ag  Ag171     1.0  0.65764  0.00866  0.48248  1.0000 0.2405164017
Ag  Ag172     1.0  0.25866  0.27618  0.85102  1.0000 0.2405164017
Ag  Ag173     1.0  0.82484  0.34236  0.35102  1.0000 0.2405164017
Ag  Ag174     1.0  0.72382  0.57484  0.98248  1.0000 0.2405164017
Ag  Ag175     1.0  0.59236  0.74134  0.01752  1.0000 0.2405164017
Ag  Ag176     1.0  0.99134  0.47382  0.64898  1.0000 0.2405164017
Ag  Ag177     1.0  0.37264  0.38895  0.08151  1.0000 0.2405164017
Ag  Ag178     1.0  0.54113  0.12264  0.48369  1.0000 0.2284028959
Ag  Ag179     1.0  0.63895  0.05744  0.51631  1.0000 0.2284028959
Ag  Ag180     1.0  0.30744  0.29113  0.91849  1.0000 0.2284028959
Ag  Ag181     1.0  0.87736  0.36105  0.41849  1.0000 0.2405164017
Ag  Ag182     1.0  0.70887  0.62736  0.01631  1.0000 0.2405164017
Ag  Ag183     1.0  0.61105  0.69256  0.98369  1.0000 0.2405164017
Ag  Ag184     1.0  0.94256  0.45887  0.58151  1.0000 0.2284028959
Ag  Ag185     1.0  0.29303  0.32426  0.13087  1.0000 0.2510129282
Ag  Ag186     1.0  0.41216  0.04303  0.46877  1.0000 0.2510129282
Ag  Ag187     1.0  0.57426  0.94339  0.53123  1.0000 0.2510129282
Ag  Ag188     1.0  0.19339  0.16216  0.86913  1.0000 0.2510129282
Ag  Ag189     1.0  0.95697  0.42574  0.36913  1.0000 0.2510129282
Ag  Ag190     1.0  0.83784  0.70697  0.03123  1.0000 0.2510129282
Ag  Ag191     1.0  0.67574  0.80661  0.96877  1.0000 0.2510129282
Ag  Ag192     1.0  0.05661  0.58784  0.63087  1.0000 0.2510129282
Ag  Ag193     1.0  0.65635  0.51925  0.03836  1.0000 0.2405164017
Ag  Ag194     1.0  0.86799  0.40635  0.63710  1.0000 0.2405164017
Ag  Ag195     1.0  0.76925  0.23089  0.36290  1.0000 0.2405164017
Ag  Ag196     1.0  0.48089  0.61799  0.96164  1.0000 0.2405164017
Ag  Ag197     1.0  0.59365  0.23075  0.46164  1.0000 0.2405164017
Ag  Ag198     1.0  0.38201  0.34365  0.86290  1.0000 0.2405164017
Ag  Ag199     1.0  0.48075  0.51911  0.13710  1.0000 0.2405164017
Ag  Ag200     1.0  0.76911  0.13201  0.53836  1.0000 0.2405164017
Ag  Ag201     1.0  0.78429  0.60877  0.05862  1.0000 0.2405164017
Ag  Ag202     1.0  0.97567  0.53429  0.67552  1.0000 0.2405164017
Ag  Ag203     1.0  0.85877  0.30015  0.32448  1.0000 0.2405164017
Ag  Ag204     1.0  0.55015  0.72567  0.94138  1.0000 0.2405164017
Ag  Ag205     1.0  0.46571  0.14123  0.44138  1.0000 0.2405164017
Ag  Ag206     1.0  0.27433  0.21571  0.82448  1.0000 0.2405164017
Ag  Ag207     1.0  0.39123  0.44985  0.17552  1.0000 0.2405164017
Ag  Ag208     1.0  0.69985  0.02433  0.55862  1.0000 0.2405164017
Ag  Ag209     1.0  0.74669  0.64245  0.09106  1.0000 0.2510129282
Ag  Ag210     1.0  0.90563  0.49669  0.60424  1.0000 0.2510129282
Ag  Ag211     1.0  0.89245  0.30139  0.39576  1.0000 0.2510129282
Ag  Ag212     1.0  0.55139  0.65563  0.90894  1.0000 0.2510129282
Ag  Ag213     1.0  0.50331  0.10755  0.40894  1.0000 0.2510129282
Ag  Ag214     1.0  0.34437  0.25331  0.89576  1.0000 0.2510129282
Ag  Ag215     1.0  0.35755  0.44861  0.10424  1.0000 0.2510129282
Ag  Ag216     1.0  0.69861  0.09437  0.59106  1.0000 0.2510129282
Ag  Ag217     1.0  0.15496  0.33739  0.74749  1.0000 0.2510129282
Ag  Ag218     1.0  0.65747  0.90496  0.31757  1.0000 0.2572484018
Ag  Ag219     1.0  0.58739  0.33990  0.68243  1.0000 0.2572484018
Ag  Ag220     1.0  0.58990  0.40747  0.25251  1.0000 0.2510129282
Ag  Ag221     1.0  0.09504  0.41261  0.75251  1.0000 0.2510129282
Ag  Ag222     1.0  0.59253  0.84504  0.18243  1.0000 0.2572484018
Ag  Ag223     1.0  0.66261  0.41010  0.81757  1.0000 0.2510129282
Ag  Ag224     1.0  0.66010  0.34253  0.24749  1.0000 0.2572484018
Ag  Ag225     1.0  0.14719  0.39233  0.79142  1.0000 0.1990913638
Ag  Ag226     1.0  0.60577  0.89719  0.25486  1.0000 0.1990913638
Ag  Ag227     1.0  0.64233  0.35091  0.74514  1.0000 0.1990913638
Ag  Ag228     1.0  0.60091  0.35577  0.20858  1.0000 0.1990913638
Ag  Ag229     1.0  0.10281  0.35767  0.70858  1.0000 0.1990913638
Ag  Ag230     1.0  0.64423  0.85281  0.24514  1.0000 0.1990913638
Ag  Ag231     1.0  0.60767  0.39909  0.75486  1.0000 0.1990913638
Ag  Ag232     1.0  0.64909  0.39423  0.29142  1.0000 0.1990913638
Ag  Ag233     1.0  0.22532  0.45806  0.74224  1.0000 0.2405164017
Ag  Ag234     1.0  0.73308  0.97532  0.26726  1.0000 0.2405164017
Ag  Ag235     1.0  0.70806  0.46582  0.73274  1.0000 0.2405164017
Ag  Ag236     1.0  0.71582  0.48308  0.25776  1.0000 0.2405164017
Ag  Ag237     1.0  0.02468  0.29194  0.75776  1.0000 0.2405164017
Ag  Ag238     1.0  0.51692  0.77468  0.23274  1.0000 0.2405164017
Ag  Ag239     1.0  0.54194  0.28418  0.76726  1.0000 0.2405164017
Ag  Ag240     1.0  0.53418  0.26692  0.24224  1.0000 0.2405164017
H   H1        1.0  0.04700  0.90970  0.17990  1.0000 0.1417669989
H   H2        1.0  0.11710  0.79700  0.63730  1.0000 0.1417669989
H   H3        1.0  0.15970  0.47980  0.36270  1.0000 0.1417669989
H   H4        1.0  0.72980  0.86710  0.82010  1.0000 0.1417669989
H   H5        1.0  0.20300  0.84030  0.32010  1.0000 0.1417669989
H   H6        1.0  0.13290  0.95300  0.86270  1.0000 0.1417669989
H   H7        1.0  0.09030  0.27020  0.13730  1.0000 0.1417669989
H   H8        1.0  0.52020  0.88290  0.67990  1.0000 0.1417669989
H   H9        1.0  0.01010  0.87140  0.14550  1.0000 0.1497073448
H   H10       1.0  0.11460  0.76010  0.63870  1.0000 0.1497073448
H   H11       1.0  0.12140  0.47590  0.36130  1.0000 0.1497073448
H   H12       1.0  0.72590  0.86460  0.85450  1.0000 0.1497073448
H   H13       1.0  0.23990  0.87860  0.35450  1.0000 0.1497073448
H   H14       1.0  0.13540  0.98990  0.86130  1.0000 0.1497073448
H   H15       1.0  0.12860  0.27410  0.13870  1.0000 0.1497073448
H   H16       1.0  0.52410  0.88540  0.64550  1.0000 0.1497073448
H   H17       1.0  0.98430  0.86580  0.17070  1.0000 0.1497073448
H   H18       1.0  0.06360  0.73430  0.61850  1.0000 0.1497073448
H   H19       1.0  0.11580  0.44510  0.38150  1.0000 0.1497073448
H   H20       1.0  0.69510  0.81360  0.82930  1.0000 0.1497073448
H   H21       1.0  0.26570  0.88420  0.32930  1.0000 0.1497073448
H   H22       1.0  0.18640  0.01570  0.88150  1.0000 0.1497073448
H   H23       1.0  0.13420  0.30490  0.11850  1.0000 0.1497073448
H   H24       1.0  0.55490  0.93640  0.67070  1.0000 0.1497073448
H   H25       1.0  0.93990  0.70330  0.19140  1.0000 0.1417669989
H   H26       1.0  0.99850  0.68990  0.73660  1.0000 0.1417669989
H   H27       1.0  0.95330  0.26190  0.26340  1.0000 0.1417669989
H   H28       1.0  0.51190  0.74850  0.80860  1.0000 0.1417669989
H   H29       1.0  0.31010  0.04670  0.30860  1.0000 0.1417669989
H   H30       1.0  0.25150  0.06010  0.76340  1.0000 0.1417669989
H   H31       1.0  0.29670  0.48810  0.23660  1.0000 0.1417669989
H   H32       1.0  0.73810  0.00150  0.69140  1.0000 0.1417669989
H   H33       1.0  0.88840  0.68110  0.18150  1.0000 0.1567201261
H   H34       1.0  0.95690  0.63840  0.70730  1.0000 0.1567201261
H   H35       1.0  0.93110  0.24960  0.29270  1.0000 0.1567201261
H   H36       1.0  0.49960  0.70690  0.81850  1.0000 0.1567201261
H   H37       1.0  0.36160  0.06890  0.31850  1.0000 0.1567201261
H   H38       1.0  0.29310  0.11160  0.79270  1.0000 0.1567201261
H   H39       1.0  0.31890  0.50040  0.20730  1.0000 0.1567201261
H   H40       1.0  0.75040  0.04310  0.68150  1.0000 0.1567201261
H   H41       1.0  0.91250  0.68480  0.15590  1.0000 0.1417669989
H   H42       1.0  0.00660  0.66250  0.72770  1.0000 0.1417669989
H   H43       1.0  0.93480  0.27890  0.27230  1.0000 0.1417669989
H   H44       1.0  0.52890  0.75660  0.84410  1.0000 0.1417669989
H   H45       1.0  0.33750  0.06520  0.34410  1.0000 0.1417669989
H   H46       1.0  0.24340  0.08750  0.77230  1.0000 0.1417669989
H   H47       1.0  0.31520  0.47110  0.22770  1.0000 0.1417669989
H   H48       1.0  0.72110  0.99340  0.65590  1.0000 0.1417669989
H   H49       1.0  0.99070  0.74050  0.79200  1.0000 0.1497073448
H   H50       1.0  0.44870  0.74070  0.75020  1.0000 0.1497073448
H   H51       1.0  0.99050  0.69850  0.24980  1.0000 0.1497073448
H   H52       1.0  0.94850  0.19870  0.20800  1.0000 0.1497073448
H   H53       1.0  0.25930  0.00950  0.70800  1.0000 0.1497073448
H   H54       1.0  0.80130  0.00930  0.74980  1.0000 0.1497073448
H   H55       1.0  0.25950  0.05150  0.25020  1.0000 0.1497073448
H   H56       1.0  0.30150  0.55130  0.29200  1.0000 0.1497073448
H   H57       1.0  0.94250  0.72160  0.79570  1.0000 0.1497073448
H   H58       1.0  0.39680  0.69250  0.72090  1.0000 0.1497073448
H   H59       1.0  0.97160  0.67590  0.27910  1.0000 0.1497073448
H   H60       1.0  0.92590  0.14680  0.20430  1.0000 0.1497073448
H   H61       1.0  0.30750  0.02840  0.70430  1.0000 0.1497073448
H   H62       1.0  0.85320  0.05750  0.77910  1.0000 0.1497073448
H   H63       1.0  0.27840  0.07410  0.22090  1.0000 0.1497073448
H   H64       1.0  0.32410  0.60320  0.29570  1.0000 0.1497073448
H   H65       1.0  0.93930  0.70150  0.76320  1.0000 0.1497073448
H   H66       1.0  0.42610  0.68930  0.73780  1.0000 0.1497073448
H   H67       1.0  0.95150  0.68830  0.26220  1.0000 0.1497073448
H   H68       1.0  0.93830  0.17610  0.23680  1.0000 0.1497073448
H   H69       1.0  0.31070  0.04850  0.73680  1.0000 0.1497073448
H   H70       1.0  0.82390  0.06070  0.76220  1.0000 0.1567201261
H   H71       1.0  0.29850  0.06170  0.23780  1.0000 0.1567201261
H   H72       1.0  0.31170  0.57390  0.26320  1.0000 0.1497073448
H   H73       1.0  0.04920  0.90620  0.75100  1.0000 0.1497073448
H   H74       1.0  0.54820  0.79920  0.64300  1.0000 0.1497073448
H   H75       1.0  0.15620  0.90520  0.35700  1.0000 0.1497073448
H   H76       1.0  0.15520  0.29820  0.24900  1.0000 0.1497073448
H   H77       1.0  0.20080  0.84380  0.74900  1.0000 0.1497073448
H   H78       1.0  0.70180  0.95080  0.85700  1.0000 0.1497073448
H   H79       1.0  0.09380  0.84480  0.14300  1.0000 0.1497073448
H   H80       1.0  0.09480  0.45180  0.25100  1.0000 0.1497073448
H   H81       1.0  0.00570  0.87890  0.76920  1.0000 0.1567201261
H   H82       1.0  0.48650  0.75570  0.62680  1.0000 0.1567201261
H   H83       1.0  0.12890  0.85970  0.37320  1.0000 0.1567201261
H   H84       1.0  0.10970  0.23650  0.23080  1.0000 0.1567201261
H   H85       1.0  0.24430  0.87110  0.73080  1.0000 0.1567201261
H   H86       1.0  0.76350  0.99430  0.87320  1.0000 0.1567201261
H   H87       1.0  0.12110  0.89030  0.12680  1.0000 0.1567201261
H   H88       1.0  0.14030  0.51350  0.26920  1.0000 0.1567201261
H   H89       1.0  0.06690  0.92360  0.78770  1.0000 0.1497073448
H   H90       1.0  0.52920  0.81690  0.64330  1.0000 0.1497073448
H   H91       1.0  0.17360  0.88590  0.35670  1.0000 0.1497073448
H   H92       1.0  0.13590  0.27920  0.21230  1.0000 0.1497073448
H   H93       1.0  0.18310  0.82640  0.71230  1.0000 0.1497073448
H   H94       1.0  0.72080  0.93310  0.85670  1.0000 0.1497073448
H   H95       1.0  0.07640  0.86410  0.14330  1.0000 0.1497073448
H   H96       1.0  0.11410  0.47080  0.28770  1.0000 0.1497073448
H   H97       1.0  0.24520  0.02750  0.34510  1.0000 0.1417669989
H   H98       1.0  0.15010  0.99520  0.71770  1.0000 0.1417669989
H   H99       1.0  0.27750  0.43240  0.28230  1.0000 0.1417669989
H   H100      1.0  0.68240  0.90010  0.65490  1.0000 0.1417669989
H   H101      1.0  0.00480  0.72250  0.15490  1.0000 0.1417669989
H   H102      1.0  0.09990  0.75480  0.78230  1.0000 0.1417669989
H   H103      1.0  0.97250  0.31760  0.21770  1.0000 0.1417669989
H   H104      1.0  0.56760  0.84990  0.84510  1.0000 0.1417669989
H   H105      1.0  0.28480  0.08860  0.35180  1.0000 0.1497073448
H   H106      1.0  0.18300  0.03480  0.69620  1.0000 0.1497073448
H   H107      1.0  0.33860  0.48680  0.30380  1.0000 0.1497073448
H   H108      1.0  0.73680  0.93300  0.64820  1.0000 0.1497073448
H   H109      1.0  0.96520  0.66140  0.14820  1.0000 0.1497073448
H   H110      1.0  0.06700  0.71520  0.80380  1.0000 0.1497073448
H   H111      1.0  0.91140  0.26320  0.19620  1.0000 0.1497073448
H   H112      1.0  0.51320  0.81700  0.85180  1.0000 0.1497073448
H   H113      1.0  0.22860  0.04400  0.36040  1.0000 0.1497073448
H   H114      1.0  0.11820  0.97860  0.68460  1.0000 0.1497073448
H   H115      1.0  0.29400  0.43360  0.31540  1.0000 0.1497073448
H   H116      1.0  0.68360  0.86820  0.63960  1.0000 0.1497073448
H   H117      1.0  0.02140  0.70600  0.13960  1.0000 0.1497073448
H   H118      1.0  0.13180  0.77140  0.81540  1.0000 0.1497073448
H   H119      1.0  0.95600  0.31640  0.18460  1.0000 0.1497073448
H   H120      1.0  0.56640  0.88180  0.86040  1.0000 0.1497073448
H   H121      1.0  0.14060  0.00780  0.23260  1.0000 0.1417669989
H   H122      1.0  0.15800  0.89060  0.63280  1.0000 0.1417669989
H   H123      1.0  0.25780  0.52520  0.36720  1.0000 0.1417669989
H   H124      1.0  0.77520  0.90800  0.76740  1.0000 0.1417669989
H   H125      1.0  0.10940  0.74220  0.26740  1.0000 0.1417669989
H   H126      1.0  0.09200  0.85940  0.86720  1.0000 0.1417669989
H   H127      1.0  0.99220  0.22480  0.13280  1.0000 0.1417669989
H   H128      1.0  0.47480  0.84200  0.73260  1.0000 0.1417669989
H   H129      1.0  0.17250  0.06040  0.25630  1.0000 0.1567201261
H   H130      1.0  0.16620  0.92250  0.61210  1.0000 0.1567201261
H   H131      1.0  0.31040  0.55410  0.38790  1.0000 0.1567201261
H   H132      1.0  0.80410  0.91620  0.74370  1.0000 0.1567201261
H   H133      1.0  0.07750  0.68960  0.24370  1.0000 0.1567201261
H   H134      1.0  0.08380  0.82750  0.88790  1.0000 0.1567201261
H   H135      1.0  0.93960  0.19590  0.11210  1.0000 0.1567201261
H   H136      1.0  0.44590  0.83380  0.75630  1.0000 0.1567201261
H   H137      1.0  0.20370  0.06580  0.23690  1.0000 0.1497073448
H   H138      1.0  0.21680  0.95370  0.63790  1.0000 0.1497073448
H   H139      1.0  0.31580  0.57890  0.36210  1.0000 0.1497073448
H   H140      1.0  0.82890  0.96680  0.76310  1.0000 0.1497073448
H   H141      1.0  0.04630  0.68420  0.26310  1.0000 0.1497073448
H   H142      1.0  0.03320  0.79630  0.86210  1.0000 0.1497073448
H   H143      1.0  0.93420  0.17110  0.13790  1.0000 0.1497073448
H   H144      1.0  0.42110  0.78320  0.73690  1.0000 0.1497073448
H   H145      1.0  0.39350  0.46690  0.73580  1.0000 0.1497073448
H   H146      1.0  0.90770  0.14350  0.42660  1.0000 0.1497073448
H   H147      1.0  0.71690  0.48110  0.57340  1.0000 0.1497073448
H   H148      1.0  0.73110  0.65770  0.26420  1.0000 0.1497073448
H   H149      1.0  0.85650  0.28310  0.76420  1.0000 0.1497073448
H   H150      1.0  0.34230  0.60650  0.07340  1.0000 0.1497073448
H   H151      1.0  0.53310  0.26890  0.92660  1.0000 0.1497073448
H   H152      1.0  0.51890  0.09230  0.23580  1.0000 0.1497073448
H   H153      1.0  0.34960  0.45280  0.74300  1.0000 0.1567201261
H   H154      1.0  0.85660  0.09960  0.39680  1.0000 0.1567201261
H   H155      1.0  0.70280  0.45980  0.60320  1.0000 0.1567201261
H   H156      1.0  0.70980  0.60660  0.25700  1.0000 0.1567201261
H   H157      1.0  0.90040  0.29720  0.75700  1.0000 0.1567201261
H   H158      1.0  0.39340  0.65040  0.10320  1.0000 0.1567201261
H   H159      1.0  0.54720  0.29020  0.89680  1.0000 0.1567201261
H   H160      1.0  0.54020  0.14340  0.24300  1.0000 0.1567201261
H   H161      1.0  0.33170  0.40500  0.72910  1.0000 0.1497073448
H   H162      1.0  0.85260  0.08170  0.42670  1.0000 0.1497073448
H   H163      1.0  0.65500  0.42590  0.57330  1.0000 0.1497073448
H   H164      1.0  0.67590  0.60260  0.27090  1.0000 0.1497073448
H   H165      1.0  0.91830  0.34500  0.77090  1.0000 0.1497073448
H   H166      1.0  0.39740  0.66830  0.07330  1.0000 0.1497073448
H   H167      1.0  0.59500  0.32410  0.92670  1.0000 0.1497073448
H   H168      1.0  0.57410  0.14740  0.22910  1.0000 0.1497073448
H   H169      1.0  0.27210  0.40500  0.60870  1.0000 0.1417669989
H   H170      1.0  0.91340  0.02210  0.36710  1.0000 0.1417669989
H   H171      1.0  0.65500  0.54630  0.63290  1.0000 0.1417669989
H   H172      1.0  0.79630  0.66340  0.39130  1.0000 0.1417669989
H   H173      1.0  0.97790  0.34500  0.89130  1.0000 0.1417669989
H   H174      1.0  0.33660  0.72790  0.13290  1.0000 0.1417669989
H   H175      1.0  0.59500  0.20370  0.86710  1.0000 0.1417669989
H   H176      1.0  0.45370  0.08660  0.10870  1.0000 0.1417669989
H   H177      1.0  0.25150  0.41080  0.63150  1.0000 0.1417669989
H   H178      1.0  0.87000  0.00150  0.34070  1.0000 0.1417669989
H   H179      1.0  0.66080  0.52930  0.65930  1.0000 0.1417669989
H   H180      1.0  0.77930  0.62000  0.36850  1.0000 0.1417669989
H   H181      1.0  0.99850  0.33920  0.86850  1.0000 0.1417669989
H   H182      1.0  0.38000  0.74850  0.15930  1.0000 0.1497073448
H   H183      1.0  0.58920  0.22070  0.84070  1.0000 0.1417669989
H   H184      1.0  0.47070  0.13000  0.13150  1.0000 0.1417669989
H   H185      1.0  0.30730  0.46330  0.62400  1.0000 0.1497073448
H   H186      1.0  0.93330  0.05730  0.34400  1.0000 0.1497073448
H   H187      1.0  0.71330  0.58930  0.65600  1.0000 0.1497073448
H   H188      1.0  0.83930  0.68330  0.37600  1.0000 0.1497073448
H   H189      1.0  0.94270  0.28670  0.87600  1.0000 0.1497073448
H   H190      1.0  0.31670  0.69270  0.15600  1.0000 0.1497073448
H   H191      1.0  0.53670  0.16070  0.84400  1.0000 0.1497073448
H   H192      1.0  0.41070  0.06670  0.12400  1.0000 0.1497073448
H   H193      1.0  0.04750  0.11460  0.37810  1.0000 0.1417669989
H   H194      1.0  0.91940  0.79750  0.43290  1.0000 0.1417669989
H   H195      1.0  0.36460  0.48650  0.56710  1.0000 0.1417669989
H   H196      1.0  0.73650  0.66940  0.62190  1.0000 0.1417669989
H   H197      1.0  0.20250  0.63540  0.12190  1.0000 0.1417669989
H   H198      1.0  0.33060  0.95250  0.06710  1.0000 0.1417669989
H   H199      1.0  0.88540  0.26350  0.93290  1.0000 0.1417669989
H   H200      1.0  0.51350  0.08060  0.87810  1.0000 0.1417669989
H   H201      1.0  0.09640  0.14560  0.36440  1.0000 0.1567201261
H   H202      1.0  0.98200  0.84640  0.45080  1.0000 0.1567201261
H   H203      1.0  0.39560  0.53120  0.54920  1.0000 0.1567201261
H   H204      1.0  0.78120  0.73200  0.63560  1.0000 0.1567201261
H   H205      1.0  0.15360  0.60440  0.13560  1.0000 0.1567201261
H   H206      1.0  0.26800  0.90360  0.04920  1.0000 0.1567201261
H   H207      1.0  0.85440  0.21880  0.95080  1.0000 0.1567201261
H   H208      1.0  0.46880  0.01800  0.86440  1.0000 0.1567201261
H   H209      1.0  0.08280  0.11600  0.38960  1.0000 0.1417669989
H   H210      1.0  0.94320  0.83280  0.46680  1.0000 0.1417669989
H   H211      1.0  0.36600  0.47640  0.53320  1.0000 0.1417669989
H   H212      1.0  0.72640  0.69320  0.61040  1.0000 0.1417669989
H   H213      1.0  0.16720  0.63400  0.11040  1.0000 0.1417669989
H   H214      1.0  0.30680  0.91720  0.03320  1.0000 0.1417669989
H   H215      1.0  0.88400  0.27360  0.96680  1.0000 0.1417669989
H   H216      1.0  0.52360  0.05680  0.88960  1.0000 0.1417669989
H   H217      1.0  0.24250  0.33930  0.47260  1.0000 0.1417669989
H   H218      1.0  0.01990  0.99250  0.40320  1.0000 0.1417669989
H   H219      1.0  0.58930  0.61670  0.59680  1.0000 0.1417669989
H   H220      1.0  0.86670  0.76990  0.52740  1.0000 0.1417669989
H   H221      1.0  0.00750  0.41070  0.02740  1.0000 0.1417669989
H   H222      1.0  0.23010  0.75750  0.09680  1.0000 0.1417669989
H   H223      1.0  0.66070  0.13330  0.90320  1.0000 0.1417669989
H   H224      1.0  0.38330  0.98010  0.97260  1.0000 0.1417669989
H   H225      1.0  0.26780  0.32890  0.46670  1.0000 0.1497073448
H   H226      1.0  0.05110  0.01780  0.43890  1.0000 0.1497073448
H   H227      1.0  0.57890  0.61220  0.56110  1.0000 0.1497073448
H   H228      1.0  0.86220  0.80110  0.53330  1.0000 0.1497073448
H   H229      1.0  0.98220  0.42110  0.03330  1.0000 0.1497073448
H   H230      1.0  0.19890  0.73220  0.06110  1.0000 0.1497073448
H   H231      1.0  0.67110  0.13780  0.93890  1.0000 0.1497073448
H   H232      1.0  0.38780  0.94890  0.96670  1.0000 0.1497073448
H   H233      1.0  0.26330  0.34960  0.44290  1.0000 0.1497073448
H   H234      1.0  0.07040  0.01330  0.41370  1.0000 0.1497073448
H   H235      1.0  0.59960  0.65670  0.58630  1.0000 0.1497073448
H   H236      1.0  0.90670  0.82040  0.55710  1.0000 0.1497073448
H   H237      1.0  0.98670  0.40040  0.05710  1.0000 0.1497073448
H   H238      1.0  0.17960  0.73670  0.08630  1.0000 0.1497073448
H   H239      1.0  0.65040  0.09330  0.91370  1.0000 0.1497073448
H   H240      1.0  0.34330  0.92960  0.94290  1.0000 0.1497073448
H   H241      1.0  0.63110  0.62260  0.65970  1.0000 0.1417669989
H   H242      1.0  0.22140  0.38110  0.50850  1.0000 0.1417669989
H   H243      1.0  0.87260  0.71290  0.49150  1.0000 0.1417669989
H   H244      1.0  0.96290  0.97140  0.34030  1.0000 0.1417669989
H   H245      1.0  0.61890  0.12740  0.84030  1.0000 0.1497073448
H   H246      1.0  0.02860  0.36890  0.99150  1.0000 0.1417669989
H   H247      1.0  0.37740  0.03710  0.00850  1.0000 0.1417669989
H   H248      1.0  0.28710  0.77860  0.15970  1.0000 0.1417669989
H   H249      1.0  0.67140  0.64460  0.68980  1.0000 0.1567201261
H   H250      1.0  0.23160  0.42140  0.52680  1.0000 0.1567201261
H   H251      1.0  0.89460  0.70480  0.47320  1.0000 0.1567201261
H   H252      1.0  0.95480  0.98160  0.31020  1.0000 0.1567201261
H   H253      1.0  0.57860  0.10540  0.81020  1.0000 0.1567201261
H   H254      1.0  0.01840  0.32860  0.97320  1.0000 0.1567201261
H   H255      1.0  0.35540  0.04520  0.02680  1.0000 0.1567201261
H   H256      1.0  0.29520  0.76840  0.18980  1.0000 0.1567201261
H   H257      1.0  0.63300  0.58980  0.66440  1.0000 0.1497073448
H   H258      1.0  0.21860  0.38300  0.54320  1.0000 0.1497073448
H   H259      1.0  0.83980  0.67540  0.45680  1.0000 0.1497073448
H   H260      1.0  0.92540  0.96860  0.33560  1.0000 0.1497073448
H   H261      1.0  0.61700  0.16020  0.83560  1.0000 0.1497073448
H   H262      1.0  0.03140  0.36700  0.95680  1.0000 0.1497073448
H   H263      1.0  0.41020  0.07460  0.04320  1.0000 0.1497073448
H   H264      1.0  0.32460  0.78140  0.16440  1.0000 0.1497073448
H   H265      1.0  0.48130  0.48520  0.74210  1.0000 0.1417669989
H   H266      1.0  0.98920  0.23130  0.49610  1.0000 0.1417669989
H   H267      1.0  0.73520  0.49310  0.50390  1.0000 0.1417669989
H   H268      1.0  0.74310  0.73920  0.25790  1.0000 0.1417669989
H   H269      1.0  0.76870  0.26480  0.75790  1.0000 0.1417669989
H   H270      1.0  0.26080  0.51870  0.00390  1.0000 0.1417669989
H   H271      1.0  0.51480  0.25690  0.99610  1.0000 0.1417669989
H   H272      1.0  0.50690  0.01080  0.24210  1.0000 0.1417669989
H   H273      1.0  0.53900  0.52390  0.76330  1.0000 0.1497073448
H   H274      1.0  0.02570  0.28900  0.51510  1.0000 0.1497073448
H   H275      1.0  0.77390  0.51060  0.48490  1.0000 0.1497073448
H   H276      1.0  0.76060  0.77570  0.23670  1.0000 0.1497073448
H   H277      1.0  0.71100  0.22610  0.73670  1.0000 0.1497073448
H   H278      1.0  0.22430  0.46100  0.98490  1.0000 0.1497073448
H   H279      1.0  0.47610  0.23940  0.01510  1.0000 0.1497073448
H   H280      1.0  0.48940  0.97430  0.26330  1.0000 0.1497073448
H   H281      1.0  0.52450  0.54590  0.76080  1.0000 0.1497073448
H   H282      1.0  0.01370  0.27450  0.47860  1.0000 0.1497073448
H   H283      1.0  0.79590  0.53510  0.52140  1.0000 0.1497073448
H   H284      1.0  0.78510  0.76370  0.23920  1.0000 0.1497073448
H   H285      1.0  0.72550  0.20410  0.73920  1.0000 0.1497073448
H   H286      1.0  0.23630  0.47550  0.02140  1.0000 0.1497073448
H   H287      1.0  0.45410  0.21490  0.97860  1.0000 0.1497073448
H   H288      1.0  0.46490  0.98630  0.26080  1.0000 0.1497073448
H   H289      1.0  0.73960  0.37880  0.92740  1.0000 0.1417669989
H   H290      1.0  0.06220  0.48960  0.86080  1.0000 0.1417669989
H   H291      1.0  0.62880  0.20140  0.13920  1.0000 0.1417669989
H   H292      1.0  0.45140  0.81220  0.07260  1.0000 0.1417669989
H   H293      1.0  0.51040  0.37120  0.57260  1.0000 0.1417669989
H   H294      1.0  0.18780  0.26040  0.63920  1.0000 0.1417669989
H   H295      1.0  0.62120  0.54860  0.36080  1.0000 0.1417669989
H   H296      1.0  0.79860  0.93780  0.42740  1.0000 0.1417669989
H   H297      1.0  0.71200  0.34490  0.89230  1.0000 0.1497073448
H   H298      1.0  0.06970  0.46200  0.86710  1.0000 0.1497073448
H   H299      1.0  0.59490  0.20260  0.13290  1.0000 0.1497073448
H   H300      1.0  0.45260  0.81970  0.10770  1.0000 0.1497073448
H   H301      1.0  0.53800  0.40510  0.60770  1.0000 0.1497073448
H   H302      1.0  0.18030  0.28800  0.63290  1.0000 0.1497073448
H   H303      1.0  0.65510  0.54740  0.36710  1.0000 0.1497073448
H   H304      1.0  0.79740  0.93030  0.39230  1.0000 0.1497073448
H   H305      1.0  0.76950  0.38010  0.91000  1.0000 0.1567201261
H   H306      1.0  0.10950  0.51950  0.88940  1.0000 0.1567201261
H   H307      1.0  0.63010  0.22010  0.11060  1.0000 0.1567201261
H   H308      1.0  0.47010  0.85950  0.09000  1.0000 0.1567201261
H   H309      1.0  0.48050  0.36990  0.59000  1.0000 0.1567201261
H   H310      1.0  0.14050  0.23050  0.61060  1.0000 0.1567201261
H   H311      1.0  0.61990  0.52990  0.38940  1.0000 0.1567201261
H   H312      1.0  0.77990  0.89050  0.41000  1.0000 0.1567201261
H   H313      1.0  0.62050  0.16450  0.93140  1.0000 0.1417669989
H   H314      1.0  0.93910  0.37050  0.95600  1.0000 0.1417669989
H   H315      1.0  0.41450  0.98310  0.04400  1.0000 0.1417669989
H   H316      1.0  0.23310  0.68910  0.06860  1.0000 0.1417669989
H   H317      1.0  0.62950  0.58550  0.56860  1.0000 0.1417669989
H   H318      1.0  0.31090  0.37950  0.54400  1.0000 0.1417669989
H   H319      1.0  0.83550  0.76690  0.45600  1.0000 0.1417669989
H   H320      1.0  0.01690  0.06090  0.43140  1.0000 0.1417669989
H   H321      1.0  0.68130  0.20900  0.95090  1.0000 0.1567201261
H   H322      1.0  0.98040  0.43130  0.97230  1.0000 0.1567201261
H   H323      1.0  0.45900  0.00810  0.02770  1.0000 0.1567201261
H   H324      1.0  0.25810  0.73040  0.04910  1.0000 0.1567201261
H   H325      1.0  0.56870  0.54100  0.54910  1.0000 0.1567201261
H   H326      1.0  0.26960  0.31870  0.52770  1.0000 0.1567201261
H   H327      1.0  0.79100  0.74190  0.47230  1.0000 0.1567201261
H   H328      1.0  0.99190  0.01960  0.45090  1.0000 0.1567201261
H   H329      1.0  0.66450  0.19020  0.91430  1.0000 0.1417669989
H   H330      1.0  0.00020  0.41450  0.97430  1.0000 0.1417669989
H   H331      1.0  0.44020  0.02590  0.02570  1.0000 0.1417669989
H   H332      1.0  0.27590  0.75020  0.08570  1.0000 0.1417669989
H   H333      1.0  0.58550  0.55980  0.58570  1.0000 0.1417669989
H   H334      1.0  0.24980  0.33550  0.52570  1.0000 0.1417669989
H   H335      1.0  0.80980  0.72410  0.47430  1.0000 0.1417669989
H   H336      1.0  0.97410  0.99980  0.41430  1.0000 0.1417669989
H   H337      1.0  0.84000  0.34130  0.95110  1.0000 0.1497073448
H   H338      1.0  0.13890  0.59000  0.99870  1.0000 0.1497073448
H   H339      1.0  0.59130  0.14020  0.00130  1.0000 0.1497073448
H   H340      1.0  0.39020  0.88890  0.04890  1.0000 0.1497073448
H   H341      1.0  0.41000  0.40870  0.54890  1.0000 0.1497073448
H   H342      1.0  0.11110  0.16000  0.50130  1.0000 0.1497073448
H   H343      1.0  0.65870  0.60980  0.49870  1.0000 0.1497073448
H   H344      1.0  0.85980  0.86110  0.45110  1.0000 0.1497073448
H   H345      1.0  0.78120  0.27740  0.94380  1.0000 0.1497073448
H   H346      1.0  0.08740  0.53120  0.00380  1.0000 0.1497073448
H   H347      1.0  0.52740  0.08360  0.99620  1.0000 0.1497073448
H   H348      1.0  0.33360  0.83740  0.05620  1.0000 0.1497073448
H   H349      1.0  0.46880  0.47260  0.55620  1.0000 0.1497073448
H   H350      1.0  0.16260  0.21880  0.49620  1.0000 0.1497073448
H   H351      1.0  0.72260  0.66640  0.50380  1.0000 0.1497073448
H   H352      1.0  0.91640  0.91260  0.44380  1.0000 0.1497073448
H   H353      1.0  0.79150  0.31900  0.95910  1.0000 0.1567201261
H   H354      1.0  0.08240  0.54150  0.97250  1.0000 0.1567201261
H   H355      1.0  0.56900  0.10990  0.02750  1.0000 0.1567201261
H   H356      1.0  0.35990  0.83240  0.04090  1.0000 0.1567201261
H   H357      1.0  0.45850  0.43100  0.54090  1.0000 0.1567201261
H   H358      1.0  0.16760  0.20850  0.52750  1.0000 0.1567201261
H   H359      1.0  0.68100  0.64010  0.47250  1.0000 0.1567201261
H   H360      1.0  0.89010  0.91760  0.45910  1.0000 0.1567201261
H   H361      1.0  0.71130  0.27620  0.82670  1.0000 0.1497073448
H   H362      1.0  0.13460  0.46130  0.93510  1.0000 0.1497073448
H   H363      1.0  0.52620  0.19950  0.06490  1.0000 0.1497073448
H   H364      1.0  0.44950  0.88460  0.17330  1.0000 0.1497073448
H   H365      1.0  0.53870  0.47380  0.67330  1.0000 0.1497073448
H   H366      1.0  0.11540  0.28870  0.56490  1.0000 0.1497073448
H   H367      1.0  0.72380  0.55050  0.43510  1.0000 0.1497073448
H   H368      1.0  0.80050  0.86540  0.32670  1.0000 0.1497073448
H   H369      1.0  0.73910  0.32930  0.84520  1.0000 0.1567201261
H   H370      1.0  0.14390  0.48910  0.90980  1.0000 0.1567201261
H   H371      1.0  0.57930  0.23410  0.09020  1.0000 0.1567201261
H   H372      1.0  0.48410  0.89390  0.15480  1.0000 0.1567201261
H   H373      1.0  0.51090  0.42070  0.65480  1.0000 0.1567201261
H   H374      1.0  0.10610  0.26090  0.59020  1.0000 0.1567201261
H   H375      1.0  0.67070  0.51590  0.40980  1.0000 0.1567201261
H   H376      1.0  0.76590  0.85610  0.34520  1.0000 0.1567201261
H   H377      1.0  0.68440  0.27170  0.85030  1.0000 0.1497073448
H   H378      1.0  0.08410  0.43440  0.91270  1.0000 0.1497073448
H   H379      1.0  0.52170  0.17140  0.08730  1.0000 0.1497073448
H   H380      1.0  0.42140  0.83410  0.14970  1.0000 0.1497073448
H   H381      1.0  0.56560  0.47830  0.64970  1.0000 0.1497073448
H   H382      1.0  0.16590  0.31560  0.58730  1.0000 0.1497073448
H   H383      1.0  0.72830  0.57860  0.41270  1.0000 0.1497073448
H   H384      1.0  0.82860  0.91590  0.35030  1.0000 0.1497073448
H   H385      1.0  0.59560  0.32190  0.05590  1.0000 0.1417669989
H   H386      1.0  0.78970  0.34560  0.77370  1.0000 0.1417669989
H   H387      1.0  0.57190  0.01600  0.22630  1.0000 0.1417669989
H   H388      1.0  0.26600  0.53970  0.94410  1.0000 0.1417669989
H   H389      1.0  0.65440  0.42810  0.44410  1.0000 0.1417669989
H   H390      1.0  0.46030  0.40440  0.72630  1.0000 0.1417669989
H   H391      1.0  0.67810  0.73400  0.27370  1.0000 0.1417669989
H   H392      1.0  0.98400  0.21030  0.55590  1.0000 0.1417669989
H   H393      1.0  0.59010  0.35050  0.04700  1.0000 0.1417669989
H   H394      1.0  0.79310  0.34010  0.73960  1.0000 0.1417669989
H   H395      1.0  0.60050  0.05350  0.26040  1.0000 0.1417669989
H   H396      1.0  0.30350  0.54310  0.95300  1.0000 0.1417669989
H   H397      1.0  0.65990  0.39950  0.45300  1.0000 0.1417669989
H   H398      1.0  0.45690  0.40990  0.76040  1.0000 0.1417669989
H   H399      1.0  0.64950  0.69650  0.23960  1.0000 0.1417669989
H   H400      1.0  0.94650  0.20690  0.54700  1.0000 0.1417669989
H   H401      1.0  0.64520  0.38590  0.06970  1.0000 0.1497073448
H   H402      1.0  0.82550  0.39520  0.75930  1.0000 0.1497073448
H   H403      1.0  0.63590  0.06620  0.24070  1.0000 0.1497073448
H   H404      1.0  0.31620  0.57550  0.93030  1.0000 0.1497073448
H   H405      1.0  0.60480  0.36410  0.43030  1.0000 0.1497073448
H   H406      1.0  0.42450  0.35480  0.74070  1.0000 0.1497073448
H   H407      1.0  0.61410  0.68380  0.25930  1.0000 0.1497073448
H   H408      1.0  0.93380  0.17450  0.56970  1.0000 0.1497073448
H   H409      1.0  0.70350  0.40530  0.95140  1.0000 0.1417669989
H   H410      1.0  0.00210  0.45350  0.79820  1.0000 0.1417669989
H   H411      1.0  0.65530  0.20390  0.20180  1.0000 0.1417669989
H   H412      1.0  0.45390  0.75210  0.04860  1.0000 0.1417669989
H   H413      1.0  0.54650  0.34470  0.54860  1.0000 0.1417669989
H   H414      1.0  0.24790  0.29650  0.70180  1.0000 0.1417669989
H   H415      1.0  0.59470  0.54610  0.29820  1.0000 0.1417669989
H   H416      1.0  0.79610  0.99790  0.45140  1.0000 0.1417669989
H   H417      1.0  0.74870  0.46080  0.97810  1.0000 0.1567201261
H   H418      1.0  0.02060  0.49870  0.78790  1.0000 0.1567201261
H   H419      1.0  0.71080  0.23270  0.21210  1.0000 0.1567201261
H   H420      1.0  0.48270  0.77060  0.02190  1.0000 0.1567201261
H   H421      1.0  0.50130  0.28920  0.52190  1.0000 0.1567201261
H   H422      1.0  0.22940  0.25130  0.71210  1.0000 0.1567201261
H   H423      1.0  0.53920  0.51730  0.28790  1.0000 0.1567201261
H   H424      1.0  0.76730  0.97940  0.47810  1.0000 0.1567201261
H   H425      1.0  0.69850  0.43590  0.95760  1.0000 0.1497073448
H   H426      1.0  0.99090  0.44850  0.76260  1.0000 0.1497073448
H   H427      1.0  0.68590  0.22830  0.23740  1.0000 0.1497073448
H   H428      1.0  0.47830  0.74090  0.04240  1.0000 0.1497073448
H   H429      1.0  0.55150  0.31410  0.54240  1.0000 0.1497073448
H   H430      1.0  0.25910  0.30150  0.73740  1.0000 0.1497073448
H   H431      1.0  0.56410  0.52170  0.26260  1.0000 0.1497073448
H   H432      1.0  0.77170  0.00910  0.45760  1.0000 0.1497073448
H   H433      1.0  0.13500  0.59480  0.84500  1.0000 0.1497073448
H   H434      1.0  0.54000  0.88500  0.04020  1.0000 0.1497073448
H   H435      1.0  0.84480  0.49980  0.95980  1.0000 0.1497073448
H   H436      1.0  0.74980  0.29000  0.15500  1.0000 0.1497073448
H   H437      1.0  0.11500  0.15520  0.65500  1.0000 0.1497073448
H   H438      1.0  0.71000  0.86500  0.45980  1.0000 0.1497073448
H   H439      1.0  0.40520  0.25020  0.54020  1.0000 0.1497073448
H   H440      1.0  0.50020  0.46000  0.34500  1.0000 0.1497073448
H   H441      1.0  0.13980  0.62460  0.82440  1.0000 0.1497073448
H   H442      1.0  0.56540  0.88980  0.01520  1.0000 0.1497073448
H   H443      1.0  0.87460  0.55020  0.98480  1.0000 0.1497073448
H   H444      1.0  0.80020  0.31540  0.17560  1.0000 0.1497073448
H   H445      1.0  0.11020  0.12540  0.67560  1.0000 0.1497073448
H   H446      1.0  0.68460  0.86020  0.48480  1.0000 0.1497073448
H   H447      1.0  0.37540  0.19980  0.51520  1.0000 0.1497073448
H   H448      1.0  0.44980  0.43460  0.32440  1.0000 0.1497073448
H   H449      1.0  0.10330  0.59850  0.84760  1.0000 0.1497073448
H   H450      1.0  0.50570  0.85330  0.00480  1.0000 0.1497073448
H   H451      1.0  0.84850  0.50090  0.99520  1.0000 0.1497073448
H   H452      1.0  0.75090  0.25570  0.15240  1.0000 0.1497073448
H   H453      1.0  0.14670  0.15150  0.65240  1.0000 0.1497073448
H   H454      1.0  0.74430  0.89670  0.49520  1.0000 0.1497073448
H   H455      1.0  0.40150  0.24910  0.50480  1.0000 0.1497073448
H   H456      1.0  0.49910  0.49430  0.34760  1.0000 0.1497073448
H   H457      1.0  0.30930  0.82630  0.92800  1.0000 0.1497073448
H   H458      1.0  0.63130  0.05930  0.98300  1.0000 0.1497073448
H   H459      1.0  0.07630  0.64830  0.01700  1.0000 0.1497073448
H   H460      1.0  0.89830  0.38130  0.07200  1.0000 0.1497073448
H   H461      1.0  0.94070  0.92370  0.57200  1.0000 0.1497073448
H   H462      1.0  0.61870  0.69070  0.51700  1.0000 0.1497073448
H   H463      1.0  0.17370  0.10170  0.48300  1.0000 0.1497073448
H   H464      1.0  0.35170  0.36870  0.42800  1.0000 0.1497073448
H   H465      1.0  0.28090  0.79010  0.95140  1.0000 0.1497073448
H   H466      1.0  0.57950  0.03090  0.99080  1.0000 0.1497073448
H   H467      1.0  0.04010  0.58870  0.00920  1.0000 0.1497073448
H   H468      1.0  0.83870  0.32950  0.04860  1.0000 0.1497073448
H   H469      1.0  0.96910  0.95990  0.54860  1.0000 0.1497073448
H   H470      1.0  0.67050  0.71910  0.50920  1.0000 0.1497073448
H   H471      1.0  0.20990  0.16130  0.49080  1.0000 0.1497073448
H   H472      1.0  0.41130  0.42050  0.45140  1.0000 0.1497073448
H   H473      1.0  0.25320  0.79300  0.93120  1.0000 0.1497073448
H   H474      1.0  0.57200  0.00320  0.96020  1.0000 0.1497073448
H   H475      1.0  0.04300  0.61180  0.03980  1.0000 0.1497073448
H   H476      1.0  0.86180  0.32200  0.06880  1.0000 0.1497073448
H   H477      1.0  0.99680  0.95700  0.56880  1.0000 0.1497073448
H   H478      1.0  0.67800  0.74680  0.53980  1.0000 0.1497073448
H   H479      1.0  0.20700  0.13820  0.46020  1.0000 0.1497073448
H   H480      1.0  0.38820  0.42800  0.43120  1.0000 0.1497073448
H   H481      1.0  0.14960  0.69100  0.96660  1.0000 0.1417669989
H   H482      1.0  0.43300  0.89960  0.95860  1.0000 0.1417669989
H   H483      1.0  0.94100  0.47440  0.04140  1.0000 0.1417669989
H   H484      1.0  0.72440  0.18300  0.03340  1.0000 0.1417669989
H   H485      1.0  0.10040  0.05900  0.53340  1.0000 0.1417669989
H   H486      1.0  0.81700  0.85040  0.54140  1.0000 0.1417669989
H   H487      1.0  0.30900  0.27560  0.45860  1.0000 0.1417669989
H   H488      1.0  0.52560  0.56700  0.46660  1.0000 0.1417669989
H   H489      1.0  0.18760  0.70160  0.95200  1.0000 0.1497073448
H   H490      1.0  0.48560  0.93760  0.98600  1.0000 0.1497073448
H   H491      1.0  0.95160  0.49960  0.01400  1.0000 0.1497073448
H   H492      1.0  0.74960  0.23560  0.04800  1.0000 0.1497073448
H   H493      1.0  0.06240  0.04840  0.54800  1.0000 0.1497073448
H   H494      1.0  0.76440  0.81240  0.51400  1.0000 0.1497073448
H   H495      1.0  0.29840  0.25040  0.48600  1.0000 0.1497073448
H   H496      1.0  0.50040  0.51440  0.45200  1.0000 0.1497073448
H   H497      1.0  0.12720  0.64090  0.94970  1.0000 0.1567201261
H   H498      1.0  0.42750  0.87720  0.98630  1.0000 0.1567201261
H   H499      1.0  0.89090  0.44120  0.01370  1.0000 0.1567201261
H   H500      1.0  0.69120  0.17750  0.05030  1.0000 0.1567201261
H   H501      1.0  0.12280  0.10910  0.55030  1.0000 0.1567201261
H   H502      1.0  0.82250  0.87280  0.51370  1.0000 0.1567201261
H   H503      1.0  0.35910  0.30880  0.48630  1.0000 0.1567201261
H   H504      1.0  0.55880  0.57250  0.44970  1.0000 0.1567201261
H   H505      1.0  0.09780  0.68440  0.83640  1.0000 0.1417669989
H   H506      1.0  0.51140  0.84780  0.91340  1.0000 0.1417669989
H   H507      1.0  0.93440  0.59800  0.08660  1.0000 0.1417669989
H   H508      1.0  0.84800  0.26140  0.16360  1.0000 0.1417669989
H   H509      1.0  0.15220  0.06560  0.66360  1.0000 0.1417669989
H   H510      1.0  0.73860  0.90220  0.58660  1.0000 0.1417669989
H   H511      1.0  0.31560  0.15200  0.41340  1.0000 0.1417669989
H   H512      1.0  0.40200  0.48860  0.33640  1.0000 0.1417669989
H   H513      1.0  0.08370  0.63850  0.82680  1.0000 0.1567201261
H   H514      1.0  0.50690  0.83370  0.94520  1.0000 0.1567201261
H   H515      1.0  0.88850  0.56170  0.05480  1.0000 0.1567201261
H   H516      1.0  0.81170  0.25690  0.17320  1.0000 0.1567201261
H   H517      1.0  0.16630  0.11150  0.67320  1.0000 0.1567201261
H   H518      1.0  0.74310  0.91630  0.55480  1.0000 0.1567201261
H   H519      1.0  0.36150  0.18830  0.44520  1.0000 0.1567201261
H   H520      1.0  0.43830  0.49310  0.32680  1.0000 0.1567201261
H   H521      1.0  0.14540  0.70090  0.83790  1.0000 0.1417669989
H   H522      1.0  0.55750  0.89540  0.94450  1.0000 0.1417669989
H   H523      1.0  0.95090  0.61300  0.05550  1.0000 0.1417669989
H   H524      1.0  0.86300  0.30750  0.16210  1.0000 0.1417669989
H   H525      1.0  0.10460  0.04910  0.66210  1.0000 0.1417669989
H   H526      1.0  0.69250  0.85460  0.55550  1.0000 0.1417669989
H   H527      1.0  0.29910  0.13700  0.44450  1.0000 0.1417669989
H   H528      1.0  0.38700  0.44250  0.33790  1.0000 0.1417669989
H   H529      1.0  0.39320  0.69400  0.86740  1.0000 0.1417669989
H   H530      1.0  0.77580  0.14320  0.19920  1.0000 0.1417669989
H   H531      1.0  0.94400  0.57660  0.80080  1.0000 0.1417669989
H   H532      1.0  0.82660  0.52580  0.13260  1.0000 0.1417669989
H   H533      1.0  0.85680  0.05600  0.63260  1.0000 0.1417669989
H   H534      1.0  0.47420  0.60680  0.30080  1.0000 0.1417669989
H   H535      1.0  0.30600  0.17340  0.69920  1.0000 0.1417669989
H   H536      1.0  0.42340  0.22420  0.36740  1.0000 0.1417669989
H   H537      1.0  0.39240  0.69370  0.83230  1.0000 0.1497073448
H   H538      1.0  0.81010  0.14240  0.19870  1.0000 0.1497073448
H   H539      1.0  0.94370  0.61140  0.80130  1.0000 0.1497073448
H   H540      1.0  0.86140  0.56010  0.16770  1.0000 0.1497073448
H   H541      1.0  0.85760  0.05630  0.66770  1.0000 0.1497073448
H   H542      1.0  0.43990  0.60760  0.30130  1.0000 0.1497073448
H   H543      1.0  0.30630  0.13860  0.69870  1.0000 0.1497073448
H   H544      1.0  0.38860  0.18990  0.33230  1.0000 0.1497073448
H   H545      1.0  0.36000  0.64160  0.84260  1.0000 0.1497073448
H   H546      1.0  0.76740  0.11000  0.21840  1.0000 0.1497073448
H   H547      1.0  0.89160  0.54900  0.78160  1.0000 0.1497073448
H   H548      1.0  0.79900  0.51740  0.15740  1.0000 0.1497073448
H   H549      1.0  0.89000  0.10840  0.65740  1.0000 0.1497073448
H   H550      1.0  0.48260  0.64000  0.28160  1.0000 0.1497073448
H   H551      1.0  0.35840  0.20100  0.71840  1.0000 0.1497073448
H   H552      1.0  0.45100  0.23260  0.34260  1.0000 0.1497073448
H   H553      1.0  0.17920  0.57660  0.80660  1.0000 0.1497073448
H   H554      1.0  0.62260  0.92920  0.10260  1.0000 0.1497073448
H   H555      1.0  0.82660  0.52000  0.89740  1.0000 0.1497073448
H   H556      1.0  0.77000  0.37260  0.19340  1.0000 0.1497073448
H   H557      1.0  0.07080  0.17340  0.69340  1.0000 0.1497073448
H   H558      1.0  0.62740  0.82080  0.39740  1.0000 0.1497073448
H   H559      1.0  0.42340  0.23000  0.60260  1.0000 0.1497073448
H   H560      1.0  0.48000  0.37740  0.30660  1.0000 0.1417669989
H   H561      1.0  0.16360  0.54220  0.82880  1.0000 0.1567201261
H   H562      1.0  0.58480  0.91360  0.12140  1.0000 0.1567201261
H   H563      1.0  0.79220  0.46340  0.87860  1.0000 0.1567201261
H   H564      1.0  0.71340  0.33480  0.17120  1.0000 0.1567201261
H   H565      1.0  0.08640  0.20780  0.67120  1.0000 0.1567201261
H   H566      1.0  0.66520  0.83640  0.37860  1.0000 0.1567201261
H   H567      1.0  0.45780  0.28660  0.62140  1.0000 0.1567201261
H   H568      1.0  0.53660  0.41520  0.32880  1.0000 0.1567201261
H   H569      1.0  0.16660  0.53210  0.79550  1.0000 0.1417669989
H   H570      1.0  0.62110  0.91660  0.13450  1.0000 0.1417669989
H   H571      1.0  0.78210  0.48660  0.86550  1.0000 0.1417669989
H   H572      1.0  0.73660  0.37110  0.20450  1.0000 0.1417669989
H   H573      1.0  0.08340  0.21790  0.70450  1.0000 0.1417669989
H   H574      1.0  0.62890  0.83340  0.36550  1.0000 0.1417669989
H   H575      1.0  0.46790  0.26340  0.63450  1.0000 0.1417669989
H   H576      1.0  0.51340  0.37890  0.29550  1.0000 0.1417669989
H   H577      1.0  0.35350  0.21300  0.28910  1.0000 0.1417669989
H   H578      1.0  0.31440  0.10350  0.64050  1.0000 0.1417669989
H   H579      1.0  0.46300  0.67390  0.35950  1.0000 0.1417669989
H   H580      1.0  0.92390  0.06440  0.71090  1.0000 0.1417669989
H   H581      1.0  0.89650  0.53700  0.21090  1.0000 0.1417669989
H   H582      1.0  0.93560  0.64650  0.85950  1.0000 0.1417669989
H   H583      1.0  0.78700  0.07610  0.14050  1.0000 0.1417669989
H   H584      1.0  0.32610  0.68560  0.78910  1.0000 0.1417669989
H   H585      1.0  0.30870  0.15030  0.27560  1.0000 0.1497073448
H   H586      1.0  0.28310  0.05870  0.65840  1.0000 0.1497073448
H   H587      1.0  0.40030  0.62470  0.34160  1.0000 0.1497073448
H   H588      1.0  0.87470  0.03310  0.72440  1.0000 0.1497073448
H   H589      1.0  0.94130  0.59970  0.22440  1.0000 0.1497073448
H   H590      1.0  0.96690  0.69130  0.84160  1.0000 0.1497073448
H   H591      1.0  0.84970  0.12530  0.15840  1.0000 0.1497073448
H   H592      1.0  0.37530  0.71690  0.77560  1.0000 0.1497073448
H   H593      1.0  0.29860  0.17390  0.26370  1.0000 0.1497073448
H   H594      1.0  0.28490  0.04860  0.62470  1.0000 0.1497073448
H   H595      1.0  0.42390  0.66020  0.37530  1.0000 0.1497073448
H   H596      1.0  0.91020  0.03490  0.73630  1.0000 0.1497073448
H   H597      1.0  0.95140  0.57610  0.23630  1.0000 0.1497073448
H   H598      1.0  0.96510  0.70140  0.87530  1.0000 0.1497073448
H   H599      1.0  0.82610  0.08980  0.12470  1.0000 0.1497073448
H   H600      1.0  0.33980  0.71510  0.76370  1.0000 0.1497073448
H   H601      1.0  0.19040  0.09880  0.36520  1.0000 0.1497073448
H   H602      1.0  0.07520  0.94040  0.59160  1.0000 0.1497073448
H   H603      1.0  0.34880  0.48360  0.40840  1.0000 0.1497073448
H   H604      1.0  0.73360  0.82520  0.63480  1.0000 0.1497073448
H   H605      1.0  0.05960  0.65120  0.13480  1.0000 0.1497073448
H   H606      1.0  0.17480  0.80960  0.90840  1.0000 0.1497073448
H   H607      1.0  0.90120  0.26640  0.09160  1.0000 0.1497073448
H   H608      1.0  0.51640  0.92480  0.86520  1.0000 0.1497073448
H   H609      1.0  0.17870  0.05580  0.35030  1.0000 0.1497073448
H   H610      1.0  0.07840  0.92870  0.62290  1.0000 0.1497073448
H   H611      1.0  0.30580  0.45550  0.37710  1.0000 0.1497073448
H   H612      1.0  0.70550  0.82840  0.64970  1.0000 0.1497073448
H   H613      1.0  0.07130  0.69420  0.14970  1.0000 0.1497073448
H   H614      1.0  0.17160  0.82130  0.87710  1.0000 0.1497073448
H   H615      1.0  0.94420  0.29450  0.12290  1.0000 0.1497073448
H   H616      1.0  0.54450  0.92160  0.85030  1.0000 0.1497073448
H   H617      1.0  0.22890  0.10510  0.38000  1.0000 0.1497073448
H   H618      1.0  0.09890  0.97890  0.62380  1.0000 0.1497073448
H   H619      1.0  0.35510  0.47510  0.37620  1.0000 0.1497073448
H   H620      1.0  0.72510  0.84890  0.62000  1.0000 0.1497073448
H   H621      1.0  0.02110  0.64490  0.12000  1.0000 0.1497073448
H   H622      1.0  0.15110  0.77110  0.87620  1.0000 0.1497073448
H   H623      1.0  0.89490  0.27490  0.12380  1.0000 0.1497073448
H   H624      1.0  0.52490  0.90110  0.88000  1.0000 0.1497073448
H   H625      1.0  0.22230  0.18810  0.41760  1.0000 0.1417669989
H   H626      1.0  0.05470  0.97230  0.53420  1.0000 0.1417669989
H   H627      1.0  0.43810  0.52050  0.46580  1.0000 0.1417669989
H   H628      1.0  0.77050  0.80470  0.58240  1.0000 0.1417669989
H   H629      1.0  0.02770  0.56190  0.08240  1.0000 0.1417669989
H   H630      1.0  0.19530  0.77770  0.96580  1.0000 0.1417669989
H   H631      1.0  0.81190  0.22950  0.03420  1.0000 0.1417669989
H   H632      1.0  0.47950  0.94530  0.91760  1.0000 0.1417669989
H   H633      1.0  0.19030  0.18660  0.43190  1.0000 0.1497073448
H   H634      1.0  0.00840  0.94030  0.50370  1.0000 0.1497073448
H   H635      1.0  0.43660  0.50470  0.49630  1.0000 0.1497073448
H   H636      1.0  0.75470  0.75840  0.56810  1.0000 0.1497073448
H   H637      1.0  0.05970  0.56340  0.06810  1.0000 0.1497073448
H   H638      1.0  0.24160  0.80970  0.99630  1.0000 0.1497073448
H   H639      1.0  0.81340  0.24530  0.00370  1.0000 0.1497073448
H   H640      1.0  0.49530  0.99160  0.93190  1.0000 0.1497073448
H   H641      1.0  0.16260  0.14710  0.39870  1.0000 0.1497073448
H   H642      1.0  0.01390  0.91260  0.51550  1.0000 0.1497073448
H   H643      1.0  0.39710  0.49840  0.48450  1.0000 0.1497073448
H   H644      1.0  0.74840  0.76390  0.60130  1.0000 0.1497073448
H   H645      1.0  0.08740  0.60290  0.10130  1.0000 0.1497073448
H   H646      1.0  0.23610  0.83740  0.98450  1.0000 0.1497073448
H   H647      1.0  0.85290  0.25160  0.01550  1.0000 0.1497073448
H   H648      1.0  0.50160  0.98610  0.89870  1.0000 0.1497073448
H   H649      1.0  0.26130  0.33050  0.35620  1.0000 0.1417669989
H   H650      1.0  0.15510  0.01130  0.43080  1.0000 0.1417669989
H   H651      1.0  0.58050  0.72430  0.56920  1.0000 0.1417669989
H   H652      1.0  0.97430  0.90510  0.64380  1.0000 0.1417669989
H   H653      1.0  0.98870  0.41950  0.14380  1.0000 0.1417669989
H   H654      1.0  0.09490  0.73870  0.06920  1.0000 0.1417669989
H   H655      1.0  0.66950  0.02570  0.93080  1.0000 0.1417669989
H   H656      1.0  0.27570  0.84490  0.85620  1.0000 0.1417669989
H   H657      1.0  0.22280  0.31050  0.37650  1.0000 0.1567201261
H   H658      1.0  0.09630  0.97280  0.41230  1.0000 0.1567201261
H   H659      1.0  0.56050  0.68400  0.58770  1.0000 0.1497073448
H   H660      1.0  0.93400  0.84630  0.62350  1.0000 0.1567201261
H   H661      1.0  0.02720  0.43950  0.12350  1.0000 0.1497073448
H   H662      1.0  0.15370  0.77720  0.08770  1.0000 0.1567201261
H   H663      1.0  0.68950  0.06600  0.91230  1.0000 0.1497073448
H   H664      1.0  0.31600  0.90370  0.87650  1.0000 0.1497073448
H   H665      1.0  0.28650  0.36030  0.39200  1.0000 0.1497073448
H   H666      1.0  0.14450  0.03650  0.42620  1.0000 0.1497073448
H   H667      1.0  0.61030  0.71830  0.57380  1.0000 0.1497073448
H   H668      1.0  0.96830  0.89450  0.60800  1.0000 0.1497073448
H   H669      1.0  0.96350  0.38970  0.10800  1.0000 0.1497073448
H   H670      1.0  0.10550  0.71350  0.07380  1.0000 0.1497073448
H   H671      1.0  0.63970  0.03170  0.92620  1.0000 0.1497073448
H   H672      1.0  0.28170  0.85550  0.89200  1.0000 0.1497073448
H   H673      1.0  0.31700  0.36770  0.29410  1.0000 0.1417669989
H   H674      1.0  0.27290  0.06700  0.44930  1.0000 0.1417669989
H   H675      1.0  0.61770  0.82360  0.55070  1.0000 0.1417669989
H   H676      1.0  0.07360  0.02290  0.70590  1.0000 0.1417669989
H   H677      1.0  0.93300  0.38230  0.20590  1.0000 0.1417669989
H   H678      1.0  0.97710  0.68300  0.05070  1.0000 0.1417669989
H   H679      1.0  0.63230  0.92640  0.94930  1.0000 0.1417669989
H   H680      1.0  0.17640  0.72710  0.79410  1.0000 0.1417669989
H   H681      1.0  0.34780  0.39710  0.26870  1.0000 0.1497073448
H   H682      1.0  0.32910  0.09780  0.45070  1.0000 0.1497073448
H   H683      1.0  0.64710  0.87840  0.54930  1.0000 0.1497073448
H   H684      1.0  0.12840  0.07910  0.73130  1.0000 0.1497073448
H   H685      1.0  0.90220  0.35290  0.23130  1.0000 0.1497073448
H   H686      1.0  0.92090  0.65220  0.04930  1.0000 0.1497073448
H   H687      1.0  0.60290  0.87160  0.95070  1.0000 0.1497073448
H   H688      1.0  0.12160  0.67090  0.76870  1.0000 0.1497073448
H   H689      1.0  0.28520  0.33520  0.25860  1.0000 0.1497073448
H   H690      1.0  0.27660  0.03520  0.45000  1.0000 0.1497073448
H   H691      1.0  0.58520  0.82660  0.55000  1.0000 0.1497073448
H   H692      1.0  0.07660  0.02660  0.74140  1.0000 0.1497073448
H   H693      1.0  0.96480  0.41480  0.24140  1.0000 0.1497073448
H   H694      1.0  0.97340  0.71480  0.05000  1.0000 0.1497073448
H   H695      1.0  0.66480  0.92340  0.95000  1.0000 0.1497073448
H   H696      1.0  0.17340  0.72340  0.75860  1.0000 0.1497073448
H   H697      1.0  0.36910  0.28240  0.26250  1.0000 0.1417669989
H   H698      1.0  0.35660  0.11910  0.58670  1.0000 0.1417669989
H   H699      1.0  0.53240  0.76990  0.41330  1.0000 0.1417669989
H   H700      1.0  0.01990  0.10660  0.73750  1.0000 0.1417669989
H   H701      1.0  0.88090  0.46760  0.23750  1.0000 0.1417669989
H   H702      1.0  0.89340  0.63090  0.91330  1.0000 0.1417669989
H   H703      1.0  0.71760  0.98010  0.08670  1.0000 0.1417669989
H   H704      1.0  0.23010  0.64340  0.76250  1.0000 0.1417669989
H   H705      1.0  0.35440  0.28270  0.22950  1.0000 0.1567201261
H   H706      1.0  0.37490  0.10440  0.57170  1.0000 0.1567201261
H   H707      1.0  0.53270  0.80320  0.42830  1.0000 0.1567201261
H   H708      1.0  0.05320  0.12490  0.77050  1.0000 0.1567201261
H   H709      1.0  0.89560  0.46730  0.27050  1.0000 0.1567201261
H   H710      1.0  0.87510  0.64560  0.92830  1.0000 0.1567201261
H   H711      1.0  0.71730  0.94680  0.07170  1.0000 0.1567201261
H   H712      1.0  0.19680  0.62510  0.72950  1.0000 0.1567201261
H   H713      1.0  0.41470  0.33670  0.25200  1.0000 0.1497073448
H   H714      1.0  0.41270  0.16470  0.57800  1.0000 0.1497073448
H   H715      1.0  0.58670  0.83470  0.42200  1.0000 0.1497073448
H   H716      1.0  0.08470  0.16270  0.74800  1.0000 0.1497073448
H   H717      1.0  0.83530  0.41330  0.24800  1.0000 0.1497073448
H   H718      1.0  0.83730  0.58530  0.92200  1.0000 0.1497073448
H   H719      1.0  0.66330  0.91530  0.07800  1.0000 0.1497073448
H   H720      1.0  0.16530  0.58730  0.75200  1.0000 0.1497073448
H   H721      1.0  0.76940  0.80990  0.85630  1.0000 0.1417669989
H   H722      1.0  0.16310  0.51940  0.45950  1.0000 0.1417669989
H   H723      1.0  0.05990  0.70360  0.54050  1.0000 0.1417669989
H   H724      1.0  0.95360  0.91310  0.14370  1.0000 0.1417669989
H   H725      1.0  0.48060  0.94010  0.64370  1.0000 0.1417669989
H   H726      1.0  0.08690  0.23060  0.04050  1.0000 0.1417669989
H   H727      1.0  0.19010  0.04640  0.95950  1.0000 0.1417669989
H   H728      1.0  0.29640  0.83690  0.35630  1.0000 0.1417669989
H   H729      1.0  0.80920  0.87080  0.86160  1.0000 0.1417669989
H   H730      1.0  0.19760  0.55920  0.43840  1.0000 0.1417669989
H   H731      1.0  0.12080  0.75920  0.56160  1.0000 0.1417669989
H   H732      1.0  0.00920  0.94760  0.13840  1.0000 0.1417669989
H   H733      1.0  0.44080  0.87920  0.63840  1.0000 0.1417669989
H   H734      1.0  0.05240  0.19080  0.06160  1.0000 0.1417669989
H   H735      1.0  0.12920  0.99080  0.93840  1.0000 0.1417669989
H   H736      1.0  0.24080  0.80240  0.36160  1.0000 0.1417669989
H   H737      1.0  0.78580  0.83500  0.82800  1.0000 0.1497073448
H   H738      1.0  0.20780  0.53580  0.45080  1.0000 0.1497073448
H   H739      1.0  0.08500  0.75700  0.54920  1.0000 0.1497073448
H   H740      1.0  0.00700  0.95780  0.17200  1.0000 0.1497073448
H   H741      1.0  0.46420  0.91500  0.67200  1.0000 0.1497073448
H   H742      1.0  0.04220  0.21420  0.04920  1.0000 0.1497073448
H   H743      1.0  0.16500  0.99300  0.95080  1.0000 0.1497073448
H   H744      1.0  0.24300  0.79220  0.32800  1.0000 0.1497073448
H   H745      1.0  0.99460  0.94270  0.86930  1.0000 0.1497073448
H   H746      1.0  0.37530  0.74460  0.55190  1.0000 0.1497073448
H   H747      1.0  0.19270  0.82340  0.44810  1.0000 0.1497073448
H   H748      1.0  0.07340  0.12530  0.13070  1.0000 0.1497073448
H   H749      1.0  0.25540  0.80730  0.63070  1.0000 0.1497073448
H   H750      1.0  0.87470  0.00540  0.94810  1.0000 0.1497073448
H   H751      1.0  0.05730  0.92660  0.05190  1.0000 0.1497073448
H   H752      1.0  0.17660  0.62470  0.36930  1.0000 0.1497073448
H   H753      1.0  0.00780  0.98750  0.88170  1.0000 0.1567201261
H   H754      1.0  0.37610  0.75780  0.52030  1.0000 0.1567201261
H   H755      1.0  0.23750  0.85580  0.47970  1.0000 0.1567201261
H   H756      1.0  0.10580  0.12610  0.11830  1.0000 0.1567201261
H   H757      1.0  0.24220  0.76250  0.61830  1.0000 0.1567201261
H   H758      1.0  0.87390  0.99220  0.97970  1.0000 0.1567201261
H   H759      1.0  0.01250  0.89420  0.02030  1.0000 0.1567201261
H   H760      1.0  0.14420  0.62390  0.38170  1.0000 0.1567201261
H   H761      1.0  0.99360  0.95300  0.90320  1.0000 0.1497073448
H   H762      1.0  0.34040  0.74360  0.54060  1.0000 0.1497073448
H   H763      1.0  0.20300  0.79980  0.45940  1.0000 0.1497073448
H   H764      1.0  0.04980  0.09040  0.09680  1.0000 0.1497073448
H   H765      1.0  0.25640  0.79700  0.59680  1.0000 0.1497073448
H   H766      1.0  0.90960  0.00640  0.95940  1.0000 0.1497073448
H   H767      1.0  0.04700  0.95020  0.04060  1.0000 0.1497073448
H   H768      1.0  0.20020  0.65960  0.40320  1.0000 0.1497073448
H   H769      1.0  0.00320  0.87530  0.86010  1.0000 0.1417669989
H   H770      1.0  0.39310  0.75320  0.62790  1.0000 0.1417669989
H   H771      1.0  0.12530  0.76520  0.37210  1.0000 0.1417669989
H   H772      1.0  0.01520  0.14310  0.13990  1.0000 0.1417669989
H   H773      1.0  0.24680  0.87470  0.63990  1.0000 0.1417669989
H   H774      1.0  0.85690  0.99680  0.87210  1.0000 0.1417669989
H   H775      1.0  0.12470  0.98480  0.12790  1.0000 0.1417669989
H   H776      1.0  0.23480  0.60690  0.36010  1.0000 0.1417669989
H   H777      1.0  0.03500  0.87800  0.84400  1.0000 0.1497073448
H   H778      1.0  0.44100  0.78500  0.65700  1.0000 0.1497073448
H   H779      1.0  0.12800  0.78400  0.34300  1.0000 0.1497073448
H   H780      1.0  0.03400  0.19100  0.15600  1.0000 0.1497073448
H   H781      1.0  0.21500  0.87200  0.65600  1.0000 0.1497073448
H   H782      1.0  0.80900  0.96500  0.84300  1.0000 0.1497073448
H   H783      1.0  0.12200  0.96600  0.15700  1.0000 0.1497073448
H   H784      1.0  0.21600  0.55900  0.34400  1.0000 0.1497073448
H   H785      1.0  0.02420  0.90100  0.83200  1.0000 0.1567201261
H   H786      1.0  0.44220  0.77420  0.62320  1.0000 0.1567201261
H   H787      1.0  0.15100  0.81900  0.37680  1.0000 0.1567201261
H   H788      1.0  0.06900  0.19220  0.16800  1.0000 0.1567201261
H   H789      1.0  0.22580  0.84900  0.66800  1.0000 0.1567201261
H   H790      1.0  0.80780  0.97580  0.87680  1.0000 0.1567201261
H   H791      1.0  0.09900  0.93100  0.12320  1.0000 0.1567201261
H   H792      1.0  0.18100  0.55780  0.33200  1.0000 0.1567201261
H   H793      1.0  0.81760  0.66690  0.75210  1.0000 0.1417669989
H   H794      1.0  0.31550  0.56760  0.65070  1.0000 0.1417669989
H   H795      1.0  0.91690  0.66480  0.34930  1.0000 0.1417669989
H   H796      1.0  0.91480  0.06550  0.24790  1.0000 0.1417669989
H   H797      1.0  0.43240  0.08310  0.74790  1.0000 0.1417669989
H   H798      1.0  0.93450  0.18240  0.84930  1.0000 0.1417669989
H   H799      1.0  0.33310  0.08520  0.15070  1.0000 0.1417669989
H   H800      1.0  0.33520  0.68450  0.25210  1.0000 0.1417669989
H   H801      1.0  0.86830  0.70230  0.73880  1.0000 0.1567201261
H   H802      1.0  0.37950  0.61830  0.66600  1.0000 0.1567201261
H   H803      1.0  0.95230  0.71350  0.33400  1.0000 0.1567201261
H   H804      1.0  0.96350  0.12950  0.26120  1.0000 0.1567201261
H   H805      1.0  0.38170  0.04770  0.76120  1.0000 0.1567201261
H   H806      1.0  0.87050  0.13170  0.83400  1.0000 0.1567201261
H   H807      1.0  0.29770  0.03650  0.16600  1.0000 0.1567201261
H   H808      1.0  0.28650  0.62050  0.23880  1.0000 0.1567201261
H   H809      1.0  0.85630  0.67200  0.76310  1.0000 0.1497073448
H   H810      1.0  0.34320  0.60630  0.68430  1.0000 0.1497073448
H   H811      1.0  0.92200  0.65890  0.31570  1.0000 0.1497073448
H   H812      1.0  0.90890  0.09320  0.23690  1.0000 0.1497073448
H   H813      1.0  0.39370  0.07800  0.73690  1.0000 0.1497073448
H   H814      1.0  0.90680  0.14370  0.81570  1.0000 0.1497073448
H   H815      1.0  0.32800  0.09110  0.18430  1.0000 0.1497073448
H   H816      1.0  0.34110  0.65680  0.26310  1.0000 0.1497073448
H   H817      1.0  0.70110  0.59620  0.73510  1.0000 0.1417669989
H   H818      1.0  0.21600  0.45110  0.60490  1.0000 0.1417669989
H   H819      1.0  0.84620  0.61110  0.39510  1.0000 0.1417669989
H   H820      1.0  0.86110  0.96600  0.26490  1.0000 0.1417669989
H   H821      1.0  0.54890  0.15380  0.76490  1.0000 0.1417669989
H   H822      1.0  0.03400  0.29890  0.89510  1.0000 0.1417669989
H   H823      1.0  0.40380  0.13890  0.10490  1.0000 0.1417669989
H   H824      1.0  0.38890  0.78400  0.23510  1.0000 0.1417669989
H   H825      1.0  0.63650  0.54460  0.72670  1.0000 0.1567201261
H   H826      1.0  0.15980  0.38650  0.59190  1.0000 0.1567201261
H   H827      1.0  0.79460  0.56790  0.40810  1.0000 0.1567201261
H   H828      1.0  0.81790  0.90980  0.27330  1.0000 0.1567201261
H   H829      1.0  0.61350  0.20540  0.77330  1.0000 0.1567201261
H   H830      1.0  0.09020  0.36350  0.90810  1.0000 0.1567201261
H   H831      1.0  0.45540  0.18210  0.09190  1.0000 0.1567201261
H   H832      1.0  0.43210  0.84020  0.22670  1.0000 0.1567201261
H   H833      1.0  0.66880  0.58730  0.70710  1.0000 0.1497073448
H   H834      1.0  0.21170  0.41880  0.58150  1.0000 0.1497073448
H   H835      1.0  0.83730  0.63020  0.41850  1.0000 0.1497073448
H   H836      1.0  0.88020  0.96170  0.29290  1.0000 0.1497073448
H   H837      1.0  0.58120  0.16270  0.79290  1.0000 0.1497073448
H   H838      1.0  0.03830  0.33120  0.91850  1.0000 0.1497073448
H   H839      1.0  0.41270  0.11980  0.08150  1.0000 0.1497073448
H   H840      1.0  0.36980  0.78830  0.20710  1.0000 0.1497073448
H   H841      1.0  0.67870  0.70100  0.79610  1.0000 0.1417669989
H   H842      1.0  0.13260  0.42870  0.47770  1.0000 0.1417669989
H   H843      1.0  0.95100  0.65490  0.52230  1.0000 0.1417669989
H   H844      1.0  0.90490  0.88260  0.20390  1.0000 0.1417669989
H   H845      1.0  0.57130  0.04900  0.70390  1.0000 0.1417669989
H   H846      1.0  0.11740  0.32130  0.02230  1.0000 0.1417669989
H   H847      1.0  0.29900  0.09510  0.97770  1.0000 0.1417669989
H   H848      1.0  0.34510  0.86740  0.29610  1.0000 0.1417669989
H   H849      1.0  0.63080  0.66040  0.76480  1.0000 0.1497073448
H   H850      1.0  0.11600  0.38080  0.47040  1.0000 0.1497073448
H   H851      1.0  0.91040  0.64560  0.52960  1.0000 0.1497073448
H   H852      1.0  0.89560  0.86600  0.23520  1.0000 0.1497073448
H   H853      1.0  0.61920  0.08960  0.73520  1.0000 0.1497073448
H   H854      1.0  0.13400  0.36920  0.02960  1.0000 0.1497073448
H   H855      1.0  0.33960  0.10440  0.97040  1.0000 0.1497073448
H   H856      1.0  0.35440  0.88400  0.26480  1.0000 0.1497073448
H   H857      1.0  0.62080  0.63900  0.79420  1.0000 0.1417669989
H   H858      1.0  0.07660  0.37080  0.48180  1.0000 0.1417669989
H   H859      1.0  0.88900  0.59480  0.51820  1.0000 0.1417669989
H   H860      1.0  0.84480  0.82660  0.20580  1.0000 0.1417669989
H   H861      1.0  0.62920  0.11100  0.70580  1.0000 0.1417669989
H   H862      1.0  0.17340  0.37920  0.01820  1.0000 0.1417669989
H   H863      1.0  0.36100  0.15520  0.98180  1.0000 0.1417669989
H   H864      1.0  0.40520  0.92340  0.29420  1.0000 0.1417669989
H   H865      1.0  0.91830  0.99890  0.82320  1.0000 0.1417669989
H   H866      1.0  0.34510  0.66830  0.41940  1.0000 0.1417669989
H   H867      1.0  0.24890  0.92570  0.58060  1.0000 0.1417669989
H   H868      1.0  0.17570  0.09510  0.17680  1.0000 0.1417669989
H   H869      1.0  0.33170  0.75110  0.67680  1.0000 0.1417669989
H   H870      1.0  0.90490  0.08170  0.08060  1.0000 0.1417669989
H   H871      1.0  0.00110  0.82430  0.91940  1.0000 0.1417669989
H   H872      1.0  0.07430  0.65490  0.32320  1.0000 0.1417669989
H   H873      1.0  0.86040  0.94750  0.82930  1.0000 0.1417669989
H   H874      1.0  0.28110  0.61040  0.41290  1.0000 0.1417669989
H   H875      1.0  0.19750  0.86820  0.58710  1.0000 0.1417669989
H   H876      1.0  0.11820  0.03110  0.17070  1.0000 0.1497073448
H   H877      1.0  0.38960  0.80250  0.67070  1.0000 0.1417669989
H   H878      1.0  0.96890  0.13960  0.08710  1.0000 0.1497073448
H   H879      1.0  0.05250  0.88180  0.91290  1.0000 0.1417669989
H   H880      1.0  0.13180  0.71890  0.32930  1.0000 0.1417669989
H   H881      1.0  0.89050  0.94410  0.81960  1.0000 0.1497073448
H   H882      1.0  0.32090  0.64050  0.44640  1.0000 0.1497073448
H   H883      1.0  0.19410  0.87450  0.55360  1.0000 0.1497073448
H   H884      1.0  0.12450  0.07090  0.18040  1.0000 0.1497073448
H   H885      1.0  0.35950  0.80590  0.68040  1.0000 0.1497073448
H   H886      1.0  0.92910  0.10950  0.05360  1.0000 0.1497073448
H   H887      1.0  0.05590  0.87550  0.94640  1.0000 0.1497073448
H   H888      1.0  0.12550  0.67910  0.31960  1.0000 0.1497073448
H   H889      1.0  0.97020  0.00790  0.95630  1.0000 0.1417669989
H   H890      1.0  0.26390  0.72020  0.46230  1.0000 0.1417669989
H   H891      1.0  0.25790  0.80160  0.53770  1.0000 0.1417669989
H   H892      1.0  0.05160  0.01390  0.04370  1.0000 0.1417669989
H   H893      1.0  0.27980  0.74210  0.54370  1.0000 0.1417669989
H   H894      1.0  0.98610  0.02980  0.03770  1.0000 0.1417669989
H   H895      1.0  0.99210  0.94840  0.96230  1.0000 0.1417669989
H   H896      1.0  0.19840  0.73610  0.45630  1.0000 0.1417669989
H   H897      1.0  0.01130  0.02330  0.94200  1.0000 0.1497073448
H   H898      1.0  0.31930  0.76130  0.48800  1.0000 0.1497073448
H   H899      1.0  0.27330  0.83130  0.51200  1.0000 0.1497073448
H   H900      1.0  0.08130  0.06930  0.05800  1.0000 0.1497073448
H   H901      1.0  0.23870  0.72670  0.55800  1.0000 0.1497073448
H   H902      1.0  0.93070  0.98870  0.01200  1.0000 0.1497073448
H   H903      1.0  0.97670  0.91870  0.98800  1.0000 0.1497073448
H   H904      1.0  0.16870  0.68070  0.44200  1.0000 0.1497073448
H   H905      1.0  0.95030  0.96110  0.93600  1.0000 0.1417669989
H   H906      1.0  0.26430  0.70030  0.48920  1.0000 0.1417669989
H   H907      1.0  0.21110  0.77510  0.51080  1.0000 0.1417669989
H   H908      1.0  0.02510  0.01430  0.06400  1.0000 0.1417669989
H   H909      1.0  0.29970  0.78890  0.56400  1.0000 0.1417669989
H   H910      1.0  0.98570  0.04970  0.01080  1.0000 0.1417669989
H   H911      1.0  0.03890  0.97490  0.98920  1.0000 0.1417669989
H   H912      1.0  0.22490  0.73570  0.43600  1.0000 0.1417669989
H   H913      1.0  0.08780  0.13090  0.99790  1.0000 0.1497073448
H   H914      1.0  0.33990  0.83780  0.45690  1.0000 0.1497073448
H   H915      1.0  0.38090  0.88300  0.54310  1.0000 0.1497073448
H   H916      1.0  0.13300  0.08990  0.00210  1.0000 0.1417669989
H   H917      1.0  0.16220  0.61910  0.50210  1.0000 0.1497073448
H   H918      1.0  0.91010  0.91220  0.04310  1.0000 0.1497073448
H   H919      1.0  0.86910  0.86700  0.95690  1.0000 0.1497073448
H   H920      1.0  0.11700  0.66010  0.49790  1.0000 0.1497073448
H   H921      1.0  0.08230  0.14570  0.02780  1.0000 0.1497073448
H   H922      1.0  0.30450  0.83230  0.43660  1.0000 0.1497073448
H   H923      1.0  0.39570  0.86790  0.56340  1.0000 0.1497073448
H   H924      1.0  0.11790  0.05450  0.97220  1.0000 0.1497073448
H   H925      1.0  0.16770  0.60430  0.47220  1.0000 0.1497073448
H   H926      1.0  0.94550  0.91770  0.06340  1.0000 0.1497073448
H   H927      1.0  0.85430  0.88210  0.93660  1.0000 0.1497073448
H   H928      1.0  0.13210  0.69550  0.52780  1.0000 0.1497073448
H   H929      1.0  0.13870  0.17730  0.02780  1.0000 0.1567201261
H   H930      1.0  0.36090  0.88870  0.46140  1.0000 0.1567201261
H   H931      1.0  0.42730  0.89950  0.53860  1.0000 0.1567201261
H   H932      1.0  0.14950  0.11090  0.97220  1.0000 0.1567201261
H   H933      1.0  0.11130  0.57270  0.47220  1.0000 0.1567201261
H   H934      1.0  0.88910  0.86130  0.03860  1.0000 0.1567201261
H   H935      1.0  0.82270  0.85050  0.96140  1.0000 0.1567201261
H   H936      1.0  0.10050  0.63910  0.52780  1.0000 0.1567201261
H   H937      1.0  0.18150  0.33050  0.98840  1.0000 0.1417669989
H   H938      1.0  0.44310  0.93150  0.35100  1.0000 0.1417669989
H   H939      1.0  0.58050  0.09210  0.64900  1.0000 0.1417669989
H   H940      1.0  0.34210  0.19310  0.01160  1.0000 0.1417669989
H   H941      1.0  0.06850  0.41950  0.51160  1.0000 0.1417669989
H   H942      1.0  0.80690  0.81850  0.14900  1.0000 0.1417669989
H   H943      1.0  0.66950  0.65790  0.85100  1.0000 0.1417669989
H   H944      1.0  0.90790  0.55690  0.48840  1.0000 0.1417669989
H   H945      1.0  0.22790  0.34710  0.98400  1.0000 0.1497073448
H   H946      1.0  0.49390  0.97790  0.38080  1.0000 0.1497073448
H   H947      1.0  0.59710  0.11310  0.61920  1.0000 0.1497073448
H   H948      1.0  0.36310  0.24390  0.01600  1.0000 0.1497073448
H   H949      1.0  0.02210  0.40290  0.51600  1.0000 0.1497073448
H   H950      1.0  0.75610  0.77210  0.11920  1.0000 0.1497073448
H   H951      1.0  0.65290  0.63690  0.88080  1.0000 0.1497073448
H   H952      1.0  0.88690  0.50610  0.48400  1.0000 0.1497073448
H   H953      1.0  0.22450  0.35480  0.01770  1.0000 0.1497073448
H   H954      1.0  0.45680  0.97450  0.36970  1.0000 0.1497073448
H   H955      1.0  0.60480  0.08710  0.63030  1.0000 0.1497073448
H   H956      1.0  0.33710  0.20680  0.98230  1.0000 0.1497073448
H   H957      1.0  0.02550  0.39520  0.48230  1.0000 0.1497073448
H   H958      1.0  0.79320  0.77550  0.13030  1.0000 0.1497073448
H   H959      1.0  0.64520  0.66290  0.86970  1.0000 0.1497073448
H   H960      1.0  0.91290  0.54320  0.51770  1.0000 0.1497073448
H   H961      1.0  0.16360  0.32110  0.90670  1.0000 0.1497073448
H   H962      1.0  0.50690  0.91360  0.34250  1.0000 0.1497073448
H   H963      1.0  0.57110  0.16440  0.65750  1.0000 0.1497073448
H   H964      1.0  0.41440  0.25690  0.09330  1.0000 0.1497073448
H   H965      1.0  0.08640  0.42890  0.59330  1.0000 0.1497073448
H   H966      1.0  0.74310  0.83640  0.15750  1.0000 0.1497073448
H   H967      1.0  0.67890  0.58560  0.84250  1.0000 0.1497073448
H   H968      1.0  0.83560  0.49310  0.40670  1.0000 0.1497073448
H   H969      1.0  0.13100  0.32380  0.89940  1.0000 0.1497073448
H   H970      1.0  0.48160  0.88100  0.30720  1.0000 0.1497073448
H   H971      1.0  0.57380  0.17440  0.69280  1.0000 0.1497073448
H   H972      1.0  0.42440  0.23160  0.10060  1.0000 0.1497073448
H   H973      1.0  0.11900  0.42620  0.60060  1.0000 0.1497073448
H   H974      1.0  0.76840  0.86900  0.19280  1.0000 0.1497073448
H   H975      1.0  0.67620  0.57560  0.80720  1.0000 0.1497073448
H   H976      1.0  0.82560  0.51840  0.39940  1.0000 0.1497073448
H   H977      1.0  0.16460  0.33790  0.87710  1.0000 0.1567201261
H   H978      1.0  0.53750  0.91460  0.32670  1.0000 0.1567201261
H   H979      1.0  0.58790  0.21080  0.67330  1.0000 0.1567201261
H   H980      1.0  0.46080  0.28750  0.12290  1.0000 0.1567201261
H   H981      1.0  0.08540  0.41210  0.62290  1.0000 0.1567201261
H   H982      1.0  0.71250  0.83540  0.17330  1.0000 0.1567201261
H   H983      1.0  0.66210  0.53920  0.82670  1.0000 0.1567201261
H   H984      1.0  0.78920  0.46250  0.37710  1.0000 0.1567201261
H   H985      1.0  0.94580  0.10050  0.81450  1.0000 0.1497073448
H   H986      1.0  0.38130  0.69580  0.34530  1.0000 0.1497073448
H   H987      1.0  0.35050  0.03600  0.65470  1.0000 0.1497073448
H   H988      1.0  0.28600  0.13130  0.18550  1.0000 0.1497073448
H   H989      1.0  0.30420  0.64950  0.68550  1.0000 0.1497073448
H   H990      1.0  0.86870  0.05420  0.15470  1.0000 0.1497073448
H   H991      1.0  0.89950  0.71400  0.84530  1.0000 0.1497073448
H   H992      1.0  0.96400  0.61870  0.31450  1.0000 0.1497073448
H   H993      1.0  0.98850  0.12140  0.79830  1.0000 0.1497073448
H   H994      1.0  0.44020  0.73850  0.36710  1.0000 0.1497073448
H   H995      1.0  0.37140  0.07310  0.63290  1.0000 0.1497073448
H   H996      1.0  0.32310  0.19020  0.20170  1.0000 0.1497073448
H   H997      1.0  0.26150  0.62860  0.70170  1.0000 0.1497073448
H   H998      1.0  0.80980  0.01150  0.13290  1.0000 0.1497073448
H   H999      1.0  0.87860  0.67690  0.86710  1.0000 0.1497073448
H   H1000     1.0  0.92690  0.55980  0.29830  1.0000 0.1497073448
H   H1001     1.0  0.97260  0.14190  0.79470  1.0000 0.1497073448
H   H1002     1.0  0.42790  0.72260  0.33070  1.0000 0.1497073448
H   H1003     1.0  0.39190  0.09720  0.66930  1.0000 0.1497073448
H   H1004     1.0  0.34720  0.17790  0.20530  1.0000 0.1497073448
H   H1005     1.0  0.27740  0.60810  0.70530  1.0000 0.1497073448
H   H1006     1.0  0.82210  0.02740  0.16930  1.0000 0.1497073448
H   H1007     1.0  0.85810  0.65280  0.83070  1.0000 0.1497073448
H   H1008     1.0  0.90280  0.57210  0.29470  1.0000 0.1497073448
H   H1009     1.0  0.55020  0.49820  0.16600  1.0000 0.1417669989
H   H1010     1.0  0.63420  0.30020  0.55200  1.0000 0.1417669989
H   H1011     1.0  0.74820  0.08220  0.44800  1.0000 0.1417669989
H   H1012     1.0  0.33220  0.38420  0.83400  1.0000 0.1417669989
H   H1013     1.0  0.69980  0.25180  0.33400  1.0000 0.1417669989
H   H1014     1.0  0.61580  0.44980  0.94800  1.0000 0.1417669989
H   H1015     1.0  0.50180  0.66780  0.05200  1.0000 0.1417669989
H   H1016     1.0  0.91780  0.36580  0.66600  1.0000 0.1417669989
H   H1017     1.0  0.59550  0.52910  0.14860  1.0000 0.1417669989
H   H1018     1.0  0.69690  0.34550  0.56640  1.0000 0.1417669989
H   H1019     1.0  0.77910  0.13050  0.43360  1.0000 0.1417669989
H   H1020     1.0  0.38050  0.44690  0.85140  1.0000 0.1417669989
H   H1021     1.0  0.65450  0.22090  0.35140  1.0000 0.1417669989
H   H1022     1.0  0.55310  0.40450  0.93360  1.0000 0.1417669989
H   H1023     1.0  0.47090  0.61950  0.06640  1.0000 0.1417669989
H   H1024     1.0  0.86950  0.30310  0.64860  1.0000 0.1417669989
H   H1025     1.0  0.54890  0.46650  0.14600  1.0000 0.1497073448
H   H1026     1.0  0.65290  0.29890  0.58240  1.0000 0.1497073448
H   H1027     1.0  0.71650  0.07050  0.41760  1.0000 0.1497073448
H   H1028     1.0  0.32050  0.40290  0.85400  1.0000 0.1497073448
H   H1029     1.0  0.70110  0.28350  0.35400  1.0000 0.1497073448
H   H1030     1.0  0.59710  0.45110  0.91760  1.0000 0.1497073448
H   H1031     1.0  0.53350  0.67950  0.08240  1.0000 0.1497073448
H   H1032     1.0  0.92950  0.34710  0.64600  1.0000 0.1497073448
H   H1033     1.0  0.45170  0.46340  0.04190  1.0000 0.1497073448
H   H1034     1.0  0.65980  0.20170  0.48830  1.0000 0.1497073448
H   H1035     1.0  0.71340  0.17150  0.51170  1.0000 0.1497073448
H   H1036     1.0  0.42150  0.40980  0.95810  1.0000 0.1497073448
H   H1037     1.0  0.79830  0.28660  0.45810  1.0000 0.1497073448
H   H1038     1.0  0.59020  0.54830  0.01170  1.0000 0.1497073448
H   H1039     1.0  0.53660  0.57850  0.98830  1.0000 0.1497073448
H   H1040     1.0  0.82850  0.34020  0.54190  1.0000 0.1497073448
H   H1041     1.0  0.44530  0.42430  0.02840  1.0000 0.1567201261
H   H1042     1.0  0.66690  0.19530  0.52100  1.0000 0.1567201261
H   H1043     1.0  0.67430  0.14590  0.47900  1.0000 0.1567201261
H   H1044     1.0  0.39590  0.41690  0.97160  1.0000 0.1567201261
H   H1045     1.0  0.80470  0.32570  0.47160  1.0000 0.1567201261
H   H1046     1.0  0.58310  0.55470  0.97900  1.0000 0.1567201261
H   H1047     1.0  0.57570  0.60410  0.02100  1.0000 0.1567201261
H   H1048     1.0  0.85410  0.33310  0.52840  1.0000 0.1567201261
H   H1049     1.0  0.50270  0.48860  0.03590  1.0000 0.1497073448
H   H1050     1.0  0.71680  0.25270  0.51410  1.0000 0.1497073448
H   H1051     1.0  0.73860  0.20270  0.48590  1.0000 0.1497073448
H   H1052     1.0  0.45270  0.46680  0.96410  1.0000 0.1497073448
H   H1053     1.0  0.74730  0.26140  0.46410  1.0000 0.1497073448
H   H1054     1.0  0.53320  0.49730  0.98590  1.0000 0.1497073448
H   H1055     1.0  0.51140  0.54730  0.01410  1.0000 0.1497073448
H   H1056     1.0  0.79730  0.28320  0.53590  1.0000 0.1497073448
H   H1057     1.0  0.31490  0.34690  0.01640  1.0000 0.1417669989
H   H1058     1.0  0.54850  0.06490  0.46800  1.0000 0.1417669989
H   H1059     1.0  0.59690  0.08050  0.53200  1.0000 0.1417669989
H   H1060     1.0  0.33050  0.29850  0.98360  1.0000 0.1417669989
H   H1061     1.0  0.93510  0.40310  0.48360  1.0000 0.1417669989
H   H1062     1.0  0.70150  0.68510  0.03200  1.0000 0.1417669989
H   H1063     1.0  0.65310  0.66950  0.96800  1.0000 0.1417669989
H   H1064     1.0  0.91950  0.45150  0.51640  1.0000 0.1417669989
H   H1065     1.0  0.31560  0.38270  0.01890  1.0000 0.1417669989
H   H1066     1.0  0.54670  0.06560  0.43290  1.0000 0.1417669989
H   H1067     1.0  0.63270  0.11380  0.56710  1.0000 0.1417669989
H   H1068     1.0  0.36380  0.29670  0.98110  1.0000 0.1417669989
H   H1069     1.0  0.93440  0.36730  0.48110  1.0000 0.1417669989
H   H1070     1.0  0.70330  0.68440  0.06710  1.0000 0.1417669989
H   H1071     1.0  0.61730  0.63620  0.93290  1.0000 0.1417669989
H   H1072     1.0  0.88620  0.45330  0.51890  1.0000 0.1417669989
H   H1073     1.0  0.26440  0.32210  0.99670  1.0000 0.1497073448
H   H1074     1.0  0.51770  0.01440  0.44230  1.0000 0.1497073448
H   H1075     1.0  0.57210  0.07540  0.55770  1.0000 0.1497073448
H   H1076     1.0  0.32540  0.26770  0.00330  1.0000 0.1497073448
H   H1077     1.0  0.98560  0.42790  0.50330  1.0000 0.1497073448
H   H1078     1.0  0.73230  0.73560  0.05770  1.0000 0.1497073448
H   H1079     1.0  0.67790  0.67460  0.94230  1.0000 0.1497073448
H   H1080     1.0  0.92460  0.48230  0.49670  1.0000 0.1497073448
H   H1081     1.0  0.18620  0.27360  0.10920  1.0000 0.1497073448
H   H1082     1.0  0.32700  0.93620  0.41260  1.0000 0.1497073448
H   H1083     1.0  0.52360  0.91440  0.58740  1.0000 0.1497073448
H   H1084     1.0  0.16440  0.07700  0.89080  1.0000 0.1497073448
H   H1085     1.0  0.06380  0.47640  0.39080  1.0000 0.1497073448
H   H1086     1.0  0.92300  0.81380  0.08740  1.0000 0.1497073448
H   H1087     1.0  0.72640  0.83560  0.91260  1.0000 0.1497073448
H   H1088     1.0  0.08560  0.67300  0.60920  1.0000 0.1497073448
H   H1089     1.0  0.15300  0.21860  0.08820  1.0000 0.1567201261
H   H1090     1.0  0.31480  0.90300  0.43440  1.0000 0.1567201261
H   H1091     1.0  0.46860  0.88040  0.56560  1.0000 0.1567201261
H   H1092     1.0  0.13040  0.06480  0.91180  1.0000 0.1567201261
H   H1093     1.0  0.09700  0.53140  0.41180  1.0000 0.1567201261
H   H1094     1.0  0.93520  0.84700  0.06560  1.0000 0.1567201261
H   H1095     1.0  0.78140  0.86960  0.93440  1.0000 0.1567201261
H   H1096     1.0  0.11960  0.68520  0.58820  1.0000 0.1567201261
H   H1097     1.0  0.14370  0.24320  0.07690  1.0000 0.1497073448
H   H1098     1.0  0.31680  0.89370  0.40050  1.0000 0.1497073448
H   H1099     1.0  0.49320  0.91630  0.59950  1.0000 0.1497073448
H   H1100     1.0  0.16630  0.06680  0.92310  1.0000 0.1497073448
H   H1101     1.0  0.10630  0.50680  0.42310  1.0000 0.1497073448
H   H1102     1.0  0.93320  0.85630  0.09950  1.0000 0.1497073448
H   H1103     1.0  0.75680  0.83370  0.90050  1.0000 0.1497073448
H   H1104     1.0  0.08370  0.68320  0.57690  1.0000 0.1497073448
H   H1105     1.0  0.23260  0.26930  0.17630  1.0000 0.1417669989
H   H1106     1.0  0.30630  0.98260  0.46330  1.0000 0.1417669989
H   H1107     1.0  0.51930  0.84300  0.53670  1.0000 0.1417669989
H   H1108     1.0  0.09300  0.05630  0.82370  1.0000 0.1417669989
H   H1109     1.0  0.01740  0.48070  0.32370  1.0000 0.1417669989
H   H1110     1.0  0.94370  0.76740  0.03670  1.0000 0.1417669989
H   H1111     1.0  0.73070  0.90700  0.96330  1.0000 0.1417669989
H   H1112     1.0  0.15700  0.69370  0.67630  1.0000 0.1417669989
H   H1113     1.0  0.24820  0.28790  0.21290  1.0000 0.1417669989
H   H1114     1.0  0.28530  0.99820  0.46030  1.0000 0.1417669989
H   H1115     1.0  0.53790  0.82500  0.53970  1.0000 0.1417669989
H   H1116     1.0  0.07500  0.03530  0.78710  1.0000 0.1417669989
H   H1117     1.0  0.00180  0.46210  0.28710  1.0000 0.1417669989
H   H1118     1.0  0.96470  0.75180  0.03970  1.0000 0.1417669989
H   H1119     1.0  0.71210  0.92500  0.96030  1.0000 0.1417669989
H   H1120     1.0  0.17500  0.71470  0.71290  1.0000 0.1417669989
H   H1121     1.0  0.23230  0.24220  0.19650  1.0000 0.1567201261
H   H1122     1.0  0.28580  0.98230  0.49010  1.0000 0.1567201261
H   H1123     1.0  0.49220  0.79570  0.50990  1.0000 0.1567201261
H   H1124     1.0  0.04570  0.03580  0.80350  1.0000 0.1567201261
H   H1125     1.0  0.01770  0.50780  0.30350  1.0000 0.1567201261
H   H1126     1.0  0.96420  0.76770  0.00990  1.0000 0.1567201261
H   H1127     1.0  0.75780  0.95430  0.99010  1.0000 0.1567201261
H   H1128     1.0  0.20430  0.71420  0.69650  1.0000 0.1567201261
H   H1129     1.0  0.47690  0.44790  0.21780  1.0000 0.1417669989
H   H1130     1.0  0.50910  0.22690  0.52900  1.0000 0.1417669989
H   H1131     1.0  0.69790  0.98010  0.47100  1.0000 0.1417669989
H   H1132     1.0  0.23010  0.25910  0.78220  1.0000 0.1417669989
H   H1133     1.0  0.77310  0.30210  0.28220  1.0000 0.1417669989
H   H1134     1.0  0.74090  0.52310  0.97100  1.0000 0.1417669989
H   H1135     1.0  0.55210  0.76990  0.02900  1.0000 0.1417669989
H   H1136     1.0  0.01990  0.49090  0.71780  1.0000 0.1417669989
H   H1137     1.0  0.45470  0.39630  0.21420  1.0000 0.1497073448
H   H1138     1.0  0.49050  0.20470  0.55840  1.0000 0.1497073448
H   H1139     1.0  0.64630  0.93210  0.44160  1.0000 0.1497073448
H   H1140     1.0  0.18210  0.24050  0.78580  1.0000 0.1497073448
H   H1141     1.0  0.79530  0.35370  0.28580  1.0000 0.1497073448
H   H1142     1.0  0.75950  0.54530  0.94160  1.0000 0.1497073448
H   H1143     1.0  0.60370  0.81790  0.05840  1.0000 0.1497073448
H   H1144     1.0  0.06790  0.50950  0.71420  1.0000 0.1497073448
H   H1145     1.0  0.45800  0.41970  0.24490  1.0000 0.1417669989
H   H1146     1.0  0.46310  0.20800  0.53830  1.0000 0.1417669989
H   H1147     1.0  0.66970  0.92480  0.46170  1.0000 0.1417669989
H   H1148     1.0  0.17480  0.21310  0.75510  1.0000 0.1417669989
H   H1149     1.0  0.79200  0.33030  0.25510  1.0000 0.1417669989
H   H1150     1.0  0.78690  0.54200  0.96170  1.0000 0.1417669989
H   H1151     1.0  0.58030  0.82520  0.03830  1.0000 0.1417669989
H   H1152     1.0  0.07520  0.53690  0.74490  1.0000 0.1417669989
H   H1153     1.0  0.57570  0.40500  0.99590  1.0000 0.1417669989
H   H1154     1.0  0.82980  0.32570  0.67070  1.0000 0.1417669989
H   H1155     1.0  0.65500  0.15910  0.32930  1.0000 0.1417669989
H   H1156     1.0  0.40910  0.57980  0.00410  1.0000 0.1417669989
H   H1157     1.0  0.67430  0.34500  0.50410  1.0000 0.1417669989
H   H1158     1.0  0.42020  0.42430  0.82930  1.0000 0.1417669989
H   H1159     1.0  0.59500  0.59090  0.17070  1.0000 0.1417669989
H   H1160     1.0  0.84090  0.17020  0.49590  1.0000 0.1417669989
H   H1161     1.0  0.57420  0.36910  0.98710  1.0000 0.1497073448
H   H1162     1.0  0.83710  0.32420  0.70510  1.0000 0.1497073448
H   H1163     1.0  0.61910  0.13200  0.29490  1.0000 0.1497073448
H   H1164     1.0  0.38200  0.58710  0.01290  1.0000 0.1497073448
H   H1165     1.0  0.67580  0.38090  0.51290  1.0000 0.1497073448
H   H1166     1.0  0.41290  0.42580  0.79490  1.0000 0.1497073448
H   H1167     1.0  0.63090  0.61800  0.20510  1.0000 0.1497073448
H   H1168     1.0  0.86800  0.16290  0.48710  1.0000 0.1497073448
H   H1169     1.0  0.57060  0.37870  0.02030  1.0000 0.1497073448
H   H1170     1.0  0.80030  0.32060  0.69190  1.0000 0.1497073448
H   H1171     1.0  0.62870  0.10840  0.30810  1.0000 0.1497073448
H   H1172     1.0  0.35840  0.55030  0.97970  1.0000 0.1497073448
H   H1173     1.0  0.67940  0.37130  0.47970  1.0000 0.1497073448
H   H1174     1.0  0.44970  0.42940  0.80810  1.0000 0.1497073448
H   H1175     1.0  0.62130  0.64160  0.19190  1.0000 0.1497073448
H   H1176     1.0  0.89160  0.19970  0.52030  1.0000 0.1497073448
H   H1177     1.0  0.81240  0.56720  0.05520  1.0000 0.1497073448
H   H1178     1.0  0.00720  0.56240  0.74520  1.0000 0.1497073448
H   H1179     1.0  0.81720  0.26200  0.25480  1.0000 0.1497073448
H   H1180     1.0  0.51200  0.75720  0.94480  1.0000 0.1497073448
H   H1181     1.0  0.43760  0.18280  0.44480  1.0000 0.1497073448
H   H1182     1.0  0.24280  0.18760  0.75480  1.0000 0.1497073448
H   H1183     1.0  0.43280  0.48800  0.24520  1.0000 0.1497073448
H   H1184     1.0  0.73800  0.99280  0.55520  1.0000 0.1497073448
H   H1185     1.0  0.78270  0.51130  0.04340  1.0000 0.1567201261
H   H1186     1.0  0.98930  0.53270  0.77140  1.0000 0.1567201261
H   H1187     1.0  0.76130  0.21790  0.22860  1.0000 0.1567201261
H   H1188     1.0  0.46790  0.73930  0.95660  1.0000 0.1567201261
H   H1189     1.0  0.46730  0.23870  0.45660  1.0000 0.1567201261
H   H1190     1.0  0.26070  0.21730  0.72860  1.0000 0.1567201261
H   H1191     1.0  0.48870  0.53210  0.27140  1.0000 0.1567201261
H   H1192     1.0  0.78210  0.01070  0.54340  1.0000 0.1567201261
H   H1193     1.0  0.80140  0.54570  0.02010  1.0000 0.1497073448
H   H1194     1.0  0.03130  0.55140  0.75570  1.0000 0.1497073448
H   H1195     1.0  0.79570  0.27560  0.24430  1.0000 0.1497073448
H   H1196     1.0  0.52560  0.78130  0.97990  1.0000 0.1497073448
H   H1197     1.0  0.44860  0.20430  0.47990  1.0000 0.1497073448
H   H1198     1.0  0.21870  0.19860  0.74430  1.0000 0.1497073448
H   H1199     1.0  0.45430  0.47440  0.25570  1.0000 0.1497073448
H   H1200     1.0  0.72440  0.96870  0.52010  1.0000 0.1497073448
H   H1201     1.0  0.90660  0.70020  0.07620  1.0000 0.1417669989
H   H1202     1.0  0.08040  0.65660  0.70640  1.0000 0.1417669989
H   H1203     1.0  0.95020  0.37400  0.29360  1.0000 0.1417669989
H   H1204     1.0  0.62400  0.83040  0.92380  1.0000 0.1417669989
H   H1205     1.0  0.34340  0.04980  0.42380  1.0000 0.1417669989
H   H1206     1.0  0.16960  0.09340  0.79360  1.0000 0.1417669989
H   H1207     1.0  0.29980  0.37600  0.20640  1.0000 0.1417669989
H   H1208     1.0  0.62600  0.91960  0.57620  1.0000 0.1417669989
H   H1209     1.0  0.95270  0.74030  0.10840  1.0000 0.1497073448
H   H1210     1.0  0.09430  0.70270  0.71240  1.0000 0.1497073448
H   H1211     1.0  0.99030  0.38190  0.28760  1.0000 0.1497073448
H   H1212     1.0  0.63190  0.84430  0.89160  1.0000 0.1497073448
H   H1213     1.0  0.29730  0.00970  0.39160  1.0000 0.1497073448
H   H1214     1.0  0.15570  0.04730  0.78760  1.0000 0.1497073448
H   H1215     1.0  0.25970  0.36810  0.21240  1.0000 0.1497073448
H   H1216     1.0  0.61810  0.90570  0.60840  1.0000 0.1497073448
H   H1217     1.0  0.89880  0.67620  0.10360  1.0000 0.1497073448
H   H1218     1.0  0.04520  0.64880  0.72260  1.0000 0.1497073448
H   H1219     1.0  0.92620  0.32260  0.27740  1.0000 0.1497073448
H   H1220     1.0  0.57260  0.79520  0.89640  1.0000 0.1497073448
H   H1221     1.0  0.35120  0.07380  0.39640  1.0000 0.1497073448
H   H1222     1.0  0.20480  0.10120  0.77740  1.0000 0.1497073448
H   H1223     1.0  0.32380  0.42740  0.22260  1.0000 0.1497073448
H   H1224     1.0  0.67740  0.95480  0.60360  1.0000 0.1497073448
H   H1225     1.0  0.82380  0.72900  0.15340  1.0000 0.1417669989
H   H1226     1.0  0.92040  0.57380  0.59480  1.0000 0.1417669989
H   H1227     1.0  0.97900  0.32560  0.40520  1.0000 0.1417669989
H   H1228     1.0  0.57560  0.67040  0.84660  1.0000 0.1417669989
H   H1229     1.0  0.42620  0.02100  0.34660  1.0000 0.1417669989
H   H1230     1.0  0.32960  0.17620  0.90520  1.0000 0.1417669989
H   H1231     1.0  0.27100  0.42440  0.09480  1.0000 0.1417669989
H   H1232     1.0  0.67440  0.07960  0.65340  1.0000 0.1417669989
H   H1233     1.0  0.87970  0.76620  0.17650  1.0000 0.1497073448
H   H1234     1.0  0.95320  0.62970  0.61350  1.0000 0.1497073448
H   H1235     1.0  0.01620  0.33970  0.38650  1.0000 0.1497073448
H   H1236     1.0  0.58970  0.70320  0.82350  1.0000 0.1497073448
H   H1237     1.0  0.37030  0.98380  0.32350  1.0000 0.1497073448
H   H1238     1.0  0.29680  0.12030  0.88650  1.0000 0.1497073448
H   H1239     1.0  0.23380  0.41030  0.11350  1.0000 0.1497073448
H   H1240     1.0  0.66030  0.04680  0.67650  1.0000 0.1497073448
H   H1241     1.0  0.88020  0.78800  0.15060  1.0000 0.1417669989
H   H1242     1.0  0.97960  0.63020  0.59220  1.0000 0.1417669989
H   H1243     1.0  0.03800  0.38740  0.40780  1.0000 0.1417669989
H   H1244     1.0  0.63740  0.72960  0.84940  1.0000 0.1417669989
H   H1245     1.0  0.36980  0.96200  0.34940  1.0000 0.1417669989
H   H1246     1.0  0.27040  0.11980  0.90780  1.0000 0.1417669989
H   H1247     1.0  0.21200  0.36260  0.09220  1.0000 0.1417669989
H   H1248     1.0  0.61260  0.02040  0.65060  1.0000 0.1417669989
H   H1249     1.0  0.68600  0.65180  0.11280  1.0000 0.1417669989
H   H1250     1.0  0.82320  0.43600  0.53420  1.0000 0.1417669989
H   H1251     1.0  0.90180  0.28900  0.46580  1.0000 0.1417669989
H   H1252     1.0  0.53900  0.57320  0.88720  1.0000 0.1417669989
H   H1253     1.0  0.56400  0.09820  0.38720  1.0000 0.1417669989
H   H1254     1.0  0.42680  0.31400  0.96580  1.0000 0.1417669989
H   H1255     1.0  0.34820  0.46100  0.03420  1.0000 0.1417669989
H   H1256     1.0  0.71100  0.17680  0.61280  1.0000 0.1417669989
H   H1257     1.0  0.63170  0.60780  0.12330  1.0000 0.1417669989
H   H1258     1.0  0.75840  0.38170  0.52390  1.0000 0.1417669989
H   H1259     1.0  0.85780  0.23450  0.47610  1.0000 0.1417669989
H   H1260     1.0  0.48450  0.50840  0.87670  1.0000 0.1417669989
H   H1261     1.0  0.61830  0.14220  0.37670  1.0000 0.1417669989
H   H1262     1.0  0.49160  0.36830  0.97610  1.0000 0.1417669989
H   H1263     1.0  0.39220  0.51550  0.02390  1.0000 0.1417669989
H   H1264     1.0  0.76550  0.24160  0.62330  1.0000 0.1417669989
H   H1265     1.0  0.67850  0.62460  0.13770  1.0000 0.1497073448
H   H1266     1.0  0.79080  0.42850  0.55390  1.0000 0.1497073448
H   H1267     1.0  0.87460  0.23690  0.44610  1.0000 0.1497073448
H   H1268     1.0  0.48690  0.54080  0.86230  1.0000 0.1497073448
H   H1269     1.0  0.57150  0.12540  0.36230  1.0000 0.1497073448
H   H1270     1.0  0.45920  0.32150  0.94610  1.0000 0.1497073448
H   H1271     1.0  0.37540  0.51310  0.05390  1.0000 0.1497073448
H   H1272     1.0  0.76310  0.20920  0.63770  1.0000 0.1497073448
H   H1273     1.0  0.54400  0.43210  0.03270  1.0000 0.1497073448
H   H1274     1.0  0.76130  0.29400  0.61190  1.0000 0.1497073448
H   H1275     1.0  0.68210  0.14940  0.38810  1.0000 0.1497073448
H   H1276     1.0  0.39940  0.51130  0.96730  1.0000 0.1497073448
H   H1277     1.0  0.70600  0.31790  0.46730  1.0000 0.1497073448
H   H1278     1.0  0.48870  0.45600  0.88810  1.0000 0.1417669989
H   H1279     1.0  0.56790  0.60060  0.11190  1.0000 0.1497073448
H   H1280     1.0  0.85060  0.23870  0.53270  1.0000 0.1497073448
H   H1281     1.0  0.50310  0.41690  0.04720  1.0000 0.1567201261
H   H1282     1.0  0.70590  0.25310  0.58620  1.0000 0.1567201261
H   H1283     1.0  0.66690  0.11970  0.41380  1.0000 0.1567201261
H   H1284     1.0  0.36970  0.45590  0.95280  1.0000 0.1567201261
H   H1285     1.0  0.74690  0.33310  0.45280  1.0000 0.1567201261
H   H1286     1.0  0.54410  0.49690  0.91380  1.0000 0.1567201261
H   H1287     1.0  0.58310  0.63030  0.08620  1.0000 0.1567201261
H   H1288     1.0  0.88030  0.29410  0.54720  1.0000 0.1567201261
H   H1289     1.0  0.51940  0.44130  0.01850  1.0000 0.1497073448
H   H1290     1.0  0.75090  0.26940  0.57810  1.0000 0.1497073448
H   H1291     1.0  0.69130  0.17280  0.42190  1.0000 0.1497073448
H   H1292     1.0  0.42280  0.50090  0.98150  1.0000 0.1497073448
H   H1293     1.0  0.73060  0.30870  0.48150  1.0000 0.1497073448
H   H1294     1.0  0.49910  0.48060  0.92190  1.0000 0.1497073448
H   H1295     1.0  0.55870  0.57720  0.07810  1.0000 0.1497073448
H   H1296     1.0  0.82720  0.24910  0.51850  1.0000 0.1497073448
H   H1297     1.0  0.12280  0.25360  0.76820  1.0000 0.1417669989
H   H1298     1.0  0.60460  0.87280  0.36920  1.0000 0.1417669989
H   H1299     1.0  0.50360  0.23540  0.63080  1.0000 0.1417669989
H   H1300     1.0  0.48540  0.35460  0.23180  1.0000 0.1497073448
H   H1301     1.0  0.12720  0.49640  0.73180  1.0000 0.1417669989
H   H1302     1.0  0.64540  0.87720  0.13080  1.0000 0.1497073448
H   H1303     1.0  0.74640  0.51460  0.86920  1.0000 0.1417669989
H   H1304     1.0  0.76460  0.39540  0.26820  1.0000 0.1417669989
H   H1305     1.0  0.10330  0.22640  0.79570  1.0000 0.1567201261
H   H1306     1.0  0.55760  0.85330  0.37690  1.0000 0.1567201261
H   H1307     1.0  0.47640  0.18070  0.62310  1.0000 0.1567201261
H   H1308     1.0  0.43070  0.30760  0.20430  1.0000 0.1567201261
H   H1309     1.0  0.14670  0.52360  0.70430  1.0000 0.1567201261
H   H1310     1.0  0.69240  0.89670  0.12310  1.0000 0.1567201261
H   H1311     1.0  0.77360  0.56930  0.87690  1.0000 0.1567201261
H   H1312     1.0  0.81930  0.44240  0.29570  1.0000 0.1567201261
H   H1313     1.0  0.05950  0.19830  0.76520  1.0000 0.1497073448
H   H1314     1.0  0.54430  0.80950  0.36120  1.0000 0.1497073448
H   H1315     1.0  0.44830  0.18310  0.63880  1.0000 0.1497073448
H   H1316     1.0  0.43310  0.29430  0.23480  1.0000 0.1497073448
H   H1317     1.0  0.19050  0.55170  0.73480  1.0000 0.1497073448
H   H1318     1.0  0.70570  0.94050  0.13880  1.0000 0.1497073448
H   H1319     1.0  0.80170  0.56690  0.86120  1.0000 0.1497073448
H   H1320     1.0  0.81690  0.45570  0.26520  1.0000 0.1497073448
H   H1321     1.0  0.06600  0.32220  0.83120  1.0000 0.1417669989
H   H1322     1.0  0.48480  0.81600  0.24380  1.0000 0.1417669989
H   H1323     1.0  0.57220  0.24100  0.75620  1.0000 0.1417669989
H   H1324     1.0  0.49100  0.23480  0.16880  1.0000 0.1417669989
H   H1325     1.0  0.18400  0.42780  0.66880  1.0000 0.1417669989
H   H1326     1.0  0.76520  0.93400  0.25620  1.0000 0.1417669989
H   H1327     1.0  0.67780  0.50900  0.74380  1.0000 0.1417669989
H   H1328     1.0  0.75900  0.51520  0.33120  1.0000 0.1417669989
H   H1329     1.0  0.04980  0.28450  0.85050  1.0000 0.1417669989
H   H1330     1.0  0.44930  0.79980  0.26530  1.0000 0.1417669989
H   H1331     1.0  0.53450  0.18400  0.73470  1.0000 0.1417669989
H   H1332     1.0  0.43400  0.19930  0.14950  1.0000 0.1417669989
H   H1333     1.0  0.20020  0.46550  0.64950  1.0000 0.1417669989
H   H1334     1.0  0.80070  0.95020  0.23470  1.0000 0.1417669989
H   H1335     1.0  0.71550  0.56600  0.76530  1.0000 0.1417669989
H   H1336     1.0  0.81600  0.55070  0.35050  1.0000 0.1417669989
H   H1337     1.0  0.11140  0.34700  0.85860  1.0000 0.1567201261
H   H1338     1.0  0.50280  0.86140  0.26440  1.0000 0.1567201261
H   H1339     1.0  0.59700  0.23840  0.73560  1.0000 0.1567201261
H   H1340     1.0  0.48840  0.25280  0.14140  1.0000 0.1567201261
H   H1341     1.0  0.13860  0.40300  0.64140  1.0000 0.1567201261
H   H1342     1.0  0.74720  0.88860  0.23560  1.0000 0.1567201261
H   H1343     1.0  0.65300  0.51160  0.76440  1.0000 0.1567201261
H   H1344     1.0  0.76160  0.49720  0.35860  1.0000 0.1567201261
H   H1345     1.0  0.16870  0.45810  0.84340  1.0000 0.1497073448
H   H1346     1.0  0.57530  0.91870  0.21060  1.0000 0.1497073448
H   H1347     1.0  0.70810  0.36470  0.78940  1.0000 0.1497073448
H   H1348     1.0  0.61470  0.32530  0.15660  1.0000 0.1497073448
H   H1349     1.0  0.08130  0.29190  0.65660  1.0000 0.1497073448
H   H1350     1.0  0.67470  0.83130  0.28940  1.0000 0.1497073448
H   H1351     1.0  0.54190  0.38530  0.71060  1.0000 0.1497073448
H   H1352     1.0  0.63530  0.42470  0.34340  1.0000 0.1497073448
H   H1353     1.0  0.19820  0.51420  0.85300  1.0000 0.1567201261
H   H1354     1.0  0.59520  0.94820  0.18400  1.0000 0.1567201261
H   H1355     1.0  0.76420  0.41120  0.81600  1.0000 0.1567201261
H   H1356     1.0  0.66120  0.34520  0.14700  1.0000 0.1567201261
H   H1357     1.0  0.05180  0.23580  0.64700  1.0000 0.1567201261
H   H1358     1.0  0.65480  0.80180  0.31600  1.0000 0.1567201261
H   H1359     1.0  0.48580  0.33880  0.68400  1.0000 0.1567201261
H   H1360     1.0  0.58880  0.40480  0.35300  1.0000 0.1567201261
H   H1361     1.0  0.14130  0.46360  0.82710  1.0000 0.1497073448
H   H1362     1.0  0.56420  0.89130  0.17770  1.0000 0.1497073448
H   H1363     1.0  0.71360  0.38650  0.82230  1.0000 0.1497073448
H   H1364     1.0  0.63650  0.31420  0.17290  1.0000 0.1497073448
H   H1365     1.0  0.10870  0.28640  0.67290  1.0000 0.1497073448
H   H1366     1.0  0.68580  0.85870  0.32230  1.0000 0.1497073448
H   H1367     1.0  0.53640  0.36350  0.67770  1.0000 0.1497073448
H   H1368     1.0  0.61350  0.43580  0.32710  1.0000 0.1497073448
H   H1369     1.0  0.28360  0.56590  0.74330  1.0000 0.1417669989
H   H1370     1.0  0.79030  0.03360  0.21770  1.0000 0.1417669989
H   H1371     1.0  0.81590  0.57260  0.78230  1.0000 0.1417669989
H   H1372     1.0  0.82260  0.54030  0.25670  1.0000 0.1417669989
H   H1373     1.0  0.96640  0.18410  0.75670  1.0000 0.1417669989
H   H1374     1.0  0.45970  0.71640  0.28230  1.0000 0.1417669989
H   H1375     1.0  0.43410  0.17740  0.71770  1.0000 0.1417669989
H   H1376     1.0  0.42740  0.20970  0.24330  1.0000 0.1417669989
H   H1377     1.0  0.30110  0.61010  0.76520  1.0000 0.1497073448
H   H1378     1.0  0.78590  0.05110  0.19100  1.0000 0.1497073448
H   H1379     1.0  0.86010  0.59490  0.80900  1.0000 0.1497073448
H   H1380     1.0  0.84490  0.53590  0.23480  1.0000 0.1497073448
H   H1381     1.0  0.94890  0.13990  0.73480  1.0000 0.1497073448
H   H1382     1.0  0.46410  0.69890  0.30900  1.0000 0.1497073448
H   H1383     1.0  0.38990  0.15510  0.69100  1.0000 0.1497073448
H   H1384     1.0  0.40510  0.21410  0.26520  1.0000 0.1497073448
H   H1385     1.0  0.33270  0.60670  0.77400  1.0000 0.1567201261
H   H1386     1.0  0.80870  0.08270  0.22600  1.0000 0.1567201261
H   H1387     1.0  0.85670  0.58270  0.77400  1.0000 0.1567201261
H   H1388     1.0  0.83270  0.55870  0.22600  1.0000 0.1567201261
H   H1389     1.0  0.91730  0.14330  0.72600  1.0000 0.1567201261
H   H1390     1.0  0.44130  0.66730  0.27400  1.0000 0.1567201261
H   H1391     1.0  0.39330  0.16730  0.72600  1.0000 0.1567201261
H   H1392     1.0  0.41730  0.19130  0.27400  1.0000 0.1567201261
H   H1393     1.0  0.30440  0.51870  0.70630  1.0000 0.1417669989
H   H1394     1.0  0.84810  0.05440  0.28570  1.0000 0.1417669989
H   H1395     1.0  0.76870  0.56240  0.71430  1.0000 0.1417669989
H   H1396     1.0  0.81240  0.59810  0.29370  1.0000 0.1417669989
H   H1397     1.0  0.94560  0.23130  0.79370  1.0000 0.1417669989
H   H1398     1.0  0.40190  0.69560  0.21430  1.0000 0.1417669989
H   H1399     1.0  0.48130  0.18760  0.78570  1.0000 0.1417669989
H   H1400     1.0  0.43760  0.15190  0.20630  1.0000 0.1417669989
H   H1401     1.0  0.34220  0.52450  0.69810  1.0000 0.1567201261
H   H1402     1.0  0.89410  0.09220  0.31770  1.0000 0.1567201261
H   H1403     1.0  0.77450  0.57640  0.68230  1.0000 0.1567201261
H   H1404     1.0  0.82640  0.64410  0.30190  1.0000 0.1567201261
H   H1405     1.0  0.90780  0.22550  0.80190  1.0000 0.1567201261
H   H1406     1.0  0.35590  0.65780  0.18230  1.0000 0.1567201261
H   H1407     1.0  0.47550  0.17360  0.81770  1.0000 0.1567201261
H   H1408     1.0  0.42360  0.10590  0.19810  1.0000 0.1567201261
H   H1409     1.0  0.29130  0.49240  0.67210  1.0000 0.1497073448
H   H1410     1.0  0.86920  0.04130  0.29890  1.0000 0.1497073448
H   H1411     1.0  0.74240  0.57030  0.70110  1.0000 0.1497073448
H   H1412     1.0  0.82030  0.61920  0.32790  1.0000 0.1497073448
H   H1413     1.0  0.95870  0.25760  0.82790  1.0000 0.1497073448
H   H1414     1.0  0.38080  0.70870  0.20110  1.0000 0.1497073448
H   H1415     1.0  0.50760  0.17970  0.79890  1.0000 0.1497073448
H   H1416     1.0  0.42970  0.13080  0.17210  1.0000 0.1497073448
H   H1417     1.0  0.17560  0.30010  0.71330  1.0000 0.1417669989
H   H1418     1.0  0.71230  0.92560  0.37550  1.0000 0.1417669989
H   H1419     1.0  0.55010  0.33680  0.62450  1.0000 0.1417669989
H   H1420     1.0  0.58680  0.46230  0.28670  1.0000 0.1417669989
H   H1421     1.0  0.07440  0.44990  0.78670  1.0000 0.1417669989
H   H1422     1.0  0.53770  0.82440  0.12450  1.0000 0.1417669989
H   H1423     1.0  0.69990  0.41320  0.87550  1.0000 0.1417669989
H   H1424     1.0  0.66320  0.28770  0.21330  1.0000 0.1417669989
H   H1425     1.0  0.20970  0.31640  0.69050  1.0000 0.1497073448
H   H1426     1.0  0.76920  0.95970  0.39330  1.0000 0.1497073448
H   H1427     1.0  0.56640  0.37590  0.60670  1.0000 0.1497073448
H   H1428     1.0  0.62590  0.51920  0.30950  1.0000 0.1497073448
H   H1429     1.0  0.04030  0.43360  0.80950  1.0000 0.1497073448
H   H1430     1.0  0.48080  0.79030  0.10670  1.0000 0.1497073448
H   H1431     1.0  0.68360  0.37410  0.89330  1.0000 0.1497073448
H   H1432     1.0  0.62410  0.23080  0.19050  1.0000 0.1497073448
H   H1433     1.0  0.23730  0.34200  0.72670  1.0000 0.1497073448
H   H1434     1.0  0.76060  0.98730  0.39530  1.0000 0.1497073448
H   H1435     1.0  0.59200  0.36530  0.60470  1.0000 0.1497073448
H   H1436     1.0  0.61530  0.51060  0.27330  1.0000 0.1497073448
H   H1437     1.0  0.01270  0.40800  0.77330  1.0000 0.1497073448
H   H1438     1.0  0.48940  0.76270  0.10470  1.0000 0.1497073448
H   H1439     1.0  0.65800  0.38470  0.89530  1.0000 0.1497073448
H   H1440     1.0  0.63470  0.23940  0.22670  1.0000 0.1497073448
C   C1        1.0  0.01075  0.87339  0.16714  1.0000 -0.4995803268
C   C2        1.0  0.09361  0.76075  0.63736  1.0000 -0.4995803268
C   C3        1.0  0.12339  0.45625  0.36264  1.0000 -0.4995803268
C   C4        1.0  0.70625  0.84361  0.83286  1.0000 -0.4995803268
C   C5        1.0  0.23925  0.87661  0.33286  1.0000 -0.4995803268
C   C6        1.0  0.15639  0.98925  0.86264  1.0000 -0.4995803268
C   C7        1.0  0.12661  0.29375  0.13736  1.0000 -0.4995803268
C   C8        1.0  0.54375  0.90639  0.66714  1.0000 -0.4995803268
C   C9        1.0  0.99668  0.83209  0.17537  1.0000 0.19070493
C   C10       1.0  0.07131  0.74668  0.66459  1.0000 0.19070493
C   C11       1.0  0.08209  0.40672  0.33541  1.0000 0.19070493
C   C12       1.0  0.65672  0.82131  0.82463  1.0000 0.19070493
C   C13       1.0  0.25332  0.91791  0.32463  1.0000 0.19070493
C   C14       1.0  0.17869  0.00332  0.83541  1.0000 0.19070493
C   C15       1.0  0.16791  0.34328  0.16459  1.0000 0.19070493
C   C16       1.0  0.59328  0.92869  0.67537  1.0000 0.19070493
C   C17       1.0  0.95012  0.77607  0.16239  1.0000 -0.1109580563
C   C18       1.0  0.03773  0.70012  0.67405  1.0000 -0.1109580563
C   C19       1.0  0.02607  0.36368  0.32595  1.0000 -0.1109580563
C   C20       1.0  0.61368  0.78773  0.83761  1.0000 -0.1109580563
C   C21       1.0  0.29988  0.97393  0.33761  1.0000 -0.1109580563
C   C22       1.0  0.21227  0.04988  0.82595  1.0000 -0.1109580563
C   C23       1.0  0.22393  0.38632  0.17405  1.0000 -0.1109580563
C   C24       1.0  0.63632  0.96227  0.66239  1.0000 -0.1109580563
C   C25       1.0  0.95819  0.75817  0.17916  1.0000 0.19070493
C   C26       1.0  0.02903  0.70819  0.70002  1.0000 0.19070493
C   C27       1.0  0.00817  0.32901  0.29998  1.0000 0.19070493
C   C28       1.0  0.57901  0.77903  0.82084  1.0000 0.19070493
C   C29       1.0  0.29181  0.99183  0.32084  1.0000 0.19070493
C   C30       1.0  0.22097  0.04181  0.79998  1.0000 0.19070493
C   C31       1.0  0.24183  0.42099  0.20002  1.0000 0.19070493
C   C32       1.0  0.67099  0.97097  0.67916  1.0000 0.19070493
C   C33       1.0  0.92159  0.70203  0.17682  1.0000 -0.4705292228
C   C34       1.0  0.99477  0.67159  0.71956  1.0000 -0.4705292228
C   C35       1.0  0.95203  0.27521  0.28044  1.0000 -0.4705292228
C   C36       1.0  0.52521  0.74477  0.82318  1.0000 -0.4705292228
C   C37       1.0  0.32841  0.04797  0.32318  1.0000 -0.4705292228
C   C38       1.0  0.25523  0.07841  0.78044  1.0000 -0.4705292228
C   C39       1.0  0.29797  0.47479  0.21956  1.0000 -0.4705292228
C   C40       1.0  0.72479  0.00523  0.67682  1.0000 -0.4705292228
C   C41       1.0  0.96361  0.73179  0.78180  1.0000 -0.4995803268
C   C42       1.0  0.43181  0.71361  0.73182  1.0000 -0.4995803268
C   C43       1.0  0.98179  0.69999  0.26818  1.0000 -0.4995803268
C   C44       1.0  0.94999  0.18181  0.21820  1.0000 -0.4995803268
C   C45       1.0  0.28639  0.01821  0.71820  1.0000 -0.4995803268
C   C46       1.0  0.81819  0.03639  0.76818  1.0000 -0.4995803268
C   C47       1.0  0.26821  0.05001  0.23182  1.0000 -0.4995803268
C   C48       1.0  0.30001  0.56819  0.28180  1.0000 -0.4995803268
C   C49       1.0  0.99141  0.78003  0.77344  1.0000 0.1990913638
C   C50       1.0  0.46797  0.74141  0.71138  1.0000 0.1990913638
C   C51       1.0  0.03003  0.75659  0.28862  1.0000 0.1990913638
C   C52       1.0  0.00659  0.21797  0.22656  1.0000 0.1990913638
C   C53       1.0  0.25859  0.96997  0.72656  1.0000 0.1990913638
C   C54       1.0  0.78203  0.00859  0.78862  1.0000 0.1990913638
C   C55       1.0  0.21997  0.99341  0.21138  1.0000 0.1990913638
C   C56       1.0  0.24341  0.53203  0.27344  1.0000 0.1990913638
C   C57       1.0  0.98577  0.80586  0.78043  1.0000 -0.1109580563
C   C58       1.0  0.45534  0.73577  0.67991  1.0000 -0.1109580563
C   C59       1.0  0.05586  0.77543  0.32009  1.0000 -0.1109580563
C   C60       1.0  0.02543  0.20534  0.21957  1.0000 -0.1109580563
C   C61       1.0  0.26423  0.94414  0.71957  1.0000 -0.1109580563
C   C62       1.0  0.79466  0.01423  0.82009  1.0000 -0.1109580563
C   C63       1.0  0.19414  0.97457  0.17991  1.0000 -0.1109580563
C   C64       1.0  0.22457  0.54466  0.28043  1.0000 -0.1109580563
C   C65       1.0  0.02359  0.85066  0.76865  1.0000 0.1990913638
C   C66       1.0  0.50494  0.77359  0.67293  1.0000 0.1990913638
C   C67       1.0  0.10066  0.83201  0.32707  1.0000 0.1990913638
C   C68       1.0  0.08201  0.25494  0.23135  1.0000 0.1990913638
C   C69       1.0  0.22641  0.89934  0.73135  1.0000 0.1990913638
C   C70       1.0  0.74506  0.97641  0.82707  1.0000 0.1990913638
C   C71       1.0  0.14934  0.91799  0.17293  1.0000 0.1990913638
C   C72       1.0  0.16799  0.49506  0.26865  1.0000 0.1990913638
C   C73       1.0  0.03753  0.89344  0.76917  1.0000 -0.4798473497
C   C74       1.0  0.51836  0.78753  0.64409  1.0000 -0.4798473497
C   C75       1.0  0.14344  0.87427  0.35591  1.0000 -0.4798473497
C   C76       1.0  0.12427  0.26836  0.23083  1.0000 -0.4798473497
C   C77       1.0  0.21247  0.85656  0.73083  1.0000 -0.4798473497
C   C78       1.0  0.73164  0.96247  0.85591  1.0000 -0.4798473497
C   C79       1.0  0.10656  0.87573  0.14409  1.0000 -0.4798473497
C   C80       1.0  0.12573  0.48164  0.26917  1.0000 -0.4798473497
C   C81       1.0  0.24684  0.05038  0.34562  1.0000 -0.4909400032
C   C82       1.0  0.15122  0.99684  0.69646  1.0000 -0.4909400032
C   C83       1.0  0.30038  0.45476  0.30354  1.0000 -0.4909400032
C   C84       1.0  0.70476  0.90122  0.65438  1.0000 -0.4909400032
C   C85       1.0  0.00316  0.69962  0.15438  1.0000 -0.4909400032
C   C86       1.0  0.09878  0.75316  0.80354  1.0000 -0.4909400032
C   C87       1.0  0.94962  0.29524  0.19646  1.0000 -0.4909400032
C   C88       1.0  0.54524  0.84878  0.84562  1.0000 -0.4909400032
C   C89       1.0  0.21916  0.03669  0.31445  1.0000 0.19070493
C   C90       1.0  0.15471  0.96916  0.68247  1.0000 0.19070493
C   C91       1.0  0.28669  0.47224  0.31753  1.0000 0.19070493
C   C92       1.0  0.72224  0.90471  0.68555  1.0000 0.19070493
C   C93       1.0  0.03084  0.71331  0.18555  1.0000 0.19070493
C   C94       1.0  0.09529  0.78084  0.81753  1.0000 0.19070493
C   C95       1.0  0.96331  0.27776  0.18247  1.0000 0.19070493
C   C96       1.0  0.52776  0.84529  0.81445  1.0000 0.19070493
C   C97       1.0  0.22237  0.06545  0.30202  1.0000 -0.1199593417
C   C98       1.0  0.17035  0.97237  0.65692  1.0000 -0.1199593417
C   C99       1.0  0.31545  0.51343  0.34308  1.0000 -0.1199593417
C   C100      1.0  0.76343  0.92035  0.69798  1.0000 -0.1199593417
C   C101      1.0  0.02763  0.68455  0.19798  1.0000 -0.1199593417
C   C102      1.0  0.07965  0.77763  0.84308  1.0000 -0.1199593417
C   C103      1.0  0.93455  0.23657  0.15692  1.0000 -0.1199593417
C   C104      1.0  0.48657  0.82965  0.80202  1.0000 -0.1199593417
C   C105      1.0  0.18895  0.03368  0.27203  1.0000 0.1990913638
C   C106      1.0  0.16692  0.93895  0.65527  1.0000 0.1990913638
C   C107      1.0  0.28368  0.51165  0.34473  1.0000 0.1990913638
C   C108      1.0  0.76165  0.91692  0.72797  1.0000 0.1990913638
C   C109      1.0  0.06105  0.71632  0.22797  1.0000 0.1990913638
C   C110      1.0  0.08308  0.81105  0.84473  1.0000 0.1990913638
C   C111      1.0  0.96632  0.23835  0.15527  1.0000 0.1990913638
C   C112      1.0  0.48835  0.83308  0.77203  1.0000 0.1990913638
C   C113      1.0  0.17530  0.04270  0.24740  1.0000 -0.4909400032
C   C114      1.0  0.17790  0.92530  0.63260  1.0000 -0.4909400032
C   C115      1.0  0.29270  0.54530  0.36740  1.0000 -0.4909400032
C   C116      1.0  0.79530  0.92790  0.75260  1.0000 -0.4909400032
C   C117      1.0  0.07470  0.70730  0.25260  1.0000 -0.4909400032
C   C118      1.0  0.07210  0.82470  0.86740  1.0000 -0.4909400032
C   C119      1.0  0.95730  0.20470  0.13260  1.0000 -0.4909400032
C   C120      1.0  0.45470  0.82210  0.74740  1.0000 -0.4909400032
C   C121      1.0  0.35561  0.44144  0.72905  1.0000 -0.4798473497
C   C122      1.0  0.87656  0.10561  0.41417  1.0000 -0.4798473497
C   C123      1.0  0.69144  0.46239  0.58583  1.0000 -0.4798473497
C   C124      1.0  0.71239  0.62656  0.27095  1.0000 -0.4798473497
C   C125      1.0  0.89439  0.30856  0.77095  1.0000 -0.4798473497
C   C126      1.0  0.37344  0.64439  0.08583  1.0000 -0.4798473497
C   C127      1.0  0.55856  0.28761  0.91417  1.0000 -0.4798473497
C   C128      1.0  0.53761  0.12344  0.22905  1.0000 -0.4798473497
C   C129      1.0  0.34329  0.44080  0.69709  1.0000 0.19070493
C   C130      1.0  0.89620  0.09329  0.40249  1.0000 0.19070493
C   C131      1.0  0.69080  0.49371  0.59751  1.0000 0.19070493
C   C132      1.0  0.74371  0.64620  0.30291  1.0000 0.19070493
C   C133      1.0  0.90671  0.30920  0.80291  1.0000 0.19070493
C   C134      1.0  0.35380  0.65671  0.09751  1.0000 0.19070493
C   C135      1.0  0.55920  0.25629  0.90249  1.0000 0.19070493
C   C136      1.0  0.50629  0.10380  0.19709  1.0000 0.19070493
C   C137      1.0  0.30624  0.43017  0.68301  1.0000 -0.1199593417
C   C138      1.0  0.87323  0.05624  0.37607  1.0000 -0.1199593417
C   C139      1.0  0.68017  0.49716  0.62393  1.0000 -0.1199593417
C   C140      1.0  0.74716  0.62323  0.31699  1.0000 -0.1199593417
C   C141      1.0  0.94376  0.31983  0.81699  1.0000 -0.1199593417
C   C142      1.0  0.37677  0.69376  0.12393  1.0000 -0.1199593417
C   C143      1.0  0.56983  0.25284  0.87607  1.0000 -0.1199593417
C   C144      1.0  0.50284  0.12677  0.18301  1.0000 -0.1199593417
C   C145      1.0  0.31323  0.43653  0.65376  1.0000 0.1990913638
C   C146      1.0  0.90947  0.06323  0.37670  1.0000 0.1990913638
C   C147      1.0  0.68653  0.53277  0.62330  1.0000 0.1990913638
C   C148      1.0  0.78277  0.65947  0.34624  1.0000 0.1990913638
C   C149      1.0  0.93677  0.31347  0.84624  1.0000 0.1990913638
C   C150      1.0  0.34053  0.68677  0.12330  1.0000 0.1990913638
C   C151      1.0  0.56347  0.21723  0.87670  1.0000 0.1990913638
C   C152      1.0  0.46723  0.09053  0.15376  1.0000 0.1990913638
C   C153      1.0  0.28343  0.42815  0.62718  1.0000 -0.4995803268
C   C154      1.0  0.90625  0.03343  0.35528  1.0000 -0.4995803268
C   C155      1.0  0.67815  0.55097  0.64472  1.0000 -0.4995803268
C   C156      1.0  0.80097  0.65625  0.37282  1.0000 -0.4995803268
C   C157      1.0  0.96657  0.32185  0.87282  1.0000 -0.4995803268
C   C158      1.0  0.34375  0.71657  0.14472  1.0000 -0.4995803268
C   C159      1.0  0.57185  0.19903  0.85528  1.0000 -0.4995803268
C   C160      1.0  0.44903  0.09375  0.12718  1.0000 -0.4995803268
C   C161      1.0  0.08383  0.13652  0.38275  1.0000 -0.4798473497
C   C162      1.0  0.95108  0.83383  0.44731  1.0000 -0.4798473497
C   C163      1.0  0.38652  0.50377  0.55269  1.0000 -0.4798473497
C   C164      1.0  0.75377  0.70108  0.61725  1.0000 -0.4798473497
C   C165      1.0  0.16617  0.61348  0.11725  1.0000 -0.4798473497
C   C166      1.0  0.29892  0.91617  0.05269  1.0000 -0.4798473497
C   C167      1.0  0.86348  0.24623  0.94731  1.0000 -0.4798473497
C   C168      1.0  0.49623  0.04892  0.88275  1.0000 -0.4798473497
C   C169      1.0  0.12140  0.18699  0.40719  1.0000 0.19070493
C   C170      1.0  0.96421  0.87140  0.43441  1.0000 0.19070493
C   C171      1.0  0.43699  0.52980  0.56559  1.0000 0.19070493
C   C172      1.0  0.77980  0.71421  0.59281  1.0000 0.19070493
C   C173      1.0  0.12860  0.56301  0.09281  1.0000 0.19070493
C   C174      1.0  0.28579  0.87860  0.06559  1.0000 0.19070493
C   C175      1.0  0.81301  0.22020  0.93441  1.0000 0.19070493
C   C176      1.0  0.47020  0.03579  0.90719  1.0000 0.19070493
C   C177      1.0  0.17754  0.23704  0.41518  1.0000 -0.1199593417
C   C178      1.0  0.01236  0.92754  0.44050  1.0000 -0.1199593417
C   C179      1.0  0.48704  0.57186  0.55950  1.0000 -0.1199593417
C   C180      1.0  0.82186  0.76236  0.58482  1.0000 -0.1199593417
C   C181      1.0  0.07246  0.51296  0.08482  1.0000 -0.1199593417
C   C182      1.0  0.23764  0.82246  0.05950  1.0000 -0.1199593417
C   C183      1.0  0.76296  0.17814  0.94050  1.0000 -0.1199593417
C   C184      1.0  0.42814  0.98764  0.91518  1.0000 -0.1199593417
C   C185      1.0  0.19101  0.26955  0.43936  1.0000 0.19070493
C   C186      1.0  0.00165  0.94101  0.42146  1.0000 0.19070493
C   C187      1.0  0.51955  0.58019  0.57854  1.0000 0.19070493
C   C188      1.0  0.83019  0.75165  0.56064  1.0000 0.19070493
C   C189      1.0  0.05899  0.48045  0.06064  1.0000 0.19070493
C   C190      1.0  0.24835  0.80899  0.07854  1.0000 0.19070493
C   C191      1.0  0.73045  0.16981  0.92146  1.0000 0.1838162652
C   C192      1.0  0.41981  0.99835  0.93936  1.0000 0.19070493
C   C193      1.0  0.24580  0.32669  0.45689  1.0000 -0.4995803268
C   C194      1.0  0.03891  0.99580  0.41911  1.0000 -0.4995803268
C   C195      1.0  0.57669  0.61980  0.58089  1.0000 -0.4995803268
C   C196      1.0  0.86980  0.78891  0.54311  1.0000 -0.4995803268
C   C197      1.0  0.00420  0.42331  0.04311  1.0000 -0.4995803268
C   C198      1.0  0.21109  0.75420  0.08089  1.0000 -0.4995803268
C   C199      1.0  0.67331  0.13020  0.91911  1.0000 -0.4995803268
C   C200      1.0  0.38020  0.96109  0.95689  1.0000 -0.4995803268
C   C201      1.0  0.63576  0.61202  0.67478  1.0000 -0.4909400032
C   C202      1.0  0.21098  0.38576  0.52374  1.0000 -0.4909400032
C   C203      1.0  0.86202  0.68724  0.47626  1.0000 -0.4909400032
C   C204      1.0  0.93724  0.96098  0.32522  1.0000 -0.4909400032
C   C205      1.0  0.61424  0.13798  0.82522  1.0000 -0.4909400032
C   C206      1.0  0.03902  0.36424  0.97626  1.0000 -0.4909400032
C   C207      1.0  0.38798  0.06276  0.02374  1.0000 -0.4909400032
C   C208      1.0  0.31276  0.78902  0.17478  1.0000 -0.4909400032
C   C209      1.0  0.59278  0.58011  0.69069  1.0000 0.1990913638
C   C210      1.0  0.15209  0.34278  0.51267  1.0000 0.1990913638
C   C211      1.0  0.83011  0.63942  0.48733  1.0000 0.1990913638
C   C212      1.0  0.88942  0.90209  0.30931  1.0000 0.1990913638
C   C213      1.0  0.65722  0.16989  0.80931  1.0000 0.1990913638
C   C214      1.0  0.09791  0.40722  0.98733  1.0000 0.1990913638
C   C215      1.0  0.41989  0.11058  0.01267  1.0000 0.1990913638
C   C216      1.0  0.36058  0.84791  0.19069  1.0000 0.1990913638
C   C217      1.0  0.59472  0.57855  0.72107  1.0000 -0.1036691653
C   C218      1.0  0.12365  0.34472  0.51617  1.0000 -0.1036691653
C   C219      1.0  0.82855  0.60748  0.48383  1.0000 -0.1036691653
C   C220      1.0  0.85748  0.87365  0.27893  1.0000 -0.1036691653
C   C221      1.0  0.65528  0.17145  0.77893  1.0000 -0.1036691653
C   C222      1.0  0.12635  0.40528  0.98383  1.0000 -0.1036691653
C   C223      1.0  0.42145  0.14252  0.01617  1.0000 -0.1036691653
C   C224      1.0  0.39252  0.87635  0.22107  1.0000 -0.1036691653
C   C225      1.0  0.54269  0.54172  0.72321  1.0000 0.1838162652
C   C226      1.0  0.06948  0.29269  0.50097  1.0000 0.1838162652
C   C227      1.0  0.79172  0.56851  0.49903  1.0000 0.1838162652
C   C228      1.0  0.81851  0.81948  0.27679  1.0000 0.1838162652
C   C229      1.0  0.70731  0.20828  0.77679  1.0000 0.1838162652
C   C230      1.0  0.18052  0.45731  0.99903  1.0000 0.1838162652
C   C231      1.0  0.45828  0.18149  0.00097  1.0000 0.1838162652
C   C232      1.0  0.43149  0.93052  0.22321  1.0000 0.1838162652
C   C233      1.0  0.51998  0.52261  0.74959  1.0000 -0.4798473497
C   C234      1.0  0.02039  0.26998  0.49737  1.0000 -0.4798473497
C   C235      1.0  0.77261  0.52302  0.50263  1.0000 -0.4798473497
C   C236      1.0  0.77302  0.77039  0.25041  1.0000 -0.4798473497
C   C237      1.0  0.73002  0.22739  0.75041  1.0000 -0.4798473497
C   C238      1.0  0.22961  0.48002  0.00263  1.0000 -0.4798473497
C   C239      1.0  0.47739  0.22698  0.99737  1.0000 -0.4798473497
C   C240      1.0  0.47698  0.97961  0.24959  1.0000 -0.4798473497
C   C241      1.0  0.73431  0.35754  0.91205  1.0000 -0.4995803268
C   C242      1.0  0.07226  0.48431  0.87677  1.0000 -0.4995803268
C   C243      1.0  0.60754  0.19549  0.12323  1.0000 -0.4995803268
C   C244      1.0  0.44549  0.82226  0.08795  1.0000 -0.4995803268
C   C245      1.0  0.51569  0.39246  0.58795  1.0000 -0.4995803268
C   C246      1.0  0.17774  0.26569  0.62323  1.0000 -0.4995803268
C   C247      1.0  0.64246  0.55451  0.37677  1.0000 -0.4995803268
C   C248      1.0  0.80451  0.92774  0.41205  1.0000 -0.4995803268
C   C249      1.0  0.70614  0.30963  0.92177  1.0000 0.1990913638
C   C250      1.0  0.03437  0.45614  0.89651  1.0000 0.1990913638
C   C251      1.0  0.55963  0.13786  0.10349  1.0000 0.1990913638
C   C252      1.0  0.38786  0.78437  0.07823  1.0000 0.1990913638
C   C253      1.0  0.54386  0.44037  0.57823  1.0000 0.1990913638
C   C254      1.0  0.21563  0.29386  0.60349  1.0000 0.1990913638
C   C255      1.0  0.69037  0.61214  0.39651  1.0000 0.1990913638
C   C256      1.0  0.86214  0.96563  0.42177  1.0000 0.1990913638
C   C257      1.0  0.70859  0.28171  0.91590  1.0000 -0.1199593417
C   C258      1.0  0.04269  0.45859  0.92688  1.0000 -0.1199593417
C   C259      1.0  0.53171  0.11581  0.07312  1.0000 -0.1199593417
C   C260      1.0  0.36581  0.79269  0.08410  1.0000 -0.1199593417
C   C261      1.0  0.54141  0.46829  0.58410  1.0000 -0.1199593417
C   C262      1.0  0.20731  0.29141  0.57312  1.0000 -0.1199593417
C   C263      1.0  0.71829  0.63419  0.42688  1.0000 -0.1199593417
C   C264      1.0  0.88419  0.95731  0.41590  1.0000 -0.1199593417
C   C265      1.0  0.67404  0.24120  0.93044  1.0000 0.19070493
C   C266      1.0  0.99360  0.42404  0.93284  1.0000 0.19070493
C   C267      1.0  0.49120  0.06076  0.06716  1.0000 0.19070493
C   C268      1.0  0.31076  0.74360  0.06956  1.0000 0.19070493
C   C269      1.0  0.57596  0.50880  0.56956  1.0000 0.19070493
C   C270      1.0  0.25640  0.32596  0.56716  1.0000 0.19070493
C   C271      1.0  0.75880  0.68924  0.43284  1.0000 0.19070493
C   C272      1.0  0.93924  0.00640  0.43044  1.0000 0.19070493
C   C273      1.0  0.65875  0.19749  0.93184  1.0000 -0.4909400032
C   C274      1.0  0.97691  0.40875  0.96126  1.0000 -0.4909400032
C   C275      1.0  0.44749  0.01565  0.03874  1.0000 -0.4909400032
C   C276      1.0  0.26565  0.72691  0.06816  1.0000 -0.4909400032
C   C277      1.0  0.59125  0.55251  0.56816  1.0000 -0.4909400032
C   C278      1.0  0.27309  0.34125  0.53874  1.0000 -0.4909400032
C   C279      1.0  0.80251  0.73435  0.46126  1.0000 -0.4909400032
C   C280      1.0  0.98435  0.02309  0.43184  1.0000 -0.4909400032
C   C281      1.0  0.80092  0.31223  0.94455  1.0000 -0.4798473497
C   C282      1.0  0.10637  0.55092  0.98869  1.0000 -0.4798473497
C   C283      1.0  0.56223  0.11768  0.01131  1.0000 -0.4798473497
C   C284      1.0  0.36768  0.85637  0.05545  1.0000 -0.4798473497
C   C285      1.0  0.44908  0.43777  0.55545  1.0000 -0.4798473497
C   C286      1.0  0.14363  0.19908  0.51131  1.0000 -0.4798473497
C   C287      1.0  0.68777  0.63232  0.48869  1.0000 -0.4798473497
C   C288      1.0  0.88232  0.89363  0.44455  1.0000 -0.4798473497
C   C289      1.0  0.78587  0.31083  0.91350  1.0000 0.1990913638
C   C290      1.0  0.12237  0.53587  0.97504  1.0000 0.1990913638
C   C291      1.0  0.56083  0.14733  0.02496  1.0000 0.1990913638
C   C292      1.0  0.39733  0.87237  0.08650  1.0000 0.1990913638
C   C293      1.0  0.46413  0.43917  0.58650  1.0000 0.1990913638
C   C294      1.0  0.12763  0.21413  0.52496  1.0000 0.1990913638
C   C295      1.0  0.68917  0.60267  0.47504  1.0000 0.1990913638
C   C296      1.0  0.85267  0.87763  0.41350  1.0000 0.1990913638
C   C297      1.0  0.74496  0.29611  0.90047  1.0000 -0.1199593417
C   C298      1.0  0.09449  0.49496  0.94885  1.0000 -0.1199593417
C   C299      1.0  0.54611  0.14564  0.05115  1.0000 -0.1199593417
C   C300      1.0  0.39564  0.84449  0.09953  1.0000 -0.1199593417
C   C301      1.0  0.50504  0.45389  0.59953  1.0000 -0.1199593417
C   C302      1.0  0.15551  0.25504  0.55115  1.0000 -0.1199593417
C   C303      1.0  0.70389  0.60436  0.44885  1.0000 -0.1199593417
C   C304      1.0  0.85436  0.90551  0.40047  1.0000 -0.1199593417
C   C305      1.0  0.75148  0.30467  0.87155  1.0000 0.2109161658
C   C306      1.0  0.12993  0.50148  0.94681  1.0000 0.2109161658
C   C307      1.0  0.55467  0.18312  0.05319  1.0000 0.2109161658
C   C308      1.0  0.43312  0.87993  0.12845  1.0000 0.2109161658
C   C309      1.0  0.49852  0.44533  0.62845  1.0000 0.2109161658
C   C310      1.0  0.12007  0.24852  0.55319  1.0000 0.2109161658
C   C311      1.0  0.69533  0.56688  0.44681  1.0000 0.2109161658
C   C312      1.0  0.81688  0.87007  0.37155  1.0000 0.2109161658
C   C313      1.0  0.71868  0.29456  0.84624  1.0000 -0.4995803268
C   C314      1.0  0.12244  0.46868  0.92412  1.0000 -0.4995803268
C   C315      1.0  0.54456  0.19832  0.07588  1.0000 -0.4995803268
C   C316      1.0  0.44832  0.87244  0.15376  1.0000 -0.4995803268
C   C317      1.0  0.53132  0.45544  0.65376  1.0000 -0.4995803268
C   C318      1.0  0.12756  0.28132  0.57588  1.0000 -0.4995803268
C   C319      1.0  0.70544  0.55168  0.42412  1.0000 -0.4995803268
C   C320      1.0  0.80168  0.87756  0.34624  1.0000 -0.4995803268
C   C321      1.0  0.61491  0.35475  0.05166  1.0000 -0.4705292228
C   C322      1.0  0.81325  0.36491  0.76016  1.0000 -0.4705292228
C   C323      1.0  0.60475  0.05309  0.23984  1.0000 -0.4705292228
C   C324      1.0  0.30309  0.56325  0.94834  1.0000 -0.4705292228
C   C325      1.0  0.63509  0.39525  0.44834  1.0000 -0.4705292228
C   C326      1.0  0.43675  0.38509  0.73984  1.0000 -0.4705292228
C   C327      1.0  0.64525  0.69691  0.26016  1.0000 -0.4705292228
C   C328      1.0  0.94691  0.18675  0.55166  1.0000 -0.4705292228
C   C329      1.0  0.63607  0.36393  0.02500  1.0000 0.1990913638
C   C330      1.0  0.86107  0.38607  0.77214  1.0000 0.1990913638
C   C331      1.0  0.61393  0.08893  0.22786  1.0000 0.1990913638
C   C332      1.0  0.33893  0.61107  0.97500  1.0000 0.1990913638
C   C333      1.0  0.61393  0.38607  0.47500  1.0000 0.1990913638
C   C334      1.0  0.38893  0.36393  0.72786  1.0000 0.1990913638
C   C335      1.0  0.63607  0.66107  0.27214  1.0000 0.1990913638
C   C336      1.0  0.91107  0.13893  0.52500  1.0000 0.1990913638
C   C337      1.0  0.66631  0.40541  0.01132  1.0000 -0.1268404795
C   C338      1.0  0.90499  0.41631  0.76090  1.0000 -0.1268404795
C   C339      1.0  0.65541  0.14409  0.23910  1.0000 -0.1268404795
C   C340      1.0  0.39409  0.65499  0.98868  1.0000 -0.1268404795
C   C341      1.0  0.58369  0.34459  0.48868  1.0000 -0.1268404795
C   C342      1.0  0.34501  0.33369  0.73910  1.0000 -0.1268404795
C   C343      1.0  0.59459  0.60591  0.26090  1.0000 -0.1268404795
C   C344      1.0  0.85591  0.09501  0.51132  1.0000 -0.1268404795
C   C345      1.0  0.67860  0.39634  0.98914  1.0000 0.19070493
C   C346      1.0  0.93946  0.42860  0.78226  1.0000 0.19070493
C   C347      1.0  0.64634  0.15720  0.21774  1.0000 0.19070493
C   C348      1.0  0.40720  0.68946  0.01086  1.0000 0.19070493
C   C349      1.0  0.57140  0.35366  0.51086  1.0000 0.19070493
C   C350      1.0  0.31054  0.32140  0.71774  1.0000 0.19070493
C   C351      1.0  0.60366  0.59280  0.28226  1.0000 0.19070493
C   C352      1.0  0.84280  0.06054  0.48914  1.0000 0.19070493
C   C353      1.0  0.70997  0.42723  0.96720  1.0000 -0.5063995156
C   C354      1.0  0.99277  0.45997  0.78274  1.0000 -0.5063995156
C   C355      1.0  0.67723  0.21003  0.21726  1.0000 -0.5063995156
C   C356      1.0  0.46003  0.74277  0.03280  1.0000 -0.5063995156
C   C357      1.0  0.54003  0.32277  0.53280  1.0000 -0.5063995156
C   C358      1.0  0.25723  0.29003  0.71726  1.0000 -0.5063995156
C   C359      1.0  0.57277  0.53997  0.28274  1.0000 -0.5063995156
C   C360      1.0  0.78997  0.00723  0.46720  1.0000 -0.5063995156
C   C361      1.0  0.13655  0.61745  0.84440  1.0000 -0.4909400032
C   C362      1.0  0.54215  0.88655  0.01910  1.0000 -0.4909400032
C   C363      1.0  0.86745  0.52305  0.98090  1.0000 -0.4909400032
C   C364      1.0  0.77305  0.29215  0.15560  1.0000 -0.4909400032
C   C365      1.0  0.11345  0.13255  0.65560  1.0000 -0.4909400032
C   C366      1.0  0.70785  0.86345  0.48090  1.0000 -0.4909400032
C   C367      1.0  0.38255  0.22695  0.51910  1.0000 -0.4909400032
C   C368      1.0  0.47695  0.45785  0.34440  1.0000 -0.4909400032
C   C369      1.0  0.18480  0.67019  0.86919  1.0000 0.1990913638
C   C370      1.0  0.56561  0.93480  0.01461  1.0000 0.1990913638
C   C371      1.0  0.92019  0.55100  0.98539  1.0000 0.1990913638
C   C372      1.0  0.80100  0.31561  0.13081  1.0000 0.1990913638
C   C373      1.0  0.06520  0.07981  0.63081  1.0000 0.1990913638
C   C374      1.0  0.68439  0.81520  0.48539  1.0000 0.1990913638
C   C375      1.0  0.32981  0.19900  0.51461  1.0000 0.1990913638
C   C376      1.0  0.44900  0.43439  0.36919  1.0000 0.1990913638
C   C377      1.0  0.18975  0.69995  0.88910  1.0000 -0.1109580563
C   C378      1.0  0.55065  0.93975  0.98980  1.0000 -0.1109580563
C   C379      1.0  0.94995  0.56085  0.01020  1.0000 -0.1109580563
C   C380      1.0  0.81085  0.30065  0.11090  1.0000 -0.1109580563
C   C381      1.0  0.06025  0.05005  0.61090  1.0000 -0.1109580563
C   C382      1.0  0.69935  0.81025  0.51020  1.0000 -0.1109580563
C   C383      1.0  0.30005  0.18915  0.48980  1.0000 -0.1109580563
C   C384      1.0  0.43915  0.44935  0.38910  1.0000 -0.1109580563
C   C385      1.0  0.24423  0.74549  0.90692  1.0000 0.19070493
C   C386      1.0  0.58731  0.99423  0.99874  1.0000 0.19070493
C   C387      1.0  0.99549  0.58857  0.00126  1.0000 0.19070493
C   C388      1.0  0.83857  0.33731  0.09308  1.0000 0.19070493
C   C389      1.0  0.00577  0.00451  0.59308  1.0000 0.19070493
C   C390      1.0  0.66269  0.75577  0.50126  1.0000 0.19070493
C   C391      1.0  0.25451  0.16143  0.49874  1.0000 0.19070493
C   C392      1.0  0.41143  0.41269  0.40692  1.0000 0.19070493
C   C393      1.0  0.27452  0.79275  0.93147  1.0000 -0.4909400032
C   C394      1.0  0.59305  0.02452  0.98177  1.0000 -0.4909400032
C   C395      1.0  0.04275  0.61128  0.01823  1.0000 -0.4909400032
C   C396      1.0  0.86128  0.34305  0.06853  1.0000 -0.4909400032
C   C397      1.0  0.97548  0.95725  0.56853  1.0000 -0.4909400032
C   C398      1.0  0.65695  0.72548  0.51823  1.0000 -0.4909400032
C   C399      1.0  0.20725  0.13872  0.48177  1.0000 -0.4909400032
C   C400      1.0  0.38872  0.40695  0.43147  1.0000 -0.4909400032
C   C401      1.0  0.15021  0.67702  0.94963  1.0000 -0.4909400032
C   C402      1.0  0.45058  0.90021  0.97319  1.0000 -0.4909400032
C   C403      1.0  0.92702  0.47739  0.02681  1.0000 -0.4909400032
C   C404      1.0  0.72739  0.20058  0.05037  1.0000 -0.4909400032
C   C405      1.0  0.09979  0.07298  0.55037  1.0000 -0.4909400032
C   C406      1.0  0.79942  0.84979  0.52681  1.0000 -0.4909400032
C   C407      1.0  0.32298  0.27261  0.47319  1.0000 -0.4909400032
C   C408      1.0  0.52261  0.54942  0.44963  1.0000 -0.4909400032
C   C409      1.0  0.12981  0.67348  0.92029  1.0000 0.1990913638
C   C410      1.0  0.45952  0.87981  0.95633  1.0000 0.1990913638
C   C411      1.0  0.92348  0.50319  0.04367  1.0000 0.1990913638
C   C412      1.0  0.75319  0.20952  0.07971  1.0000 0.1990913638
C   C413      1.0  0.12019  0.07652  0.57971  1.0000 0.1990913638
C   C414      1.0  0.79048  0.87019  0.54367  1.0000 0.1990913638
C   C415      1.0  0.32652  0.24681  0.45633  1.0000 0.1990913638
C   C416      1.0  0.49681  0.54048  0.42029  1.0000 0.1990913638
C   C417      1.0  0.14693  0.68387  0.89360  1.0000 -0.1199593417
C   C418      1.0  0.50333  0.89693  0.96306  1.0000 -0.1199593417
C   C419      1.0  0.93387  0.54027  0.03694  1.0000 -0.1199593417
C   C420      1.0  0.79027  0.25333  0.10640  1.0000 -0.1199593417
C   C421      1.0  0.10307  0.06613  0.60640  1.0000 -0.1199593417
C   C422      1.0  0.74667  0.85307  0.53694  1.0000 -0.1199593417
C   C423      1.0  0.31613  0.20973  0.46306  1.0000 -0.1199593417
C   C424      1.0  0.45973  0.49667  0.39360  1.0000 -0.1199593417
C   C425      1.0  0.11115  0.67096  0.87291  1.0000 0.1990913638
C   C426      1.0  0.48824  0.86115  0.94019  1.0000 0.1990913638
C   C427      1.0  0.92096  0.54805  0.05981  1.0000 0.1990913638
C   C428      1.0  0.79805  0.23824  0.12709  1.0000 0.1990913638
C   C429      1.0  0.13885  0.07904  0.62709  1.0000 0.1990913638
C   C430      1.0  0.76176  0.88885  0.55981  1.0000 0.1990913638
C   C431      1.0  0.32904  0.20195  0.44019  1.0000 0.1990913638
C   C432      1.0  0.45195  0.51176  0.37291  1.0000 0.1990913638
C   C433      1.0  0.10939  0.67396  0.84075  1.0000 -0.4995803268
C   C434      1.0  0.51864  0.85939  0.93543  1.0000 -0.4995803268
C   C435      1.0  0.92396  0.58321  0.06457  1.0000 -0.4995803268
C   C436      1.0  0.83321  0.26864  0.15925  1.0000 -0.4995803268
C   C437      1.0  0.14061  0.07604  0.65925  1.0000 -0.4995803268
C   C438      1.0  0.73136  0.89061  0.56457  1.0000 -0.4995803268
C   C439      1.0  0.32604  0.16679  0.43543  1.0000 -0.4995803268
C   C440      1.0  0.41679  0.48136  0.34075  1.0000 -0.4995803268
C   C441      1.0  0.37116  0.67162  0.84618  1.0000 -0.4798473497
C   C442      1.0  0.77498  0.12116  0.19954  1.0000 -0.4798473497
C   C443      1.0  0.92162  0.57544  0.80046  1.0000 -0.4798473497
C   C444      1.0  0.82544  0.52498  0.15382  1.0000 -0.4798473497
C   C445      1.0  0.87884  0.07838  0.65382  1.0000 -0.4798473497
C   C446      1.0  0.47502  0.62884  0.30046  1.0000 -0.4798473497
C   C447      1.0  0.32838  0.17456  0.69954  1.0000 -0.4798473497
C   C448      1.0  0.42456  0.22502  0.34618  1.0000 -0.4798473497
C   C449      1.0  0.32179  0.64945  0.84044  1.0000 0.1990913638
C   C450      1.0  0.73135  0.07179  0.17234  1.0000 0.1990913638
C   C451      1.0  0.89945  0.55901  0.82766  1.0000 0.1990913638
C   C452      1.0  0.80901  0.48135  0.15956  1.0000 0.1990913638
C   C453      1.0  0.92821  0.10055  0.65956  1.0000 0.1990913638
C   C454      1.0  0.51865  0.67821  0.32766  1.0000 0.1990913638
C   C455      1.0  0.35055  0.19099  0.67234  1.0000 0.1990913638
C   C456      1.0  0.44099  0.26865  0.34044  1.0000 0.1990913638
C   C457      1.0  0.26921  0.59897  0.82278  1.0000 -0.1199593417
C   C458      1.0  0.69643  0.01921  0.17024  1.0000 -0.1199593417
C   C459      1.0  0.84897  0.52619  0.82976  1.0000 -0.1199593417
C   C460      1.0  0.77619  0.44643  0.17722  1.0000 -0.1199593417
C   C461      1.0  0.98079  0.15103  0.67722  1.0000 -0.1199593417
C   C462      1.0  0.55357  0.73079  0.32976  1.0000 -0.1199593417
C   C463      1.0  0.40103  0.22381  0.67024  1.0000 -0.1199593417
C   C464      1.0  0.47381  0.30357  0.32278  1.0000 -0.1199593417
C   C465      1.0  0.24122  0.60157  0.82619  1.0000 0.19070493
C   C466      1.0  0.66503  0.99122  0.13965  1.0000 0.19070493
C   C467      1.0  0.85157  0.52538  0.86035  1.0000 0.19070493
C   C468      1.0  0.77538  0.41503  0.17381  1.0000 0.19070493
C   C469      1.0  0.00878  0.14843  0.67381  1.0000 0.19070493
C   C470      1.0  0.58497  0.75878  0.36035  1.0000 0.19070493
C   C471      1.0  0.39843  0.22462  0.63965  1.0000 0.19070493
C   C472      1.0  0.47462  0.33497  0.32619  1.0000 0.19070493
C   C473      1.0  0.18261  0.55953  0.81314  1.0000 -0.4995803268
C   C474      1.0  0.61947  0.93261  0.12308  1.0000 -0.4995803268
C   C475      1.0  0.80953  0.49639  0.87692  1.0000 -0.4995803268
C   C476      1.0  0.74639  0.36947  0.18686  1.0000 -0.4995803268
C   C477      1.0  0.06739  0.19047  0.68686  1.0000 -0.4995803268
C   C478      1.0  0.63053  0.81739  0.37692  1.0000 -0.4995803268
C   C479      1.0  0.44047  0.25361  0.62308  1.0000 -0.4995803268
C   C480      1.0  0.50361  0.38053  0.31314  1.0000 -0.4995803268
C   C481      1.0  0.31452  0.17619  0.28151  1.0000 -0.4995803268
C   C482      1.0  0.28301  0.06452  0.63833  1.0000 -0.4995803268
C   C483      1.0  0.42619  0.64468  0.36167  1.0000 -0.4995803268
C   C484      1.0  0.89468  0.03301  0.71849  1.0000 -0.4995803268
C   C485      1.0  0.93548  0.57381  0.21849  1.0000 -0.4995803268
C   C486      1.0  0.96699  0.68548  0.86167  1.0000 -0.4995803268
C   C487      1.0  0.82381  0.10532  0.13833  1.0000 -0.4995803268
C   C488      1.0  0.35532  0.71699  0.78151  1.0000 -0.4995803268
C   C489      1.0  0.28833  0.16319  0.30592  1.0000 0.19070493
C   C490      1.0  0.23241  0.03833  0.62514  1.0000 0.19070493
C   C491      1.0  0.41319  0.60727  0.37486  1.0000 0.19070493
C   C492      1.0  0.85727  0.98241  0.69408  1.0000 0.19070493
C   C493      1.0  0.96167  0.58681  0.19408  1.0000 0.19070493
C   C494      1.0  0.01759  0.71167  0.87486  1.0000 0.19070493
C   C495      1.0  0.83681  0.14273  0.12514  1.0000 0.19070493
C   C496      1.0  0.39273  0.76759  0.80592  1.0000 0.19070493
C   C497      1.0  0.25162  0.11742  0.31644  1.0000 -0.1109580563
C   C498      1.0  0.18518  0.00162  0.63420  1.0000 -0.1109580563
C   C499      1.0  0.36742  0.55098  0.36580  1.0000 -0.1109580563
C   C500      1.0  0.80098  0.93518  0.68356  1.0000 -0.1109580563
C   C501      1.0  0.99838  0.63258  0.18356  1.0000 -0.1109580563
C   C502      1.0  0.06482  0.74838  0.86580  1.0000 -0.1109580563
C   C503      1.0  0.88258  0.19902  0.13420  1.0000 -0.1109580563
C   C504      1.0  0.44902  0.81482  0.81644  1.0000 -0.1109580563
C   C505      1.0  0.24256  0.12816  0.34072  1.0000 0.1990913638
C   C506      1.0  0.15184  0.99256  0.61440  1.0000 0.1990913638
C   C507      1.0  0.37816  0.53744  0.38560  1.0000 0.1990913638
C   C508      1.0  0.78744  0.90184  0.65928  1.0000 0.1990913638
C   C509      1.0  0.00744  0.62184  0.15928  1.0000 0.1990913638
C   C510      1.0  0.09816  0.75744  0.88560  1.0000 0.1990913638
C   C511      1.0  0.87184  0.21256  0.11440  1.0000 0.1990913638
C   C512      1.0  0.46256  0.84816  0.84072  1.0000 0.1990913638
C   C513      1.0  0.20714  0.09406  0.36080  1.0000 -0.4798473497
C   C514      1.0  0.09634  0.95714  0.61308  1.0000 -0.4798473497
C   C515      1.0  0.34406  0.48326  0.38692  1.0000 -0.4798473497
C   C516      1.0  0.73326  0.84634  0.63920  1.0000 -0.4798473497
C   C517      1.0  0.04286  0.65594  0.13920  1.0000 -0.4798473497
C   C518      1.0  0.15366  0.79286  0.88692  1.0000 -0.4798473497
C   C519      1.0  0.90594  0.26674  0.11308  1.0000 -0.4798473497
C   C520      1.0  0.51674  0.90366  0.86080  1.0000 -0.4798473497
C   C521      1.0  0.19691  0.18321  0.41292  1.0000 -0.4909400032
C   C522      1.0  0.03399  0.94691  0.51370  1.0000 -0.4995803268
C   C523      1.0  0.43321  0.52029  0.48630  1.0000 -0.4909400032
C   C524      1.0  0.77029  0.78399  0.58708  1.0000 -0.4995803268
C   C525      1.0  0.05309  0.56679  0.08708  1.0000 -0.4995803268
C   C526      1.0  0.21601  0.80309  0.98630  1.0000 -0.4909400032
C   C527      1.0  0.81679  0.22971  0.01370  1.0000 -0.4995803268
C   C528      1.0  0.47971  0.96601  0.91292  1.0000 -0.4995803268
C   C529      1.0  0.22039  0.22554  0.39833  1.0000 0.19070493
C   C530      1.0  0.07206  0.97039  0.49485  1.0000 0.19070493
C   C531      1.0  0.47554  0.57721  0.50515  1.0000 0.19070493
C   C532      1.0  0.82721  0.82206  0.60167  1.0000 0.19070493
C   C533      1.0  0.02961  0.52446  0.10167  1.0000 0.19070493
C   C534      1.0  0.17794  0.77961  0.00515  1.0000 0.19070493
C   C535      1.0  0.77446  0.17279  0.99485  1.0000 0.19070493
C   C536      1.0  0.42279  0.92794  0.89833  1.0000 0.19070493
C   C537      1.0  0.21320  0.24998  0.39998  1.0000 -0.1036691653
C   C538      1.0  0.06322  0.96320  0.46322  1.0000 -0.1036691653
C   C539      1.0  0.49998  0.60000  0.53678  1.0000 -0.1036691653
C   C540      1.0  0.85000  0.81322  0.60002  1.0000 -0.1036691653
C   C541      1.0  0.03680  0.50002  0.10002  1.0000 -0.1036691653
C   C542      1.0  0.18678  0.78680  0.03678  1.0000 -0.1036691653
C   C543      1.0  0.75002  0.15000  0.96322  1.0000 -0.1036691653
C   C544      1.0  0.40000  0.93678  0.89998  1.0000 -0.1036691653
C   C545      1.0  0.24570  0.28680  0.38290  1.0000 0.1990913638
C   C546      1.0  0.11280  0.99570  0.45890  1.0000 0.1990913638
C   C547      1.0  0.53680  0.65390  0.54110  1.0000 0.1990913638
C   C548      1.0  0.90390  0.86280  0.61710  1.0000 0.1990913638
C   C549      1.0  0.00430  0.46320  0.11710  1.0000 0.1990913638
C   C550      1.0  0.13720  0.75430  0.04110  1.0000 0.1990913638
C   C551      1.0  0.71320  0.09610  0.95890  1.0000 0.1990913638
C   C552      1.0  0.34610  0.88720  0.88290  1.0000 0.1990913638
C   C553      1.0  0.25491  0.32541  0.37632  1.0000 -0.4798473497
C   C554      1.0  0.12859  0.00491  0.42950  1.0000 -0.4798473497
C   C555      1.0  0.57541  0.69909  0.57050  1.0000 -0.4798473497
C   C556      1.0  0.94909  0.87859  0.62368  1.0000 -0.4798473497
C   C557      1.0  0.99509  0.42459  0.12368  1.0000 -0.4798473497
C   C558      1.0  0.12141  0.74509  0.07050  1.0000 -0.4798473497
C   C559      1.0  0.67459  0.05091  0.92950  1.0000 -0.4798473497
C   C560      1.0  0.30091  0.87141  0.87632  1.0000 -0.4798473497
C   C561      1.0  0.32011  0.36266  0.27397  1.0000 -0.4995803268
C   C562      1.0  0.29614  0.07011  0.45745  1.0000 -0.4995803268
C   C563      1.0  0.61266  0.83869  0.54255  1.0000 -0.4995803268
C   C564      1.0  0.08869  0.04614  0.72603  1.0000 -0.4995803268
C   C565      1.0  0.92989  0.38734  0.22603  1.0000 -0.4995803268
C   C566      1.0  0.95386  0.67989  0.04255  1.0000 -0.4995803268
C   C567      1.0  0.63734  0.91131  0.95745  1.0000 -0.4995803268
C   C568      1.0  0.16131  0.70386  0.77397  1.0000 -0.4995803268
C   C569      1.0  0.33583  0.34489  0.27492  1.0000 0.19070493
C   C570      1.0  0.31091  0.08583  0.49094  1.0000 0.19070493
C   C571      1.0  0.59489  0.81997  0.50906  1.0000 0.19070493
C   C572      1.0  0.06997  0.06091  0.72508  1.0000 0.19070493
C   C573      1.0  0.91417  0.40511  0.22508  1.0000 0.19070493
C   C574      1.0  0.93909  0.66417  0.00906  1.0000 0.19070493
C   C575      1.0  0.65511  0.93003  0.99094  1.0000 0.19070493
C   C576      1.0  0.18003  0.68909  0.77492  1.0000 0.19070493
C   C577      1.0  0.34950  0.33720  0.25210  1.0000 -0.1199593417
C   C578      1.0  0.34740  0.09950  0.51230  1.0000 -0.1199593417
C   C579      1.0  0.58720  0.83510  0.48770  1.0000 -0.1199593417
C   C580      1.0  0.08510  0.09740  0.74790  1.0000 -0.1199593417
C   C581      1.0  0.90050  0.41280  0.24790  1.0000 -0.1199593417
C   C582      1.0  0.90260  0.65050  0.98770  1.0000 -0.1199593417
C   C583      1.0  0.66280  0.91490  0.01230  1.0000 -0.1199593417
C   C584      1.0  0.16490  0.65260  0.75210  1.0000 -0.1199593417
C   C585      1.0  0.36086  0.32032  0.26458  1.0000 0.19070493
C   C586      1.0  0.34628  0.11086  0.54054  1.0000 0.19070493
C   C587      1.0  0.57032  0.80574  0.45946  1.0000 0.19070493
C   C588      1.0  0.05574  0.09628  0.73542  1.0000 0.19070493
C   C589      1.0  0.88914  0.42968  0.23542  1.0000 0.19070493
C   C590      1.0  0.90372  0.63914  0.95946  1.0000 0.19070493
C   C591      1.0  0.67968  0.94426  0.04054  1.0000 0.19070493
C   C592      1.0  0.19426  0.65372  0.76458  1.0000 0.1838162652
C   C593      1.0  0.37605  0.30409  0.25094  1.0000 -0.4909400032
C   C594      1.0  0.37511  0.12605  0.57196  1.0000 -0.4909400032
C   C595      1.0  0.55409  0.80315  0.42804  1.0000 -0.4909400032
C   C596      1.0  0.05315  0.12511  0.74906  1.0000 -0.4909400032
C   C597      1.0  0.87395  0.44591  0.24906  1.0000 -0.4909400032
C   C598      1.0  0.87489  0.62395  0.92804  1.0000 -0.4909400032
C   C599      1.0  0.69591  0.94685  0.07196  1.0000 -0.4909400032
C   C600      1.0  0.19685  0.62489  0.75094  1.0000 -0.4909400032
C   C601      1.0  0.79856  0.84294  0.84990  1.0000 -0.4995803268
C   C602      1.0  0.19866  0.54856  0.45562  1.0000 -0.4995803268
C   C603      1.0  0.09294  0.74304  0.54438  1.0000 -0.4995803268
C   C604      1.0  0.99304  0.94866  0.15010  1.0000 -0.4995803268
C   C605      1.0  0.45144  0.90706  0.65010  1.0000 -0.4995803268
C   C606      1.0  0.05134  0.20144  0.04438  1.0000 -0.4995803268
C   C607      1.0  0.15706  0.00696  0.95562  1.0000 -0.4995803268
C   C608      1.0  0.25696  0.80134  0.34990  1.0000 -0.4995803268
C   C609      1.0  0.84571  0.86252  0.85563  1.0000 0.19070493
C   C610      1.0  0.24008  0.59571  0.48319  1.0000 0.19070493
C   C611      1.0  0.11252  0.75689  0.51681  1.0000 0.19070493
C   C612      1.0  0.00689  0.99008  0.14437  1.0000 0.19070493
C   C613      1.0  0.40429  0.88748  0.64437  1.0000 0.19070493
C   C614      1.0  0.00992  0.15429  0.01681  1.0000 0.19070493
C   C615      1.0  0.13748  0.99311  0.98319  1.0000 0.19070493
C   C616      1.0  0.24311  0.75992  0.35563  1.0000 0.19070493
C   C617      1.0  0.90043  0.91456  0.86979  1.0000 -0.1109580563
C   C618      1.0  0.28064  0.65043  0.48587  1.0000 -0.1109580563
C   C619      1.0  0.16456  0.79477  0.51413  1.0000 -0.1109580563
C   C620      1.0  0.04477  0.03064  0.13021  1.0000 -0.1109580563
C   C621      1.0  0.34957  0.83544  0.63021  1.0000 -0.1109580563
C   C622      1.0  0.96936  0.09957  0.01413  1.0000 -0.1109580563
C   C623      1.0  0.08544  0.95523  0.98587  1.0000 -0.1109580563
C   C624      1.0  0.20523  0.71936  0.36979  1.0000 -0.1109580563
C   C625      1.0  0.92683  0.90981  0.87044  1.0000 0.19070493
C   C626      1.0  0.30639  0.67683  0.51702  1.0000 0.19070493
C   C627      1.0  0.15981  0.78937  0.48298  1.0000 0.19070493
C   C628      1.0  0.03937  0.05639  0.12956  1.0000 0.19070493
C   C629      1.0  0.32317  0.84019  0.62956  1.0000 0.19070493
C   C630      1.0  0.94361  0.07317  0.98298  1.0000 0.19070493
C   C631      1.0  0.09019  0.96063  0.01702  1.0000 0.19070493
C   C632      1.0  0.21063  0.69361  0.37044  1.0000 0.19070493
C   C633      1.0  0.98586  0.95192  0.88218  1.0000 -0.4798473497
C   C634      1.0  0.35368  0.73586  0.53394  1.0000 -0.4798473497
C   C635      1.0  0.20192  0.81974  0.46606  1.0000 -0.4798473497
C   C636      1.0  0.06974  0.10368  0.11782  1.0000 -0.4798473497
C   C637      1.0  0.26414  0.79808  0.61782  1.0000 -0.4798473497
C   C638      1.0  0.89632  0.01414  0.96606  1.0000 -0.4798473497
C   C639      1.0  0.04808  0.93026  0.03394  1.0000 -0.4798473497
C   C640      1.0  0.18026  0.64632  0.38218  1.0000 -0.4798473497
C   C641      1.0  0.00934  0.87285  0.84059  1.0000 -0.4909400032
C   C642      1.0  0.41875  0.75934  0.63649  1.0000 -0.4909400032
C   C643      1.0  0.12285  0.78226  0.36351  1.0000 -0.4909400032
C   C644      1.0  0.03226  0.16875  0.15941  1.0000 -0.4909400032
C   C645      1.0  0.24066  0.87715  0.65941  1.0000 -0.4909400032
C   C646      1.0  0.83125  0.99066  0.86351  1.0000 -0.4909400032
C   C647      1.0  0.12715  0.96774  0.13649  1.0000 -0.4909400032
C   C648      1.0  0.21774  0.58125  0.34059  1.0000 -0.4909400032
C   C649      1.0  0.95620  0.81767  0.81847  1.0000 0.19070493
C   C650      1.0  0.38773  0.70620  0.63853  1.0000 0.19070493
C   C651      1.0  0.06767  0.74920  0.36147  1.0000 0.19070493
C   C652      1.0  0.99920  0.13773  0.18153  1.0000 0.19070493
C   C653      1.0  0.29380  0.93233  0.68153  1.0000 0.19070493
C   C654      1.0  0.86227  0.04380  0.86147  1.0000 0.19070493
C   C655      1.0  0.18233  0.00080  0.13853  1.0000 0.19070493
C   C656      1.0  0.25080  0.61227  0.31847  1.0000 0.19070493
C   C657      1.0  0.94665  0.78849  0.79414  1.0000 -0.1199593417
C   C658      1.0  0.40251  0.69665  0.65816  1.0000 -0.1199593417
C   C659      1.0  0.03849  0.74435  0.34184  1.0000 -0.1199593417
C   C660      1.0  0.99435  0.15251  0.20586  1.0000 -0.1199593417
C   C661      1.0  0.30335  0.96151  0.70586  1.0000 -0.1199593417
C   C662      1.0  0.84749  0.05335  0.84184  1.0000 -0.1199593417
C   C663      1.0  0.21151  0.00565  0.15816  1.0000 -0.1199593417
C   C664      1.0  0.25565  0.59749  0.29414  1.0000 -0.1199593417
C   C665      1.0  0.89006  0.73990  0.78256  1.0000 0.2109161658
C   C666      1.0  0.35750  0.64006  0.65016  1.0000 0.2109161658
C   C667      1.0  0.98990  0.70734  0.34984  1.0000 0.2109161658
C   C668      1.0  0.95734  0.10750  0.21744  1.0000 0.2109161658
C   C669      1.0  0.35994  0.01010  0.71744  1.0000 0.2109161658
C   C670      1.0  0.89250  0.10994  0.84984  1.0000 0.2109161658
C   C671      1.0  0.26010  0.04266  0.15016  1.0000 0.2109161658
C   C672      1.0  0.29266  0.64250  0.28256  1.0000 0.2109161658
C   C673      1.0  0.85506  0.69109  0.75695  1.0000 -0.4798473497
C   C674      1.0  0.34811  0.60506  0.66397  1.0000 -0.4798473497
C   C675      1.0  0.94109  0.68414  0.33603  1.0000 -0.4798473497
C   C676      1.0  0.93414  0.09811  0.24305  1.0000 -0.4798473497
C   C677      1.0  0.39494  0.05891  0.74305  1.0000 -0.4798473497
C   C678      1.0  0.90189  0.14494  0.83603  1.0000 -0.4798473497
C   C679      1.0  0.30891  0.06586  0.16397  1.0000 -0.4798473497
C   C680      1.0  0.31586  0.65189  0.25695  1.0000 -0.4798473497
C   C681      1.0  0.67004  0.58302  0.72766  1.0000 -0.4995803268
C   C682      1.0  0.19238  0.42004  0.58702  1.0000 -0.4995803268
C   C683      1.0  0.83302  0.60536  0.41298  1.0000 -0.4995803268
C   C684      1.0  0.85536  0.94238  0.27234  1.0000 -0.4995803268
C   C685      1.0  0.57996  0.16698  0.77234  1.0000 -0.4995803268
C   C686      1.0  0.05762  0.32996  0.91298  1.0000 -0.4995803268
C   C687      1.0  0.41698  0.14464  0.08702  1.0000 -0.4995803268
C   C688      1.0  0.39464  0.80762  0.22766  1.0000 -0.4995803268
C   C689      1.0  0.67550  0.61447  0.74877  1.0000 0.19070493
C   C690      1.0  0.17673  0.42550  0.56103  1.0000 0.19070493
C   C691      1.0  0.86447  0.61570  0.43897  1.0000 0.19070493
C   C692      1.0  0.86570  0.92673  0.25123  1.0000 0.19070493
C   C693      1.0  0.57450  0.13553  0.75123  1.0000 0.19070493
C   C694      1.0  0.07327  0.32450  0.93897  1.0000 0.19070493
C   C695      1.0  0.38553  0.13430  0.06103  1.0000 0.19070493
C   C696      1.0  0.38430  0.82327  0.24877  1.0000 0.19070493
C   C697      1.0  0.64266  0.61176  0.74642  1.0000 -0.1199593417
C   C698      1.0  0.14624  0.39266  0.53090  1.0000 -0.1199593417
C   C699      1.0  0.86176  0.61534  0.46910  1.0000 -0.1199593417
C   C700      1.0  0.86534  0.89624  0.25358  1.0000 -0.1199593417
C   C701      1.0  0.60734  0.13824  0.75358  1.0000 -0.1199593417
C   C702      1.0  0.10376  0.35734  0.96910  1.0000 -0.1199593417
C   C703      1.0  0.38824  0.13466  0.03090  1.0000 -0.1199593417
C   C704      1.0  0.38466  0.85376  0.24642  1.0000 -0.1199593417
C   C705      1.0  0.66527  0.64890  0.77277  1.0000 0.19070493
C   C706      1.0  0.14250  0.41527  0.51637  1.0000 0.19070493
C   C707      1.0  0.89890  0.62613  0.48363  1.0000 0.19070493
C   C708      1.0  0.87613  0.89250  0.22723  1.0000 0.19070493
C   C709      1.0  0.58473  0.10110  0.72723  1.0000 0.19070493
C   C710      1.0  0.10750  0.33473  0.98363  1.0000 0.19070493
C   C711      1.0  0.35110  0.12387  0.01637  1.0000 0.19070493
C   C712      1.0  0.37387  0.85750  0.27277  1.0000 0.19070493
C   C713      1.0  0.64739  0.66366  0.78285  1.0000 -0.4705292228
C   C714      1.0  0.11454  0.39739  0.48373  1.0000 -0.4705292228
C   C715      1.0  0.91366  0.63081  0.51627  1.0000 -0.4705292228
C   C716      1.0  0.88081  0.86454  0.21715  1.0000 -0.4705292228
C   C717      1.0  0.60261  0.08634  0.71715  1.0000 -0.4705292228
C   C718      1.0  0.13546  0.35261  0.01627  1.0000 -0.4705292228
C   C719      1.0  0.33634  0.11919  0.98373  1.0000 -0.4705292228
C   C720      1.0  0.36919  0.88546  0.28285  1.0000 -0.4705292228
C   C721      1.0  0.89561  0.96761  0.83122  1.0000 -0.4798473497
C   C722      1.0  0.31439  0.64561  0.42800  1.0000 -0.4798473497
C   C723      1.0  0.21761  0.88639  0.57200  1.0000 -0.4798473497
C   C724      1.0  0.13639  0.06439  0.16878  1.0000 -0.4798473497
C   C725      1.0  0.35439  0.78239  0.66878  1.0000 -0.4798473497
C   C726      1.0  0.93561  0.10439  0.07200  1.0000 -0.4798473497
C   C727      1.0  0.03239  0.86361  0.92800  1.0000 -0.4798473497
C   C728      1.0  0.11361  0.68561  0.33122  1.0000 -0.4798473497
C   C729      1.0  0.92264  0.98660  0.86404  1.0000 0.1990913638
C   C730      1.0  0.30860  0.67264  0.43604  1.0000 0.1990913638
C   C731      1.0  0.23660  0.87256  0.56396  1.0000 0.1990913638
C   C732      1.0  0.12256  0.05860  0.13596  1.0000 0.1990913638
C   C733      1.0  0.32736  0.76340  0.63596  1.0000 0.1990913638
C   C734      1.0  0.94140  0.07736  0.06396  1.0000 0.1990913638
C   C735      1.0  0.01340  0.87744  0.93604  1.0000 0.1990913638
C   C736      1.0  0.12744  0.69140  0.36404  1.0000 0.1990913638
C   C737      1.0  0.92562  0.96496  0.88118  1.0000 -0.1199593417
C   C738      1.0  0.29444  0.67562  0.46066  1.0000 -0.1199593417
C   C739      1.0  0.21496  0.83378  0.53934  1.0000 -0.1199593417
C   C740      1.0  0.08378  0.04444  0.11882  1.0000 -0.1199593417
C   C741      1.0  0.32438  0.78504  0.61882  1.0000 -0.1199593417
C   C742      1.0  0.95556  0.07438  0.03934  1.0000 -0.1199593417
C   C743      1.0  0.03504  0.91622  0.96066  1.0000 -0.1199593417
C   C744      1.0  0.16622  0.70556  0.38118  1.0000 -0.1199593417
C   C745      1.0  0.95621  0.99991  0.91032  1.0000 0.19070493
C   C746      1.0  0.29589  0.70621  0.45630  1.0000 0.19070493
C   C747      1.0  0.24991  0.83959  0.54370  1.0000 0.19070493
C   C748      1.0  0.08959  0.04589  0.08968  1.0000 0.19070493
C   C749      1.0  0.29379  0.75009  0.58968  1.0000 0.19070493
C   C750      1.0  0.95411  0.04379  0.04370  1.0000 0.19070493
C   C751      1.0  0.00009  0.91041  0.95630  1.0000 0.19070493
C   C752      1.0  0.16041  0.70411  0.41032  1.0000 0.19070493
C   C753      1.0  0.97353  0.99789  0.93862  1.0000 -0.4995803268
C   C754      1.0  0.28491  0.72353  0.47564  1.0000 -0.4995803268
C   C755      1.0  0.24789  0.80927  0.52436  1.0000 -0.4995803268
C   C756      1.0  0.05927  0.03491  0.06138  1.0000 -0.4995803268
C   C757      1.0  0.27647  0.75211  0.56138  1.0000 -0.4995803268
C   C758      1.0  0.96509  0.02647  0.02436  1.0000 -0.4995803268
C   C759      1.0  0.00211  0.94073  0.97564  1.0000 -0.4995803268
C   C760      1.0  0.19073  0.71509  0.43862  1.0000 -0.4995803268
C   C761      1.0  0.10675  0.16035  0.01530  1.0000 -0.4995803268
C   C762      1.0  0.34145  0.85675  0.44640  1.0000 -0.4995803268
C   C763      1.0  0.41035  0.89505  0.55360  1.0000 -0.4995803268
C   C764      1.0  0.14505  0.09145  0.98470  1.0000 -0.4995803268
C   C765      1.0  0.14325  0.58965  0.48470  1.0000 -0.4995803268
C   C766      1.0  0.90855  0.89325  0.05360  1.0000 -0.4995803268
C   C767      1.0  0.83965  0.85495  0.94640  1.0000 -0.4995803268
C   C768      1.0  0.10495  0.65855  0.51530  1.0000 -0.4995803268
C   C769      1.0  0.12429  0.20175  0.00384  1.0000 0.1990913638
C   C770      1.0  0.37045  0.87429  0.42254  1.0000 0.1990913638
C   C771      1.0  0.45175  0.94791  0.57746  1.0000 0.1990913638
C   C772      1.0  0.19791  0.12045  0.99616  1.0000 0.1990913638
C   C773      1.0  0.12571  0.54825  0.49616  1.0000 0.1990913638
C   C774      1.0  0.87955  0.87571  0.07746  1.0000 0.1990913638
C   C775      1.0  0.79825  0.80209  0.92254  1.0000 0.1990913638
C   C776      1.0  0.05209  0.62955  0.50384  1.0000 0.1990913638
C   C777      1.0  0.16999  0.25790  0.01629  1.0000 -0.1199593417
C   C778      1.0  0.40370  0.91999  0.41209  1.0000 -0.1109580563
C   C779      1.0  0.50790  0.99161  0.58791  1.0000 -0.1109580563
C   C780      1.0  0.24161  0.15370  0.98371  1.0000 -0.1199593417
C   C781      1.0  0.08001  0.49210  0.48371  1.0000 -0.1199593417
C   C782      1.0  0.84630  0.83001  0.08791  1.0000 -0.1109580563
C   C783      1.0  0.74210  0.75839  0.91209  1.0000 -0.1199593417
C   C784      1.0  0.00839  0.59630  0.51629  1.0000 -0.1199593417
C   C785      1.0  0.16682  0.27592  0.99534  1.0000 0.1838162652
C   C786      1.0  0.42148  0.91682  0.39090  1.0000 0.1838162652
C   C787      1.0  0.52592  0.03058  0.60910  1.0000 0.1838162652
C   C788      1.0  0.28058  0.17148  0.00466  1.0000 0.1838162652
C   C789      1.0  0.08318  0.47408  0.50466  1.0000 0.1838162652
C   C790      1.0  0.82852  0.83318  0.10910  1.0000 0.1838162652
C   C791      1.0  0.72408  0.71942  0.89090  1.0000 0.1838162652
C   C792      1.0  0.96942  0.57852  0.49534  1.0000 0.1838162652
C   C793      1.0  0.20333  0.33192  0.99645  1.0000 -0.4909400032
C   C794      1.0  0.45688  0.95333  0.37141  1.0000 -0.4909400032
C   C795      1.0  0.58192  0.08547  0.62859  1.0000 -0.4909400032
C   C796      1.0  0.33547  0.20688  0.00355  1.0000 -0.4909400032
C   C797      1.0  0.04667  0.41808  0.50355  1.0000 -0.4909400032
C   C798      1.0  0.79312  0.79667  0.12859  1.0000 -0.4909400032
C   C799      1.0  0.66808  0.66453  0.87141  1.0000 -0.4909400032
C   C800      1.0  0.91453  0.54312  0.49645  1.0000 -0.4909400032
C   C801      1.0  0.14233  0.31488  0.89041  1.0000 -0.4705292228
C   C802      1.0  0.50192  0.89233  0.32745  1.0000 -0.4705292228
C   C803      1.0  0.56488  0.17447  0.67255  1.0000 -0.4705292228
C   C804      1.0  0.42447  0.25192  0.10959  1.0000 -0.4705292228
C   C805      1.0  0.10767  0.43512  0.60959  1.0000 -0.4705292228
C   C806      1.0  0.74808  0.85767  0.17255  1.0000 -0.4705292228
C   C807      1.0  0.68512  0.57553  0.82745  1.0000 -0.4705292228
C   C808      1.0  0.82553  0.49808  0.39041  1.0000 -0.4705292228
C   C809      1.0  0.09335  0.25670  0.87205  1.0000 0.19070493
C   C810      1.0  0.47130  0.84335  0.33665  1.0000 0.19070493
C   C811      1.0  0.50670  0.13465  0.66335  1.0000 0.19070493
C   C812      1.0  0.38465  0.22130  0.12795  1.0000 0.19070493
C   C813      1.0  0.15665  0.49330  0.62795  1.0000 0.19070493
C   C814      1.0  0.77870  0.90665  0.16335  1.0000 0.19070493
C   C815      1.0  0.74330  0.61535  0.83665  1.0000 0.19070493
C   C816      1.0  0.86535  0.52870  0.37205  1.0000 0.19070493
C   C817      1.0  0.06545  0.23314  0.84099  1.0000 -0.1199593417
C   C818      1.0  0.47446  0.81545  0.33231  1.0000 -0.1199593417
C   C819      1.0  0.48314  0.14215  0.66769  1.0000 -0.1199593417
C   C820      1.0  0.39215  0.22446  0.15901  1.0000 -0.1199593417
C   C821      1.0  0.18455  0.51686  0.65901  1.0000 -0.1199593417
C   C822      1.0  0.77554  0.93455  0.16769  1.0000 -0.1199593417
C   C823      1.0  0.76686  0.60785  0.83231  1.0000 -0.1199593417
C   C824      1.0  0.85785  0.52554  0.34099  1.0000 -0.1199593417
C   C825      1.0  0.02359  0.17760  0.83639  1.0000 0.19070493
C   C826      1.0  0.43720  0.77359  0.34599  1.0000 0.19070493
C   C827      1.0  0.42760  0.09121  0.65401  1.0000 0.19070493
C   C828      1.0  0.34121  0.18720  0.16361  1.0000 0.19070493
C   C829      1.0  0.22641  0.57240  0.66361  1.0000 0.19070493
C   C830      1.0  0.81280  0.97641  0.15401  1.0000 0.19070493
C   C831      1.0  0.82240  0.65879  0.84599  1.0000 0.19070493
C   C832      1.0  0.90879  0.56280  0.33639  1.0000 0.19070493
C   C833      1.0  0.97880  0.13144  0.80864  1.0000 -0.4995803268
C   C834      1.0  0.42016  0.72880  0.34736  1.0000 -0.4995803268
C   C835      1.0  0.38144  0.07280  0.65264  1.0000 -0.4995803268
C   C836      1.0  0.32280  0.17016  0.19136  1.0000 -0.4995803268
C   C837      1.0  0.27120  0.61856  0.69136  1.0000 -0.4995803268
C   C838      1.0  0.82984  0.02120  0.15264  1.0000 -0.4995803268
C   C839      1.0  0.86856  0.67720  0.84736  1.0000 -0.4995803268
C   C840      1.0  0.92720  0.57984  0.30864  1.0000 -0.4995803268
C   C841      1.0  0.55724  0.49444  0.14748  1.0000 -0.4705292228
C   C842      1.0  0.65976  0.30724  0.56280  1.0000 -0.4705292228
C   C843      1.0  0.74444  0.09696  0.43720  1.0000 -0.4705292228
C   C844      1.0  0.34696  0.40976  0.85252  1.0000 -0.4705292228
C   C845      1.0  0.69276  0.25556  0.35252  1.0000 -0.4705292228
C   C846      1.0  0.59024  0.44276  0.93720  1.0000 -0.4705292228
C   C847      1.0  0.50556  0.65304  0.06280  1.0000 -0.4705292228
C   C848      1.0  0.90304  0.34024  0.64748  1.0000 -0.4705292228
C   C849      1.0  0.52235  0.47852  0.11987  1.0000 0.1990913638
C   C850      1.0  0.65248  0.27235  0.54383  1.0000 0.1990913638
C   C851      1.0  0.72852  0.10865  0.45617  1.0000 0.1990913638
C   C852      1.0  0.35865  0.40248  0.88013  1.0000 0.1990913638
C   C853      1.0  0.72765  0.27148  0.38013  1.0000 0.1990913638
C   C854      1.0  0.59752  0.47765  0.95617  1.0000 0.1990913638
C   C855      1.0  0.52148  0.64135  0.04383  1.0000 0.1990913638
C   C856      1.0  0.89135  0.34752  0.61987  1.0000 0.1990913638
C   C857      1.0  0.53149  0.49005  0.09174  1.0000 -0.1268404795
C   C858      1.0  0.68975  0.28149  0.54144  1.0000 -0.1268404795
C   C859      1.0  0.74005  0.14831  0.45856  1.0000 -0.1268404795
C   C860      1.0  0.39831  0.43975  0.90826  1.0000 -0.1268404795
C   C861      1.0  0.71851  0.25995  0.40826  1.0000 -0.1268404795
C   C862      1.0  0.56025  0.46851  0.95856  1.0000 -0.1268404795
C   C863      1.0  0.50995  0.60169  0.04144  1.0000 -0.1268404795
C   C864      1.0  0.85169  0.31025  0.59174  1.0000 -0.1268404795
C   C865      1.0  0.48421  0.46203  0.07404  1.0000 0.1990913638
C   C866      1.0  0.66017  0.23421  0.52218  1.0000 0.1990913638
C   C867      1.0  0.71203  0.13799  0.47782  1.0000 0.1990913638
C   C868      1.0  0.38799  0.41017  0.92596  1.0000 0.1990913638
C   C869      1.0  0.76579  0.28797  0.42596  1.0000 0.1990913638
C   C870      1.0  0.58983  0.51579  0.97782  1.0000 0.1990913638
C   C871      1.0  0.53797  0.61201  0.02218  1.0000 0.1990913638
C   C872      1.0  0.86201  0.33983  0.57404  1.0000 0.1990913638
C   C873      1.0  0.46980  0.45939  0.04239  1.0000 -0.5063995156
C   C874      1.0  0.67741  0.21980  0.51041  1.0000 -0.5063995156
C   C875      1.0  0.70939  0.16700  0.48959  1.0000 -0.5063995156
C   C876      1.0  0.41700  0.42741  0.95761  1.0000 -0.4995803268
C   C877      1.0  0.78020  0.29061  0.45761  1.0000 -0.5063995156
C   C878      1.0  0.57259  0.53020  0.98959  1.0000 -0.5063995156
C   C879      1.0  0.54061  0.58300  0.01041  1.0000 -0.5063995156
C   C880      1.0  0.83300  0.32259  0.54239  1.0000 -0.5063995156
C   C881      1.0  0.29269  0.34599  0.01628  1.0000 -0.4798473497
C   C882      1.0  0.52641  0.04269  0.44670  1.0000 -0.4798473497
C   C883      1.0  0.59599  0.07971  0.55330  1.0000 -0.4798473497
C   C884      1.0  0.32971  0.27641  0.98372  1.0000 -0.4798473497
C   C885      1.0  0.95731  0.40401  0.48372  1.0000 -0.4798473497
C   C886      1.0  0.72359  0.70731  0.05330  1.0000 -0.4798473497
C   C887      1.0  0.65401  0.67029  0.94670  1.0000 -0.4798473497
C   C888      1.0  0.92029  0.47359  0.51628  1.0000 -0.4798473497
C   C889      1.0  0.26686  0.32503  0.04209  1.0000 0.19070493
C   C890      1.0  0.47477  0.01686  0.44183  1.0000 0.19070493
C   C891      1.0  0.57503  0.03294  0.55817  1.0000 0.19070493
C   C892      1.0  0.28294  0.22477  0.95791  1.0000 0.19070493
C   C893      1.0  0.98314  0.42497  0.45791  1.0000 0.19070493
C   C894      1.0  0.77523  0.73314  0.05817  1.0000 0.19070493
C   C895      1.0  0.67497  0.71706  0.94183  1.0000 0.19070493
C   C896      1.0  0.96706  0.52523  0.54209  1.0000 0.19070493
C   C897      1.0  0.21478  0.28894  0.04312  1.0000 -0.1109580563
C   C898      1.0  0.42166  0.96478  0.42584  1.0000 -0.1109580563
C   C899      1.0  0.53894  0.99582  0.57416  1.0000 -0.1109580563
C   C900      1.0  0.24582  0.17166  0.95688  1.0000 -0.1109580563
C   C901      1.0  0.03522  0.46106  0.45688  1.0000 -0.1109580563
C   C902      1.0  0.82834  0.78522  0.07416  1.0000 -0.1109580563
C   C903      1.0  0.71106  0.75418  0.92584  1.0000 -0.1109580563
C   C904      1.0  0.00418  0.57834  0.54312  1.0000 -0.1109580563
C   C905      1.0  0.21428  0.28390  0.07278  1.0000 0.1990913638
C   C906      1.0  0.39150  0.96428  0.43038  1.0000 0.1990913638
C   C907      1.0  0.53390  0.96112  0.56962  1.0000 0.1990913638
C   C908      1.0  0.21112  0.14150  0.92722  1.0000 0.1990913638
C   C909      1.0  0.03572  0.46610  0.42722  1.0000 0.1990913638
C   C910      1.0  0.85850  0.78572  0.06962  1.0000 0.1990913638
C   C911      1.0  0.71610  0.78888  0.93038  1.0000 0.1990913638
C   C912      1.0  0.03888  0.60850  0.57278  1.0000 0.1990913638
C   C913      1.0  0.17057  0.25210  0.08807  1.0000 -0.4995803268
C   C914      1.0  0.33250  0.92057  0.41847  1.0000 -0.4995803268
C   C915      1.0  0.50210  0.91403  0.58153  1.0000 -0.4995803268
C   C916      1.0  0.16403  0.08250  0.91193  1.0000 -0.4995803268
C   C917      1.0  0.07943  0.49790  0.41193  1.0000 -0.4995803268
C   C918      1.0  0.91750  0.82943  0.08153  1.0000 -0.4995803268
C   C919      1.0  0.74790  0.83597  0.91847  1.0000 -0.4995803268
C   C920      1.0  0.08597  0.66750  0.58807  1.0000 -0.4995803268
C   C921      1.0  0.25041  0.27583  0.19564  1.0000 -0.4705292228
C   C922      1.0  0.30477  0.00041  0.47458  1.0000 -0.4705292228
C   C923      1.0  0.52583  0.83019  0.52542  1.0000 -0.4705292228
C   C924      1.0  0.08019  0.05477  0.80436  1.0000 -0.4705292228
C   C925      1.0  0.99959  0.47417  0.30436  1.0000 -0.4705292228
C   C926      1.0  0.94523  0.74959  0.02542  1.0000 -0.4705292228
C   C927      1.0  0.72417  0.91981  0.97458  1.0000 -0.4705292228
C   C928      1.0  0.16981  0.69523  0.69564  1.0000 -0.4705292228
C   C929      1.0  0.30931  0.31916  0.19747  1.0000 0.1990913638
C   C930      1.0  0.36184  0.05931  0.49015  1.0000 0.1990913638
C   C931      1.0  0.56916  0.87169  0.50985  1.0000 0.1990913638
C   C932      1.0  0.12169  0.11184  0.80253  1.0000 0.1990913638
C   C933      1.0  0.94069  0.43084  0.30253  1.0000 0.1990913638
C   C934      1.0  0.88816  0.69069  0.00985  1.0000 0.1990913638
C   C935      1.0  0.68084  0.87831  0.99015  1.0000 0.1990913638
C   C936      1.0  0.12831  0.63816  0.69747  1.0000 0.1990913638
C   C937      1.0  0.35138  0.34516  0.22114  1.0000 -0.1199593417
C   C938      1.0  0.38024  0.10138  0.50622  1.0000 -0.1199593417
C   C939      1.0  0.59516  0.87402  0.49378  1.0000 -0.1199593417
C   C940      1.0  0.12402  0.13024  0.77886  1.0000 -0.1199593417
C   C941      1.0  0.89862  0.40484  0.27886  1.0000 -0.1199593417
C   C942      1.0  0.86976  0.64862  0.99378  1.0000 -0.1268404795
C   C943      1.0  0.65484  0.87598  0.00622  1.0000 -0.1199593417
C   C944      1.0  0.12598  0.61976  0.72114  1.0000 -0.1268404795
C   C945      1.0  0.39421  0.37637  0.20858  1.0000 0.1990913638
C   C946      1.0  0.43563  0.14421  0.51784  1.0000 0.1990913638
C   C947      1.0  0.62637  0.91779  0.48216  1.0000 0.1990913638
C   C948      1.0  0.16779  0.18563  0.79142  1.0000 0.1990913638
C   C949      1.0  0.85579  0.37363  0.29142  1.0000 0.1990913638
C   C950      1.0  0.81437  0.60579  0.98216  1.0000 0.1990913638
C   C951      1.0  0.62363  0.83221  0.01784  1.0000 0.1990913638
C   C952      1.0  0.08221  0.56437  0.70858  1.0000 0.1990913638
C   C953      1.0  0.45090  0.41331  0.22261  1.0000 -0.5063995156
C   C954      1.0  0.47829  0.20090  0.53759  1.0000 -0.5063995156
C   C955      1.0  0.66331  0.94070  0.46241  1.0000 -0.5063995156
C   C956      1.0  0.19070  0.22829  0.77739  1.0000 -0.5063995156
C   C957      1.0  0.79910  0.33669  0.27739  1.0000 -0.5063995156
C   C958      1.0  0.77171  0.54910  0.96241  1.0000 -0.5063995156
C   C959      1.0  0.58669  0.80930  0.03759  1.0000 -0.5063995156
C   C960      1.0  0.05930  0.52171  0.72261  1.0000 -0.5063995156
C   C961      1.0  0.58674  0.39514  0.00368  1.0000 -0.4909400032
C   C962      1.0  0.83306  0.33674  0.69160  1.0000 -0.4909400032
C   C963      1.0  0.64514  0.14146  0.30840  1.0000 -0.4909400032
C   C964      1.0  0.39146  0.58306  0.99632  1.0000 -0.4909400032
C   C965      1.0  0.66326  0.35486  0.49632  1.0000 -0.4909400032
C   C966      1.0  0.41694  0.41326  0.80840  1.0000 -0.4909400032
C   C967      1.0  0.60486  0.60854  0.19160  1.0000 -0.4909400032
C   C968      1.0  0.85854  0.16694  0.50368  1.0000 -0.4909400032
C   C969      1.0  0.64673  0.44443  0.01556  1.0000 0.19070493
C   C970      1.0  0.88117  0.39673  0.70230  1.0000 0.19070493
C   C971      1.0  0.69443  0.17887  0.29770  1.0000 0.19070493
C   C972      1.0  0.42887  0.63117  0.98444  1.0000 0.19070493
C   C973      1.0  0.60327  0.30557  0.48444  1.0000 0.19070493
C   C974      1.0  0.36883  0.35327  0.79770  1.0000 0.19070493
C   C975      1.0  0.55557  0.57113  0.20230  1.0000 0.19070493
C   C976      1.0  0.82113  0.11883  0.51556  1.0000 0.19070493
C   C977      1.0  0.68181  0.44941  0.01862  1.0000 -0.1036691653
C   C978      1.0  0.91319  0.43181  0.73240  1.0000 -0.1036691653
C   C979      1.0  0.69941  0.18079  0.26760  1.0000 -0.1036691653
C   C980      1.0  0.43079  0.66319  0.98138  1.0000 -0.1036691653
C   C981      1.0  0.56819  0.30059  0.48138  1.0000 -0.1036691653
C   C982      1.0  0.33681  0.31819  0.76760  1.0000 -0.1036691653
C   C983      1.0  0.55059  0.56921  0.23240  1.0000 -0.1036691653
C   C984      1.0  0.81921  0.08681  0.51862  1.0000 -0.1036691653
C   C985      1.0  0.73341  0.50494  0.03015  1.0000 0.1990913638
C   C986      1.0  0.95326  0.48341  0.72847  1.0000 0.1990913638
C   C987      1.0  0.75494  0.22479  0.27153  1.0000 0.1990913638
C   C988      1.0  0.47479  0.70326  0.96985  1.0000 0.1990913638
C   C989      1.0  0.51659  0.24506  0.46985  1.0000 0.1990913638
C   C990      1.0  0.29674  0.26659  0.77153  1.0000 0.1990913638
C   C991      1.0  0.49506  0.52521  0.22847  1.0000 0.1990913638
C   C992      1.0  0.77521  0.04674  0.53015  1.0000 0.1990913638
C   C993      1.0  0.78708  0.53480  0.03788  1.0000 -0.4995803268
C   C994      1.0  0.99920  0.53708  0.75228  1.0000 -0.4995803268
C   C995      1.0  0.78480  0.24692  0.24772  1.0000 -0.4995803268
C   C996      1.0  0.49692  0.74920  0.96212  1.0000 -0.4995803268
C   C997      1.0  0.46292  0.21520  0.46212  1.0000 -0.4995803268
C   C998      1.0  0.25080  0.21292  0.74772  1.0000 -0.4995803268
C   C999      1.0  0.46520  0.50308  0.25228  1.0000 -0.4995803268
C   C1000     1.0  0.75308  0.00080  0.53788  1.0000 -0.4995803268
C   C1001     1.0  0.91350  0.70639  0.09849  1.0000 -0.4995803268
C   C1002     1.0  0.06501  0.66350  0.70711  1.0000 -0.4909400032
C   C1003     1.0  0.95639  0.35790  0.29289  1.0000 -0.4909400032
C   C1004     1.0  0.60790  0.81501  0.90151  1.0000 -0.4909400032
C   C1005     1.0  0.33650  0.04361  0.40151  1.0000 -0.4909400032
C   C1006     1.0  0.18499  0.08650  0.79289  1.0000 -0.4909400032
C   C1007     1.0  0.29361  0.39210  0.20711  1.0000 -0.4909400032
C   C1008     1.0  0.64210  0.93499  0.59849  1.0000 -0.4909400032
C   C1009     1.0  0.88683  0.71033  0.10956  1.0000 0.19070493
C   C1010     1.0  0.02727  0.63683  0.67650  1.0000 0.19070493
C   C1011     1.0  0.96033  0.35077  0.32350  1.0000 0.19070493
C   C1012     1.0  0.60077  0.77727  0.89044  1.0000 0.19070493
C   C1013     1.0  0.36317  0.03967  0.39044  1.0000 0.19070493
C   C1014     1.0  0.22273  0.11317  0.82350  1.0000 0.19070493
C   C1015     1.0  0.28967  0.39923  0.17650  1.0000 0.19070493
C   C1016     1.0  0.64923  0.97273  0.60956  1.0000 0.19070493
C   C1017     1.0  0.90354  0.74245  0.13639  1.0000 -0.1109580563
C   C1018     1.0  0.01715  0.65354  0.66109  1.0000 -0.1109580563
C   C1019     1.0  0.99245  0.35606  0.33891  1.0000 -0.1109580563
C   C1020     1.0  0.60606  0.76715  0.86361  1.0000 -0.1109580563
C   C1021     1.0  0.34646  0.00755  0.36361  1.0000 -0.1109580563
C   C1022     1.0  0.23285  0.09646  0.83891  1.0000 -0.1109580563
C   C1023     1.0  0.25755  0.39394  0.16109  1.0000 -0.1109580563
C   C1024     1.0  0.64394  0.98285  0.63639  1.0000 -0.1109580563
C   C1025     1.0  0.86454  0.73170  0.13344  1.0000 0.2109161658
C   C1026     1.0  0.98110  0.61454  0.63284  1.0000 0.2109161658
C   C1027     1.0  0.98170  0.34826  0.36716  1.0000 0.2109161658
C   C1028     1.0  0.59826  0.73110  0.86656  1.0000 0.2109161658
C   C1029     1.0  0.38546  0.01830  0.36656  1.0000 0.2109161658
C   C1030     1.0  0.26890  0.13546  0.86716  1.0000 0.2109161658
C   C1031     1.0  0.26830  0.40174  0.13284  1.0000 0.2109161658
C   C1032     1.0  0.65174  0.01890  0.63344  1.0000 0.2109161658
C   C1033     1.0  0.86177  0.75584  0.15541  1.0000 -0.4798473497
C   C1034     1.0  0.95636  0.61177  0.60593  1.0000 -0.4798473497
C   C1035     1.0  0.00584  0.35043  0.39407  1.0000 -0.4798473497
C   C1036     1.0  0.60043  0.70636  0.84459  1.0000 -0.4798473497
C   C1037     1.0  0.38823  0.99416  0.34459  1.0000 -0.4798473497
C   C1038     1.0  0.29364  0.13823  0.89407  1.0000 -0.4798473497
C   C1039     1.0  0.24416  0.39957  0.10593  1.0000 -0.4798473497
C   C1040     1.0  0.64957  0.04364  0.65541  1.0000 -0.4798473497
C   C1041     1.0  0.65980  0.61832  0.11912  1.0000 -0.4909400032
C   C1042     1.0  0.79068  0.40980  0.54148  1.0000 -0.4909400032
C   C1043     1.0  0.86832  0.24920  0.45852  1.0000 -0.4909400032
C   C1044     1.0  0.49920  0.54068  0.88088  1.0000 -0.4909400032
C   C1045     1.0  0.59020  0.13168  0.38088  1.0000 -0.4909400032
C   C1046     1.0  0.45932  0.34020  0.95852  1.0000 -0.4909400032
C   C1047     1.0  0.38168  0.50080  0.04148  1.0000 -0.4909400032
C   C1048     1.0  0.75080  0.20932  0.61912  1.0000 -0.4909400032
C   C1049     1.0  0.63462  0.57433  0.09415  1.0000 0.19070493
C   C1050     1.0  0.79047  0.38462  0.56029  1.0000 0.19070493
C   C1051     1.0  0.82433  0.23018  0.43971  1.0000 0.19070493
C   C1052     1.0  0.48018  0.54047  0.90585  1.0000 0.19070493
C   C1053     1.0  0.61538  0.17567  0.40585  1.0000 0.19070493
C   C1054     1.0  0.45953  0.36538  0.93971  1.0000 0.19070493
C   C1055     1.0  0.42567  0.51982  0.06029  1.0000 0.19070493
C   C1056     1.0  0.76982  0.20953  0.59415  1.0000 0.19070493
C   C1057     1.0  0.57973  0.52053  0.08206  1.0000 -0.1109580563
C   C1058     1.0  0.74767  0.32973  0.55920  1.0000 -0.1109580563
C   C1059     1.0  0.77053  0.18847  0.44080  1.0000 -0.1109580563
C   C1060     1.0  0.43847  0.49767  0.91794  1.0000 -0.1109580563
C   C1061     1.0  0.67027  0.22947  0.41794  1.0000 -0.1109580563
C   C1062     1.0  0.50233  0.42027  0.94080  1.0000 -0.1109580563
C   C1063     1.0  0.47947  0.56153  0.05920  1.0000 -0.1109580563
C   C1064     1.0  0.81153  0.25233  0.58206  1.0000 -0.1109580563
C   C1065     1.0  0.57890  0.49799  0.05869  1.0000 0.1990913638
C   C1066     1.0  0.77021  0.32890  0.58091  1.0000 0.1990913638
C   C1067     1.0  0.74799  0.18930  0.41909  1.0000 0.1990913638
C   C1068     1.0  0.43930  0.52021  0.94131  1.0000 0.1990913638
C   C1069     1.0  0.67110  0.25201  0.44131  1.0000 0.1990913638
C   C1070     1.0  0.47979  0.42110  0.91909  1.0000 0.1990913638
C   C1071     1.0  0.50201  0.56070  0.08091  1.0000 0.1990913638
C   C1072     1.0  0.81070  0.22979  0.55869  1.0000 0.1990913638
C   C1073     1.0  0.53235  0.44231  0.03746  1.0000 -0.4995803268
C   C1074     1.0  0.74489  0.28235  0.59004  1.0000 -0.4995803268
C   C1075     1.0  0.69231  0.15485  0.40996  1.0000 -0.4995803268
C   C1076     1.0  0.40485  0.49489  0.96254  1.0000 -0.4995803268
C   C1077     1.0  0.71765  0.30769  0.46254  1.0000 -0.4995803268
C   C1078     1.0  0.50511  0.46765  0.90996  1.0000 -0.4995803268
C   C1079     1.0  0.55769  0.59515  0.09004  1.0000 -0.4995803268
C   C1080     1.0  0.84515  0.25511  0.53746  1.0000 -0.4995803268
C   C1081     1.0  0.09532  0.23299  0.77931  1.0000 -0.4995803268
C   C1082     1.0  0.56601  0.84532  0.36233  1.0000 -0.4995803268
C   C1083     1.0  0.48299  0.20368  0.63767  1.0000 -0.4995803268
C   C1084     1.0  0.45368  0.31601  0.22069  1.0000 -0.4995803268
C   C1085     1.0  0.15468  0.51701  0.72069  1.0000 -0.4995803268
C   C1086     1.0  0.68399  0.90468  0.13767  1.0000 -0.4995803268
C   C1087     1.0  0.76701  0.54632  0.86233  1.0000 -0.4995803268
C   C1088     1.0  0.79632  0.43399  0.27931  1.0000 -0.4995803268
C   C1089     1.0  0.09615  0.26426  0.79261  1.0000 0.1990913638
C   C1090     1.0  0.55354  0.84615  0.33189  1.0000 0.1990913638
C   C1091     1.0  0.51426  0.22165  0.66811  1.0000 0.1990913638
C   C1092     1.0  0.47165  0.30354  0.20739  1.0000 0.1990913638
C   C1093     1.0  0.15385  0.48574  0.70739  1.0000 0.1990913638
C   C1094     1.0  0.69646  0.90385  0.16811  1.0000 0.1990913638
C   C1095     1.0  0.73574  0.52835  0.83189  1.0000 0.1990913638
C   C1096     1.0  0.77835  0.44646  0.29261  1.0000 0.1990913638
C   C1097     1.0  0.08128  0.26309  0.81837  1.0000 -0.1199593417
C   C1098     1.0  0.51291  0.83128  0.31819  1.0000 -0.1199593417
C   C1099     1.0  0.51309  0.19472  0.68181  1.0000 -0.1199593417
C   C1100     1.0  0.44472  0.26291  0.18163  1.0000 -0.1199593417
C   C1101     1.0  0.16872  0.48691  0.68163  1.0000 -0.1199593417
C   C1102     1.0  0.73709  0.91872  0.18181  1.0000 -0.1199593417
C   C1103     1.0  0.73691  0.55528  0.81819  1.0000 -0.1199593417
C   C1104     1.0  0.80528  0.48709  0.31837  1.0000 -0.1199593417
C   C1105     1.0  0.08895  0.30002  0.82017  1.0000 0.19070493
C   C1106     1.0  0.51878  0.83895  0.28893  1.0000 0.19070493
C   C1107     1.0  0.55002  0.22985  0.71107  1.0000 0.19070493
C   C1108     1.0  0.47985  0.26878  0.17983  1.0000 0.19070493
C   C1109     1.0  0.16105  0.44998  0.67983  1.0000 0.19070493
C   C1110     1.0  0.73122  0.91105  0.21107  1.0000 0.19070493
C   C1111     1.0  0.69998  0.52015  0.78893  1.0000 0.19070493
C   C1112     1.0  0.77015  0.48122  0.32017  1.0000 0.19070493
C   C1113     1.0  0.07812  0.31465  0.84197  1.0000 -0.4909400032
C   C1114     1.0  0.48615  0.82812  0.26347  1.0000 -0.4909400032
C   C1115     1.0  0.56465  0.22268  0.73653  1.0000 -0.4909400032
C   C1116     1.0  0.47268  0.23615  0.15803  1.0000 -0.4909400032
C   C1117     1.0  0.17188  0.43535  0.65803  1.0000 -0.4909400032
C   C1118     1.0  0.76385  0.92188  0.23653  1.0000 -0.4909400032
C   C1119     1.0  0.68535  0.52732  0.76347  1.0000 -0.4909400032
C   C1120     1.0  0.77732  0.51385  0.34197  1.0000 -0.4909400032
C   C1121     1.0  0.17573  0.48260  0.83593  1.0000 -0.4909400032
C   C1122     1.0  0.58980  0.92573  0.19313  1.0000 -0.4909400032
C   C1123     1.0  0.73260  0.39667  0.80687  1.0000 -0.4909400032
C   C1124     1.0  0.64667  0.33980  0.16407  1.0000 -0.4909400032
C   C1125     1.0  0.07427  0.26740  0.66407  1.0000 -0.4909400032
C   C1126     1.0  0.66020  0.82427  0.30687  1.0000 -0.4909400032
C   C1127     1.0  0.51740  0.35333  0.69313  1.0000 -0.4909400032
C   C1128     1.0  0.60333  0.41020  0.33593  1.0000 -0.4909400032
C   C1129     1.0  0.20484  0.50099  0.81183  1.0000 0.1990913638
C   C1130     1.0  0.64301  0.95484  0.20385  1.0000 0.1990913638
C   C1131     1.0  0.75099  0.43916  0.79615  1.0000 0.1990913638
C   C1132     1.0  0.68916  0.39301  0.18817  1.0000 0.1990913638
C   C1133     1.0  0.04516  0.24901  0.68817  1.0000 0.1990913638
C   C1134     1.0  0.60699  0.79516  0.29615  1.0000 0.1990913638
C   C1135     1.0  0.49901  0.31084  0.70385  1.0000 0.1990913638
C   C1136     1.0  0.56084  0.35699  0.31183  1.0000 0.1990913638
C   C1137     1.0  0.24598  0.55160  0.80618  1.0000 -0.1199593417
C   C1138     1.0  0.68980  0.99598  0.19438  1.0000 -0.1199593417
C   C1139     1.0  0.80160  0.49542  0.80562  1.0000 -0.1199593417
C   C1140     1.0  0.74542  0.43980  0.19382  1.0000 -0.1199593417
C   C1141     1.0  0.00402  0.19840  0.69382  1.0000 -0.1199593417
C   C1142     1.0  0.56020  0.75402  0.30562  1.0000 -0.1199593417
C   C1143     1.0  0.44840  0.25458  0.69438  1.0000 -0.1199593417
C   C1144     1.0  0.50458  0.31020  0.30618  1.0000 -0.1199593417
C   C1145     1.0  0.25848  0.54608  0.78196  1.0000 0.19070493
C   C1146     1.0  0.72652  0.00848  0.21240  1.0000 0.19070493
C   C1147     1.0  0.79608  0.51412  0.78760  1.0000 0.19070493
C   C1148     1.0  0.76412  0.47652  0.21804  1.0000 0.19070493
C   C1149     1.0  0.99152  0.20392  0.71804  1.0000 0.19070493
C   C1150     1.0  0.52348  0.74152  0.28760  1.0000 0.19070493
C   C1151     1.0  0.45392  0.23588  0.71240  1.0000 0.19070493
C   C1152     1.0  0.48588  0.27348  0.28196  1.0000 0.19070493
C   C1153     1.0  0.29729  0.58556  0.76465  1.0000 -0.4909400032
C   C1154     1.0  0.78264  0.04729  0.21173  1.0000 -0.4909400032
C   C1155     1.0  0.83556  0.57091  0.78827  1.0000 -0.4909400032
C   C1156     1.0  0.82091  0.53264  0.23535  1.0000 -0.4909400032
C   C1157     1.0  0.95271  0.16444  0.73535  1.0000 -0.4909400032
C   C1158     1.0  0.46736  0.70271  0.28827  1.0000 -0.4909400032
C   C1159     1.0  0.41444  0.17909  0.71173  1.0000 -0.4909400032
C   C1160     1.0  0.42909  0.21736  0.26465  1.0000 -0.4909400032
C   C1161     1.0  0.30503  0.50066  0.69389  1.0000 -0.4798473497
C   C1162     1.0  0.86114  0.05503  0.30437  1.0000 -0.4798473497
C   C1163     1.0  0.75066  0.55677  0.69563  1.0000 -0.4798473497
C   C1164     1.0  0.80677  0.61114  0.30611  1.0000 -0.4798473497
C   C1165     1.0  0.94497  0.24934  0.80611  1.0000 -0.4798473497
C   C1166     1.0  0.38886  0.69497  0.19563  1.0000 -0.4798473497
C   C1167     1.0  0.49934  0.19323  0.80437  1.0000 -0.4798473497
C   C1168     1.0  0.44323  0.13886  0.19389  1.0000 -0.4798473497
C   C1169     1.0  0.27001  0.44914  0.70155  1.0000 0.1990913638
C   C1170     1.0  0.81846  0.02001  0.32087  1.0000 0.1990913638
C   C1171     1.0  0.69914  0.49759  0.67913  1.0000 0.1990913638
C   C1172     1.0  0.74759  0.56846  0.29845  1.0000 0.1990913638
C   C1173     1.0  0.97999  0.30086  0.79845  1.0000 0.1990913638
C   C1174     1.0  0.43154  0.72999  0.17913  1.0000 0.1990913638
C   C1175     1.0  0.55086  0.25241  0.82087  1.0000 0.1990913638
C   C1176     1.0  0.50241  0.18154  0.20155  1.0000 0.1990913638
C   C1177     1.0  0.27004  0.41839  0.69623  1.0000 -0.1199593417
C   C1178     1.0  0.82381  0.02004  0.35165  1.0000 -0.1199593417
C   C1179     1.0  0.66839  0.47216  0.64835  1.0000 -0.1199593417
C   C1180     1.0  0.72216  0.57381  0.30377  1.0000 -0.1199593417
C   C1181     1.0  0.97996  0.33161  0.80377  1.0000 -0.1199593417
C   C1182     1.0  0.42619  0.72996  0.14835  1.0000 -0.1199593417
C   C1183     1.0  0.58161  0.27784  0.85165  1.0000 -0.1199593417
C   C1184     1.0  0.52784  0.17619  0.19623  1.0000 -0.1199593417
C   C1185     1.0  0.22991  0.37533  0.70844  1.0000 0.19070493
C   C1186     1.0  0.77147  0.97991  0.35458  1.0000 0.19070493
C   C1187     1.0  0.62533  0.41689  0.64542  1.0000 0.19070493
C   C1188     1.0  0.66689  0.52147  0.29156  1.0000 0.19070493
C   C1189     1.0  0.02009  0.37467  0.79156  1.0000 0.19070493
C   C1190     1.0  0.47853  0.77009  0.14542  1.0000 0.19070493
C   C1191     1.0  0.62467  0.33311  0.85458  1.0000 0.19070493
C   C1192     1.0  0.58311  0.22853  0.20844  1.0000 0.19070493
C   C1193     1.0  0.21151  0.32953  0.70984  1.0000 -0.4995803268
C   C1194     1.0  0.75167  0.96151  0.38198  1.0000 -0.4995803268
C   C1195     1.0  0.57953  0.36969  0.61802  1.0000 -0.4995803268
C   C1196     1.0  0.61969  0.50167  0.29016  1.0000 -0.4995803268
C   C1197     1.0  0.03849  0.42047  0.79016  1.0000 -0.4995803268
C   C1198     1.0  0.49833  0.78849  0.11802  1.0000 -0.4995803268
C   C1199     1.0  0.67047  0.38031  0.88198  1.0000 -0.4995803268
C   C1200     1.0  0.63031  0.24833  0.20984  1.0000 -0.4995803268
N   N1        1.0  0.03004  0.84624  0.19788  1.0000 -0.2005737375
N   N2        1.0  0.08216  0.78004  0.68380  1.0000 -0.2005737375
N   N3        1.0  0.09624  0.39836  0.31620  1.0000 -0.2005737375
N   N4        1.0  0.64836  0.83216  0.80212  1.0000 -0.2005737375
N   N5        1.0  0.21996  0.90376  0.30212  1.0000 -0.2005737375
N   N6        1.0  0.16784  0.96996  0.81620  1.0000 -0.2005737375
N   N7        1.0  0.15376  0.35164  0.18380  1.0000 -0.2005737375
N   N8        1.0  0.60164  0.91784  0.69788  1.0000 -0.2005737375
N   N9        1.0  0.00676  0.80098  0.20074  1.0000 -0.2183940878
N   N10       1.0  0.05602  0.75676  0.70578  1.0000 -0.2183940878
N   N11       1.0  0.05098  0.35024  0.29422  1.0000 -0.2183940878
N   N12       1.0  0.60024  0.80602  0.79926  1.0000 -0.2183940878
N   N13       1.0  0.24324  0.94902  0.29926  1.0000 -0.2183940878
N   N14       1.0  0.19398  0.99324  0.79422  1.0000 -0.2183940878
N   N15       1.0  0.19902  0.39976  0.20578  1.0000 -0.2183940878
N   N16       1.0  0.64976  0.94398  0.70074  1.0000 -0.2183940878
N   N17       1.0  0.02889  0.80710  0.75859  1.0000 -0.2110614994
N   N18       1.0  0.52030  0.77889  0.72179  1.0000 -0.2110614994
N   N19       1.0  0.05710  0.79851  0.27821  1.0000 -0.2110614994
N   N20       1.0  0.04851  0.27030  0.24141  1.0000 -0.2110614994
N   N21       1.0  0.22111  0.94290  0.74141  1.0000 -0.2110614994
N   N22       1.0  0.72970  0.97111  0.77821  1.0000 -0.2110614994
N   N23       1.0  0.19290  0.95149  0.22179  1.0000 -0.2110614994
N   N24       1.0  0.20149  0.47970  0.25859  1.0000 -0.2110614994
N   N25       1.0  0.04866  0.85038  0.75564  1.0000 -0.2110614994
N   N26       1.0  0.54302  0.79866  0.69828  1.0000 -0.2110614994
N   N27       1.0  0.10038  0.84474  0.30172  1.0000 -0.2110614994
N   N28       1.0  0.09474  0.29302  0.24436  1.0000 -0.2110614994
N   N29       1.0  0.20134  0.89962  0.74436  1.0000 -0.2110614994
N   N30       1.0  0.70698  0.95134  0.80172  1.0000 -0.2110614994
N   N31       1.0  0.14962  0.90526  0.19828  1.0000 -0.2110614994
N   N32       1.0  0.15526  0.45698  0.25564  1.0000 -0.2110614994
N   N33       1.0  0.18539  0.98969  0.29368  1.0000 -0.2110614994
N   N34       1.0  0.14171  0.93539  0.69570  1.0000 -0.2110614994
N   N35       1.0  0.23969  0.44601  0.30430  1.0000 -0.2110614994
N   N36       1.0  0.69601  0.89171  0.70632  1.0000 -0.2110614994
N   N37       1.0  0.06461  0.76031  0.20632  1.0000 -0.2110614994
N   N38       1.0  0.10829  0.81461  0.80430  1.0000 -0.2110614994
N   N39       1.0  0.01031  0.30399  0.19570  1.0000 -0.2110614994
N   N40       1.0  0.55399  0.85829  0.79368  1.0000 -0.2110614994
N   N41       1.0  0.16684  0.98825  0.26749  1.0000 -0.2005737375
N   N42       1.0  0.14935  0.91684  0.67859  1.0000 -0.2005737375
N   N43       1.0  0.23825  0.47076  0.32141  1.0000 -0.2005737375
N   N44       1.0  0.72076  0.89935  0.73251  1.0000 -0.2005737375
N   N45       1.0  0.08316  0.76175  0.23251  1.0000 -0.2005737375
N   N46       1.0  0.10065  0.83316  0.82141  1.0000 -0.2005737375
N   N47       1.0  0.01175  0.27924  0.17859  1.0000 -0.2005737375
N   N48       1.0  0.52924  0.85065  0.76749  1.0000 -0.2005737375
N   N49       1.0  0.37046  0.45199  0.67805  1.0000 -0.2183940878
N   N50       1.0  0.94241  0.12046  0.41847  1.0000 -0.2183940878
N   N51       1.0  0.70199  0.52394  0.58153  1.0000 -0.2183940878
N   N52       1.0  0.77394  0.69241  0.32195  1.0000 -0.2183940878
N   N53       1.0  0.87954  0.29801  0.82195  1.0000 -0.2183940878
N   N54       1.0  0.30759  0.62954  0.08153  1.0000 -0.2183940878
N   N55       1.0  0.54801  0.22606  0.91847  1.0000 -0.2183940878
N   N56       1.0  0.47606  0.05759  0.17805  1.0000 -0.2183940878
N   N57       1.0  0.35172  0.44910  0.65062  1.0000 -0.2110614994
N   N58       1.0  0.95110  0.10172  0.40262  1.0000 -0.2110614994
N   N59       1.0  0.69910  0.54848  0.59738  1.0000 -0.2110614994
N   N60       1.0  0.79848  0.70110  0.34938  1.0000 -0.2110614994
N   N61       1.0  0.89828  0.30090  0.84938  1.0000 -0.2110614994
N   N62       1.0  0.29890  0.64828  0.09738  1.0000 -0.2110614994
N   N63       1.0  0.55090  0.20152  0.90262  1.0000 -0.2110614994
N   N64       1.0  0.45152  0.04890  0.15062  1.0000 -0.2110614994
N   N65       1.0  0.10226  0.18970  0.42636  1.0000 -0.2183940878
N   N66       1.0  0.92590  0.85226  0.41256  1.0000 -0.2183940878
N   N67       1.0  0.43970  0.51334  0.58744  1.0000 -0.2183940878
N   N68       1.0  0.76334  0.67590  0.57364  1.0000 -0.2183940878
N   N69       1.0  0.14774  0.56030  0.07364  1.0000 -0.2183940878
N   N70       1.0  0.32410  0.89774  0.08744  1.0000 -0.2183940878
N   N71       1.0  0.81030  0.23666  0.91256  1.0000 -0.2183940878
N   N72       1.0  0.48666  0.07410  0.92636  1.0000 -0.2183940878
N   N73       1.0  0.14563  0.24099  0.44602  1.0000 -0.2005737375
N   N74       1.0  0.94961  0.89563  0.40464  1.0000 -0.2005737375
N   N75       1.0  0.49099  0.54497  0.59536  1.0000 -0.2005737375
N   N76       1.0  0.79497  0.69961  0.55398  1.0000 -0.2005737375
N   N77       1.0  0.10437  0.50901  0.05398  1.0000 -0.2005737375
N   N78       1.0  0.30039  0.85437  0.09536  1.0000 -0.2005737375
N   N79       1.0  0.75901  0.20503  0.90464  1.0000 -0.2005737375
N   N80       1.0  0.45503  0.05039  0.94602  1.0000 -0.2005737375
N   N81       1.0  0.54317  0.54716  0.67553  1.0000 -0.2005737375
N   N82       1.0  0.11764  0.29317  0.49601  1.0000 -0.2005737375
N   N83       1.0  0.79716  0.62163  0.50399  1.0000 -0.2005737375
N   N84       1.0  0.87163  0.86764  0.32447  1.0000 -0.2005737375
N   N85       1.0  0.70683  0.20284  0.82447  1.0000 -0.2005737375
N   N86       1.0  0.13236  0.45683  0.00399  1.0000 -0.2005737375
N   N87       1.0  0.45284  0.12837  0.99601  1.0000 -0.2005737375
N   N88       1.0  0.37837  0.88236  0.17553  1.0000 -0.2005737375
N   N89       1.0  0.51198  0.52307  0.69545  1.0000 -0.2110614994
N   N90       1.0  0.06653  0.26198  0.48891  1.0000 -0.2110614994
N   N91       1.0  0.77307  0.57762  0.51109  1.0000 -0.2110614994
N   N92       1.0  0.82762  0.81653  0.30455  1.0000 -0.2110614994
N   N93       1.0  0.73802  0.22693  0.80455  1.0000 -0.2110614994
N   N94       1.0  0.18347  0.48802  0.01109  1.0000 -0.2110614994
N   N95       1.0  0.47693  0.17238  0.98891  1.0000 -0.2110614994
N   N96       1.0  0.42238  0.93347  0.19545  1.0000 -0.2110614994
N   N97       1.0  0.67282  0.28831  0.93893  1.0000 -0.2005737375
N   N98       1.0  0.98389  0.42282  0.88451  1.0000 -0.2005737375
N   N99       1.0  0.53831  0.09938  0.11549  1.0000 -0.2005737375
N   N100      1.0  0.34938  0.73389  0.06107  1.0000 -0.2005737375
N   N101      1.0  0.57718  0.46169  0.56107  1.0000 -0.2005737375
N   N102      1.0  0.26611  0.32718  0.61549  1.0000 -0.2005737375
N   N103      1.0  0.71169  0.65062  0.38451  1.0000 -0.2005737375
N   N104      1.0  0.90062  0.01611  0.43893  1.0000 -0.2005737375
N   N105      1.0  0.65259  0.24535  0.94454  1.0000 -0.2110614994
N   N106      1.0  0.95805  0.40259  0.90724  1.0000 -0.2110614994
N   N107      1.0  0.49535  0.05081  0.09276  1.0000 -0.2110614994
N   N108      1.0  0.30081  0.70805  0.05546  1.0000 -0.2110614994
N   N109      1.0  0.59741  0.50465  0.55546  1.0000 -0.2110614994
N   N110      1.0  0.29195  0.34741  0.59276  1.0000 -0.2110614994
N   N111      1.0  0.75465  0.69919  0.40724  1.0000 -0.2110614994
N   N112      1.0  0.94919  0.04195  0.44454  1.0000 -0.2110614994
N   N113      1.0  0.81441  0.32696  0.89377  1.0000 -0.2183940878
N   N114      1.0  0.17064  0.56441  0.98745  1.0000 -0.2183940878
N   N115      1.0  0.57696  0.18319  0.01255  1.0000 -0.2183940878
N   N116      1.0  0.43319  0.92064  0.10623  1.0000 -0.2183940878
N   N117      1.0  0.43559  0.42304  0.60623  1.0000 -0.2183940878
N   N118      1.0  0.07936  0.18559  0.51255  1.0000 -0.2183940878
N   N119      1.0  0.67304  0.56681  0.48745  1.0000 -0.2183940878
N   N120      1.0  0.81681  0.82936  0.39377  1.0000 -0.2183940878
N   N121      1.0  0.79238  0.32278  0.86756  1.0000 -0.2005737375
N   N122      1.0  0.17482  0.54238  0.96960  1.0000 -0.2005737375
N   N123      1.0  0.57278  0.20522  0.03040  1.0000 -0.2005737375
N   N124      1.0  0.45522  0.92482  0.13244  1.0000 -0.2005737375
N   N125      1.0  0.45762  0.42722  0.63244  1.0000 -0.2005737375
N   N126      1.0  0.07518  0.20762  0.53040  1.0000 -0.2005737375
N   N127      1.0  0.67722  0.54478  0.46960  1.0000 -0.2005737375
N   N128      1.0  0.79478  0.82518  0.36756  1.0000 -0.2005737375
N   N129      1.0  0.62944  0.33095  0.01159  1.0000 -0.2183940878
N   N130      1.0  0.86785  0.37944  0.79849  1.0000 -0.2183940878
N   N131      1.0  0.58095  0.06936  0.20151  1.0000 -0.2183940878
N   N132      1.0  0.31936  0.61785  0.98841  1.0000 -0.2183940878
N   N133      1.0  0.62056  0.41905  0.48841  1.0000 -0.2183940878
N   N134      1.0  0.38215  0.37056  0.70151  1.0000 -0.2183940878
N   N135      1.0  0.66905  0.68064  0.29849  1.0000 -0.2183940878
N   N136      1.0  0.93064  0.13215  0.51159  1.0000 -0.2183940878
N   N137      1.0  0.65538  0.35070  0.98908  1.0000 -0.2110614994
N   N138      1.0  0.91630  0.40538  0.80468  1.0000 -0.2110614994
N   N139      1.0  0.60070  0.11162  0.19532  1.0000 -0.2110614994
N   N140      1.0  0.36162  0.66630  0.01092  1.0000 -0.2110614994
N   N141      1.0  0.59462  0.39930  0.51092  1.0000 -0.2110614994
N   N142      1.0  0.33370  0.34462  0.69532  1.0000 -0.2110614994
N   N143      1.0  0.64930  0.63838  0.30468  1.0000 -0.2110614994
N   N144      1.0  0.88838  0.08370  0.48908  1.0000 -0.2110614994
N   N145      1.0  0.23223  0.69610  0.87473  1.0000 -0.2183940878
N   N146      1.0  0.60750  0.98223  0.03613  1.0000 -0.2183940878
N   N147      1.0  0.94610  0.57137  0.96387  1.0000 -0.2183940878
N   N148      1.0  0.82137  0.35750  0.12527  1.0000 -0.2183940878
N   N149      1.0  0.01777  0.05390  0.62527  1.0000 -0.2183940878
N   N150      1.0  0.64250  0.76777  0.46387  1.0000 -0.2183940878
N   N151      1.0  0.30390  0.17863  0.53613  1.0000 -0.2183940878
N   N152      1.0  0.42863  0.39250  0.37473  1.0000 -0.2183940878
N   N153      1.0  0.26901  0.74266  0.89807  1.0000 -0.2005737375
N   N154      1.0  0.62094  0.01901  0.02635  1.0000 -0.2005737375
N   N155      1.0  0.99266  0.59459  0.97365  1.0000 -0.2005737375
N   N156      1.0  0.84459  0.37094  0.10193  1.0000 -0.2005737375
N   N157      1.0  0.98099  0.00734  0.60193  1.0000 -0.2005737375
N   N158      1.0  0.62906  0.73099  0.47365  1.0000 -0.2005737375
N   N159      1.0  0.25734  0.15541  0.52635  1.0000 -0.2005737375
N   N160      1.0  0.40541  0.37906  0.39807  1.0000 -0.2005737375
N   N161      1.0  0.08704  0.65586  0.91530  1.0000 -0.2183940878
N   N162      1.0  0.42174  0.83704  0.93118  1.0000 -0.2183940878
N   N163      1.0  0.90586  0.49056  0.06882  1.0000 -0.2183940878
N   N164      1.0  0.74056  0.17174  0.08470  1.0000 -0.2183940878
N   N165      1.0  0.16296  0.09414  0.58470  1.0000 -0.2183940878
N   N166      1.0  0.82826  0.91296  0.56882  1.0000 -0.2183940878
N   N167      1.0  0.34414  0.25944  0.43118  1.0000 -0.2183940878
N   N168      1.0  0.50944  0.57826  0.41530  1.0000 -0.2183940878
N   N169      1.0  0.07579  0.65439  0.88598  1.0000 -0.2005737375
N   N170      1.0  0.43981  0.82579  0.92140  1.0000 -0.2005737375
N   N171      1.0  0.90439  0.51841  0.07860  1.0000 -0.2005737375
N   N172      1.0  0.76841  0.18981  0.11402  1.0000 -0.2005737375
N   N173      1.0  0.17421  0.09561  0.61402  1.0000 -0.2005737375
N   N174      1.0  0.81019  0.92421  0.57860  1.0000 -0.2005737375
N   N175      1.0  0.34561  0.23159  0.42140  1.0000 -0.2005737375
N   N176      1.0  0.48159  0.56019  0.38598  1.0000 -0.2005737375
N   N177      1.0  0.32500  0.67964  0.85344  1.0000 -0.2005737375
N   N178      1.0  0.72156  0.07500  0.14536  1.0000 -0.2005737375
N   N179      1.0  0.92964  0.57620  0.85464  1.0000 -0.2005737375
N   N180      1.0  0.82620  0.47156  0.14656  1.0000 -0.2005737375
N   N181      1.0  0.92500  0.07036  0.64656  1.0000 -0.2005737375
N   N182      1.0  0.52844  0.67500  0.35464  1.0000 -0.2005737375
N   N183      1.0  0.32036  0.17380  0.64536  1.0000 -0.2005737375
N   N184      1.0  0.42380  0.27844  0.35344  1.0000 -0.2005737375
N   N185      1.0  0.27500  0.64991  0.84451  1.0000 -0.2110614994
N   N186      1.0  0.68049  0.02500  0.12509  1.0000 -0.2110614994
N   N187      1.0  0.89991  0.55540  0.87491  1.0000 -0.2110614994
N   N188      1.0  0.80540  0.43049  0.15549  1.0000 -0.2110614994
N   N189      1.0  0.97500  0.10009  0.65549  1.0000 -0.2110614994
N   N190      1.0  0.56951  0.72500  0.37491  1.0000 -0.2110614994
N   N191      1.0  0.35009  0.19460  0.62509  1.0000 -0.2110614994
N   N192      1.0  0.44460  0.31951  0.34451  1.0000 -0.2110614994
N   N193      1.0  0.30000  0.19885  0.32245  1.0000 -0.2110614994
N   N194      1.0  0.22755  0.05000  0.60115  1.0000 -0.2110614994
N   N195      1.0  0.44885  0.62640  0.39885  1.0000 -0.2110614994
N   N196      1.0  0.87640  0.97755  0.67755  1.0000 -0.2110614994
N   N197      1.0  0.95000  0.55115  0.17755  1.0000 -0.2110614994
N   N198      1.0  0.02245  0.70000  0.89885  1.0000 -0.2110614994
N   N199      1.0  0.80115  0.12360  0.10115  1.0000 -0.2110614994
N   N200      1.0  0.37360  0.77245  0.82245  1.0000 -0.2110614994
N   N201      1.0  0.27199  0.17759  0.34398  1.0000 -0.2183940878
N   N202      1.0  0.17801  0.02199  0.59440  1.0000 -0.2183940878
N   N203      1.0  0.42759  0.58361  0.40560  1.0000 -0.2183940878
N   N204      1.0  0.83361  0.92801  0.65602  1.0000 -0.2183940878
N   N205      1.0  0.97801  0.57241  0.15602  1.0000 -0.2183940878
N   N206      1.0  0.07199  0.72801  0.90560  1.0000 -0.2183940878
N   N207      1.0  0.82241  0.16639  0.09440  1.0000 -0.2183940878
N   N208      1.0  0.41639  0.82199  0.84398  1.0000 -0.2183940878
N   N209      1.0  0.25431  0.24633  0.38144  1.0000 -0.2183940878
N   N210      1.0  0.12287  0.00431  0.50798  1.0000 -0.2183940878
N   N211      1.0  0.49633  0.61489  0.49202  1.0000 -0.2183940878
N   N212      1.0  0.86489  0.87287  0.61856  1.0000 -0.2183940878
N   N213      1.0  0.99569  0.50367  0.11856  1.0000 -0.2183940878
N   N214      1.0  0.12713  0.74569  0.99202  1.0000 -0.2183940878
N   N215      1.0  0.75367  0.13511  0.00798  1.0000 -0.2110614994
N   N216      1.0  0.38511  0.87713  0.88144  1.0000 -0.2183940878
N   N217      1.0  0.26967  0.28436  0.37183  1.0000 -0.2110614994
N   N218      1.0  0.14784  0.01967  0.48531  1.0000 -0.2110614994
N   N219      1.0  0.53436  0.66253  0.51469  1.0000 -0.2110614994
N   N220      1.0  0.91253  0.89784  0.62817  1.0000 -0.2110614994
N   N221      1.0  0.98033  0.46564  0.12817  1.0000 -0.2110614994
N   N222      1.0  0.10216  0.73033  0.01469  1.0000 -0.2110614994
N   N223      1.0  0.71564  0.08747  0.98531  1.0000 -0.2110614994
N   N224      1.0  0.33747  0.85216  0.87183  1.0000 -0.2110614994
N   N225      1.0  0.33882  0.33182  0.29884  1.0000 -0.1922487469
N   N226      1.0  0.28998  0.08882  0.50700  1.0000 -0.1922487469
N   N227      1.0  0.58182  0.78298  0.49300  1.0000 -0.1922487469
N   N228      1.0  0.03298  0.03998  0.70116  1.0000 -0.1922487469
N   N229      1.0  0.91118  0.41818  0.20116  1.0000 -0.1922487469
N   N230      1.0  0.96002  0.66118  0.99300  1.0000 -0.1922487469
N   N231      1.0  0.66818  0.96702  0.00700  1.0000 -0.1922487469
N   N232      1.0  0.21702  0.71002  0.79884  1.0000 -0.1922487469
N   N233      1.0  0.35475  0.31725  0.29300  1.0000 -0.2110614994
N   N234      1.0  0.31175  0.10475  0.53750  1.0000 -0.2110614994
N   N235      1.0  0.56725  0.77425  0.46250  1.0000 -0.2110614994
N   N236      1.0  0.02425  0.06175  0.70700  1.0000 -0.2110614994
N   N237      1.0  0.89525  0.43275  0.20700  1.0000 -0.2110614994
N   N238      1.0  0.93825  0.64525  0.96250  1.0000 -0.2110614994
N   N239      1.0  0.68275  0.97575  0.03750  1.0000 -0.2110614994
N   N240      1.0  0.22575  0.68825  0.79300  1.0000 -0.2110614994
N   N241      1.0  0.84009  0.82848  0.84817  1.0000 -0.1922487469
N   N242      1.0  0.24192  0.59009  0.51161  1.0000 -0.1922487469
N   N243      1.0  0.07848  0.73031  0.48839  1.0000 -0.1922487469
N   N244      1.0  0.98031  0.99192  0.15183  1.0000 -0.1922487469
N   N245      1.0  0.40991  0.92152  0.65183  1.0000 -0.1922487469
N   N246      1.0  0.00808  0.15991  0.98839  1.0000 -0.1922487469
N   N247      1.0  0.17152  0.01969  0.01161  1.0000 -0.1922487469
N   N248      1.0  0.26969  0.75808  0.34817  1.0000 -0.1922487469
N   N249      1.0  0.89007  0.85764  0.85731  1.0000 -0.2110614994
N   N250      1.0  0.28276  0.64007  0.53243  1.0000 -0.2110614994
N   N251      1.0  0.10764  0.75033  0.46757  1.0000 -0.2110614994
N   N252      1.0  0.00033  0.03276  0.14269  1.0000 -0.2110614994
N   N253      1.0  0.35993  0.89236  0.64269  1.0000 -0.2110614994
N   N254      1.0  0.96724  0.10993  0.96757  1.0000 -0.2110614994
N   N255      1.0  0.14236  0.99967  0.03243  1.0000 -0.2110614994
N   N256      1.0  0.24967  0.71724  0.35731  1.0000 -0.2110614994
N   N257      1.0  0.90924  0.78975  0.82139  1.0000 -0.2110614994
N   N258      1.0  0.33785  0.65924  0.61949  1.0000 -0.2110614994
N   N259      1.0  0.03975  0.71836  0.38051  1.0000 -0.2110614994
N   N260      1.0  0.96836  0.08785  0.17861  1.0000 -0.2110614994
N   N261      1.0  0.34076  0.96025  0.67861  1.0000 -0.2110614994
N   N262      1.0  0.91215  0.09076  0.88051  1.0000 -0.2110614994
N   N263      1.0  0.21025  0.03164  0.11949  1.0000 -0.2110614994
N   N264      1.0  0.28164  0.66215  0.32139  1.0000 -0.2110614994
N   N265      1.0  0.86802  0.74082  0.79904  1.0000 -0.2005737375
N   N266      1.0  0.31898  0.61802  0.62720  1.0000 -0.2005737375
N   N267      1.0  0.99082  0.69178  0.37280  1.0000 -0.2005737375
N   N268      1.0  0.94178  0.06898  0.20096  1.0000 -0.2005737375
N   N269      1.0  0.38198  0.00918  0.70096  1.0000 -0.2005737375
N   N270      1.0  0.93102  0.13198  0.87280  1.0000 -0.2005737375
N   N271      1.0  0.25918  0.05822  0.12720  1.0000 -0.2005737375
N   N272      1.0  0.30822  0.68102  0.29904  1.0000 -0.2005737375
N   N273      1.0  0.71546  0.65142  0.77508  1.0000 -0.2005737375
N   N274      1.0  0.19038  0.46546  0.56404  1.0000 -0.2005737375
N   N275      1.0  0.90142  0.62634  0.43596  1.0000 -0.2005737375
N   N276      1.0  0.87634  0.94038  0.22492  1.0000 -0.2005737375
N   N277      1.0  0.53454  0.09858  0.72492  1.0000 -0.2005737375
N   N278      1.0  0.05962  0.28454  0.93596  1.0000 -0.2005737375
N   N279      1.0  0.34858  0.12366  0.06404  1.0000 -0.2005737375
N   N280      1.0  0.37366  0.80962  0.27508  1.0000 -0.2005737375
N   N281      1.0  0.70934  0.67263  0.78977  1.0000 -0.2110614994
N   N282      1.0  0.16957  0.45934  0.53671  1.0000 -0.2110614994
N   N283      1.0  0.92263  0.63286  0.46329  1.0000 -0.2110614994
N   N284      1.0  0.88286  0.91957  0.21023  1.0000 -0.2110614994
N   N285      1.0  0.54066  0.07737  0.71023  1.0000 -0.2110614994
N   N286      1.0  0.08043  0.29066  0.96329  1.0000 -0.2110614994
N   N287      1.0  0.32737  0.11714  0.03671  1.0000 -0.2110614994
N   N288      1.0  0.36714  0.83043  0.28977  1.0000 -0.2110614994
N   N289      1.0  0.95156  0.03326  0.88242  1.0000 -0.2110614994
N   N290      1.0  0.31914  0.70156  0.41830  1.0000 -0.2110614994
N   N291      1.0  0.28326  0.90084  0.58170  1.0000 -0.2110614994
N   N292      1.0  0.15084  0.06914  0.11758  1.0000 -0.2110614994
N   N293      1.0  0.29844  0.71674  0.61758  1.0000 -0.2110614994
N   N294      1.0  0.93086  0.04844  0.08170  1.0000 -0.2110614994
N   N295      1.0  0.96674  0.84916  0.91830  1.0000 -0.2110614994
N   N296      1.0  0.09916  0.68086  0.38242  1.0000 -0.2110614994
N   N297      1.0  0.97236  0.04133  0.91109  1.0000 -0.2110614994
N   N298      1.0  0.31127  0.72236  0.43103  1.0000 -0.2110614994
N   N299      1.0  0.29133  0.88024  0.56897  1.0000 -0.2110614994
N   N300      1.0  0.13024  0.06127  0.08891  1.0000 -0.2110614994
N   N301      1.0  0.27764  0.70867  0.58891  1.0000 -0.2110614994
N   N302      1.0  0.93873  0.02764  0.06897  1.0000 -0.2110614994
N   N303      1.0  0.95867  0.86976  0.93103  1.0000 -0.2110614994
N   N304      1.0  0.11976  0.68873  0.41109  1.0000 -0.2110614994
N   N305      1.0  0.09603  0.18746  0.97709  1.0000 -0.1922487469
N   N306      1.0  0.36894  0.84603  0.40857  1.0000 -0.1922487469
N   N307      1.0  0.43746  0.96037  0.59143  1.0000 -0.1922487469
N   N308      1.0  0.21037  0.11894  0.02291  1.0000 -0.1922487469
N   N309      1.0  0.15397  0.56254  0.52291  1.0000 -0.1922487469
N   N310      1.0  0.88106  0.90397  0.09143  1.0000 -0.1922487469
N   N311      1.0  0.81254  0.78963  0.90857  1.0000 -0.1922487469
N   N312      1.0  0.03963  0.63106  0.47709  1.0000 -0.1922487469
N   N313      1.0  0.12169  0.23285  0.97194  1.0000 -0.2110614994
N   N314      1.0  0.39975  0.87169  0.38884  1.0000 -0.2110614994
N   N315      1.0  0.48285  0.01091  0.61116  1.0000 -0.2110614994
N   N316      1.0  0.26091  0.14975  0.02806  1.0000 -0.2110614994
N   N317      1.0  0.12831  0.51715  0.52806  1.0000 -0.2110614994
N   N318      1.0  0.85025  0.87831  0.11116  1.0000 -0.2110614994
N   N319      1.0  0.76715  0.73909  0.88884  1.0000 -0.2110614994
N   N320      1.0  0.98909  0.60025  0.47194  1.0000 -0.2110614994
N   N321      1.0  0.07022  0.21798  0.88500  1.0000 -0.2110614994
N   N322      1.0  0.43522  0.82022  0.35224  1.0000 -0.2110614994
N   N323      1.0  0.46798  0.08298  0.64776  1.0000 -0.2110614994
N   N324      1.0  0.33298  0.18522  0.11500  1.0000 -0.2110614994
N   N325      1.0  0.17978  0.53202  0.61500  1.0000 -0.2110614994
N   N326      1.0  0.81478  0.92978  0.14776  1.0000 -0.2110614994
N   N327      1.0  0.78202  0.66702  0.85224  1.0000 -0.2110614994
N   N328      1.0  0.91702  0.56478  0.38500  1.0000 -0.2110614994
N   N329      1.0  0.02704  0.16916  0.86320  1.0000 -0.1922487469
N   N330      1.0  0.41384  0.77704  0.35788  1.0000 -0.1922487469
N   N331      1.0  0.41916  0.05596  0.64212  1.0000 -0.2005737375
N   N332      1.0  0.30596  0.16384  0.13680  1.0000 -0.1922487469
N   N333      1.0  0.22296  0.58084  0.63680  1.0000 -0.1922487469
N   N334      1.0  0.83616  0.97296  0.14212  1.0000 -0.1922487469
N   N335      1.0  0.83084  0.69404  0.85788  1.0000 -0.2005737375
N   N336      1.0  0.94404  0.58616  0.36320  1.0000 -0.2005737375
N   N337      1.0  0.47226  0.44536  0.11882  1.0000 -0.2110614994
N   N338      1.0  0.60344  0.22226  0.52690  1.0000 -0.2110614994
N   N339      1.0  0.69536  0.07654  0.47310  1.0000 -0.2183940878
N   N340      1.0  0.32654  0.35344  0.88118  1.0000 -0.2110614994
N   N341      1.0  0.77774  0.30464  0.38118  1.0000 -0.2110614994
N   N342      1.0  0.64656  0.52774  0.97310  1.0000 -0.2110614994
N   N343      1.0  0.55464  0.67346  0.02690  1.0000 -0.2110614994
N   N344      1.0  0.92346  0.39656  0.61882  1.0000 -0.2183940878
N   N345      1.0  0.44847  0.43485  0.09032  1.0000 -0.2110614994
N   N346      1.0  0.60815  0.19847  0.51362  1.0000 -0.2110614994
N   N347      1.0  0.68485  0.09453  0.48638  1.0000 -0.2110614994
N   N348      1.0  0.34453  0.35815  0.90968  1.0000 -0.2110614994
N   N349      1.0  0.80153  0.31515  0.40968  1.0000 -0.2110614994
N   N350      1.0  0.64185  0.55153  0.98638  1.0000 -0.2110614994
N   N351      1.0  0.56515  0.65547  0.01362  1.0000 -0.2110614994
N   N352      1.0  0.90547  0.39185  0.59032  1.0000 -0.2110614994
N   N353      1.0  0.29542  0.34013  0.06915  1.0000 -0.2183940878
N   N354      1.0  0.47627  0.04542  0.45529  1.0000 -0.2183940878
N   N355      1.0  0.59013  0.02098  0.54471  1.0000 -0.2183940878
N   N356      1.0  0.27098  0.22627  0.93085  1.0000 -0.2183940878
N   N357      1.0  0.95458  0.40987  0.43085  1.0000 -0.2183940878
N   N358      1.0  0.77373  0.70458  0.04471  1.0000 -0.2183940878
N   N359      1.0  0.65987  0.72902  0.95529  1.0000 -0.2183940878
N   N360      1.0  0.97902  0.52373  0.56915  1.0000 -0.2183940878
N   N361      1.0  0.26264  0.31466  0.08830  1.0000 -0.2005737375
N   N362      1.0  0.42434  0.01264  0.44798  1.0000 -0.2005737375
N   N363      1.0  0.56466  0.97636  0.55202  1.0000 -0.2005737375
N   N364      1.0  0.22636  0.17434  0.91170  1.0000 -0.2005737375
N   N365      1.0  0.98736  0.43534  0.41170  1.0000 -0.2005737375
N   N366      1.0  0.82566  0.73736  0.05202  1.0000 -0.2005737375
N   N367      1.0  0.68534  0.77364  0.94798  1.0000 -0.2005737375
N   N368      1.0  0.02364  0.57566  0.58830  1.0000 -0.2005737375
N   N369      1.0  0.32616  0.33465  0.17261  1.0000 -0.2183940878
N   N370      1.0  0.40355  0.07616  0.49151  1.0000 -0.2183940878
N   N371      1.0  0.58465  0.91204  0.50849  1.0000 -0.2183940878
N   N372      1.0  0.16204  0.15355  0.82739  1.0000 -0.2183940878
N   N373      1.0  0.92384  0.41535  0.32739  1.0000 -0.2183940878
N   N374      1.0  0.84645  0.67384  0.00849  1.0000 -0.2183940878
N   N375      1.0  0.66535  0.83796  0.99151  1.0000 -0.2183940878
N   N376      1.0  0.08796  0.59645  0.67261  1.0000 -0.2183940878
N   N377      1.0  0.37952  0.37079  0.17971  1.0000 -0.2110614994
N   N378      1.0  0.44981  0.12952  0.50873  1.0000 -0.2110614994
N   N379      1.0  0.62079  0.94108  0.49127  1.0000 -0.2110614994
N   N380      1.0  0.19108  0.19981  0.82029  1.0000 -0.2110614994
N   N381      1.0  0.87048  0.37921  0.32029  1.0000 -0.2110614994
N   N382      1.0  0.80019  0.62048  0.99127  1.0000 -0.2110614994
N   N383      1.0  0.62921  0.80892  0.00873  1.0000 -0.2110614994
N   N384      1.0  0.05892  0.55019  0.67971  1.0000 -0.2110614994
N   N385      1.0  0.67672  0.49421  0.02473  1.0000 -0.2110614994
N   N386      1.0  0.90199  0.42672  0.68251  1.0000 -0.2110614994
N   N387      1.0  0.74421  0.21948  0.31749  1.0000 -0.2110614994
N   N388      1.0  0.46948  0.65199  0.97527  1.0000 -0.2110614994
N   N389      1.0  0.57328  0.25579  0.47527  1.0000 -0.2110614994
N   N390      1.0  0.34801  0.32328  0.81749  1.0000 -0.2110614994
N   N391      1.0  0.50579  0.53052  0.18251  1.0000 -0.2110614994
N   N392      1.0  0.78052  0.09801  0.52473  1.0000 -0.2110614994
N   N393      1.0  0.73021  0.53167  0.03348  1.0000 -0.2110614994
N   N394      1.0  0.94673  0.48021  0.69854  1.0000 -0.2110614994
N   N395      1.0  0.78167  0.24819  0.30146  1.0000 -0.2110614994
N   N396      1.0  0.49819  0.69673  0.96652  1.0000 -0.2110614994
N   N397      1.0  0.51979  0.21833  0.46652  1.0000 -0.2110614994
N   N398      1.0  0.30327  0.26979  0.80146  1.0000 -0.2110614994
N   N399      1.0  0.46833  0.50181  0.19854  1.0000 -0.2110614994
N   N400      1.0  0.75181  0.05327  0.53348  1.0000 -0.2110614994
N   N401      1.0  0.84091  0.68217  0.09168  1.0000 -0.2183940878
N   N402      1.0  0.99923  0.59091  0.65874  1.0000 -0.2183940878
N   N403      1.0  0.93217  0.34049  0.34126  1.0000 -0.2183940878
N   N404      1.0  0.59049  0.74923  0.90832  1.0000 -0.2183940878
N   N405      1.0  0.40909  0.06783  0.40832  1.0000 -0.2183940878
N   N406      1.0  0.25077  0.15909  0.84126  1.0000 -0.2183940878
N   N407      1.0  0.31783  0.40951  0.15874  1.0000 -0.2183940878
N   N408      1.0  0.65951  0.00077  0.59168  1.0000 -0.2183940878
N   N409      1.0  0.82598  0.69474  0.10692  1.0000 -0.2110614994
N   N410      1.0  0.96906  0.57598  0.63124  1.0000 -0.2110614994
N   N411      1.0  0.94474  0.33782  0.36876  1.0000 -0.2110614994
N   N412      1.0  0.58782  0.71906  0.89308  1.0000 -0.2110614994
N   N413      1.0  0.42402  0.05526  0.39308  1.0000 -0.2110614994
N   N414      1.0  0.28094  0.17402  0.86876  1.0000 -0.2110614994
N   N415      1.0  0.30526  0.41218  0.13124  1.0000 -0.2110614994
N   N416      1.0  0.66218  0.03094  0.60692  1.0000 -0.2110614994
N   N417      1.0  0.66453  0.58295  0.07928  1.0000 -0.2183940878
N   N418      1.0  0.83525  0.41453  0.58158  1.0000 -0.2183940878
N   N419      1.0  0.83295  0.25367  0.41842  1.0000 -0.2183940878
N   N420      1.0  0.50367  0.58525  0.92072  1.0000 -0.2183940878
N   N421      1.0  0.58547  0.16705  0.42072  1.0000 -0.2183940878
N   N422      1.0  0.41475  0.33547  0.91842  1.0000 -0.2183940878
N   N423      1.0  0.41705  0.49633  0.08158  1.0000 -0.2183940878
N   N424      1.0  0.74633  0.16475  0.57928  1.0000 -0.2183940878
N   N425      1.0  0.62972  0.53535  0.05747  1.0000 -0.2110614994
N   N426      1.0  0.82225  0.37972  0.59437  1.0000 -0.2110614994
N   N427      1.0  0.78535  0.22788  0.40563  1.0000 -0.2110614994
N   N428      1.0  0.47788  0.57225  0.94253  1.0000 -0.2110614994
N   N429      1.0  0.62028  0.21465  0.44253  1.0000 -0.2110614994
N   N430      1.0  0.42775  0.37028  0.90563  1.0000 -0.2110614994
N   N431      1.0  0.46465  0.52212  0.09437  1.0000 -0.2110614994
N   N432      1.0  0.77212  0.17775  0.55747  1.0000 -0.2110614994
N   N433      1.0  0.11264  0.30026  0.77990  1.0000 -0.2005737375
N   N434      1.0  0.58274  0.86264  0.31238  1.0000 -0.2005737375
N   N435      1.0  0.55026  0.27036  0.68762  1.0000 -0.2005737375
N   N436      1.0  0.52036  0.33274  0.22010  1.0000 -0.2005737375
N   N437      1.0  0.13736  0.44974  0.72010  1.0000 -0.2005737375
N   N438      1.0  0.66726  0.88736  0.18762  1.0000 -0.2005737375
N   N439      1.0  0.69974  0.47964  0.81238  1.0000 -0.2005737375
N   N440      1.0  0.72964  0.41726  0.27990  1.0000 -0.2005737375
N   N441      1.0  0.10796  0.32203  0.79699  1.0000 -0.2110614994
N   N442      1.0  0.56097  0.85796  0.28593  1.0000 -0.2110614994
N   N443      1.0  0.57203  0.27504  0.71407  1.0000 -0.2110614994
N   N444      1.0  0.52504  0.31097  0.20301  1.0000 -0.2110614994
N   N445      1.0  0.14204  0.42797  0.70301  1.0000 -0.2110614994
N   N446      1.0  0.68903  0.89204  0.21407  1.0000 -0.2110614994
N   N447      1.0  0.67797  0.47496  0.78593  1.0000 -0.2110614994
N   N448      1.0  0.72496  0.43903  0.29699  1.0000 -0.2110614994
N   N449      1.0  0.19419  0.46822  0.79221  1.0000 -0.2110614994
N   N450      1.0  0.65198  0.94419  0.22597  1.0000 -0.2110614994
N   N451      1.0  0.71822  0.42601  0.77403  1.0000 -0.2110614994
N   N452      1.0  0.67601  0.40198  0.20779  1.0000 -0.2110614994
N   N453      1.0  0.05581  0.28178  0.70779  1.0000 -0.2110614994
N   N454      1.0  0.59802  0.80581  0.27403  1.0000 -0.2110614994
N   N455      1.0  0.53178  0.32399  0.72597  1.0000 -0.2110614994
N   N456      1.0  0.57399  0.34802  0.29221  1.0000 -0.2110614994
N   N457      1.0  0.22692  0.49532  0.77344  1.0000 -0.1922487469
N   N458      1.0  0.70348  0.97692  0.23160  1.0000 -0.1922487469
N   N459      1.0  0.74532  0.47188  0.76840  1.0000 -0.1922487469
N   N460      1.0  0.72188  0.45348  0.22656  1.0000 -0.1922487469
N   N461      1.0  0.02308  0.25468  0.72656  1.0000 -0.1922487469
N   N462      1.0  0.54652  0.77308  0.26840  1.0000 -0.1922487469
N   N463      1.0  0.50468  0.27812  0.73160  1.0000 -0.1922487469
N   N464      1.0  0.52812  0.29652  0.27344  1.0000 -0.1922487469
N   N465      1.0  0.23175  0.42522  0.71557  1.0000 -0.2291138637
N   N466      1.0  0.76618  0.98175  0.30653  1.0000 -0.2291138637
N   N467      1.0  0.67522  0.45965  0.69347  1.0000 -0.2291138637
N   N468      1.0  0.70965  0.51618  0.28443  1.0000 -0.2291138637
N   N469      1.0  0.01825  0.32478  0.78443  1.0000 -0.2291138637
N   N470      1.0  0.48382  0.76825  0.19347  1.0000 -0.2291138637
N   N471      1.0  0.57478  0.29035  0.80653  1.0000 -0.2291138637
N   N472      1.0  0.54035  0.23382  0.21557  1.0000 -0.2291138637
N   N473      1.0  0.20688  0.37935  0.71983  1.0000 -0.2110614994
N   N474      1.0  0.73705  0.95688  0.32753  1.0000 -0.2110614994
N   N475      1.0  0.62935  0.40952  0.67247  1.0000 -0.2110614994
N   N476      1.0  0.65952  0.48705  0.28017  1.0000 -0.2110614994
N   N477      1.0  0.04312  0.37065  0.78017  1.0000 -0.2110614994
N   N478      1.0  0.51295  0.79312  0.17247  1.0000 -0.2110614994
N   N479      1.0  0.62065  0.34048  0.82753  1.0000 -0.2110614994
N   N480      1.0  0.59048  0.26295  0.21983  1.0000 -0.2110614994
