# DDEC6 charges by PACMAN v1.1 (https://github.com/mtap-research/PACMAN-charge/)
data_2008[Tb][rtl]3[FSR]1
_chemical_formula_sum              "Tb4 H64 C48 N4 O32"
_cell_length_a       9.621
_cell_length_b       13.908
_cell_length_c       17.6113
_cell_angle_alpha    90
_cell_angle_beta     119.622
_cell_angle_gamma    90

_symmetry_space_group_name_H-M    "P 1"
_symmetry_Int_Tables_number       1

loop_
  _symmetry_equiv_pos_as_xyz
  'x, y, z'

loop_
  _atom_site_type_symbol
  _atom_site_label
  _atom_site_symmetry_multiplicity
  _atom_site_fract_x
  _atom_site_fract_y
  _atom_site_fract_z
  _atom_site_occupancy
  _atom_site_charge
Tb  Tb1       1.0  0.12820  0.88853  0.08586  1.0000 1.9724889925
Tb  Tb2       1.0  0.87180  0.38853  0.41414  1.0000 1.9724889925
Tb  Tb3       1.0  0.87180  0.11147  0.91414  1.0000 1.9724889925
Tb  Tb4       1.0  0.12820  0.61147  0.58586  1.0000 1.9724889925
H   H1        1.0  0.91560  0.10770  0.24820  1.0000 0.1116417368
H   H2        1.0  0.08440  0.60770  0.25180  1.0000 0.1116417368
H   H3        1.0  0.08440  0.89230  0.75180  1.0000 0.1116417368
H   H4        1.0  0.91560  0.39230  0.74820  1.0000 0.1116417368
H   H5        1.0  0.92280  0.18860  0.18820  1.0000 0.1116417368
H   H6        1.0  0.07720  0.68860  0.31180  1.0000 0.1195675039
H   H7        1.0  0.07720  0.81140  0.81180  1.0000 0.1195675039
H   H8        1.0  0.92280  0.31140  0.68820  1.0000 0.1195675039
H   H9        1.0  0.73210  0.11190  0.06600  1.0000 0.1195675039
H   H10       1.0  0.26790  0.61190  0.43400  1.0000 0.1195675039
H   H11       1.0  0.26790  0.88810  0.93400  1.0000 0.1195675039
H   H12       1.0  0.73210  0.38810  0.56600  1.0000 0.1195675039
H   H13       1.0  0.62390  0.96370  0.07150  1.0000 0.1116417368
H   H14       1.0  0.37610  0.46370  0.42850  1.0000 0.1116417368
H   H15       1.0  0.37610  0.03630  0.92850  1.0000 0.1116417368
H   H16       1.0  0.62390  0.53630  0.57150  1.0000 0.1116417368
H   H17       1.0  0.72470  0.96290  0.17390  1.0000 0.1116417368
H   H18       1.0  0.27530  0.46290  0.32610  1.0000 0.1116417368
H   H19       1.0  0.27530  0.03710  0.82610  1.0000 0.1116417368
H   H20       1.0  0.72470  0.53710  0.67390  1.0000 0.1116417368
H   H21       1.0  0.48240  0.09670  0.07470  1.0000 0.1116417368
H   H22       1.0  0.51760  0.59670  0.42530  1.0000 0.1116417368
H   H23       1.0  0.51760  0.90330  0.92530  1.0000 0.1116417368
H   H24       1.0  0.48240  0.40330  0.57470  1.0000 0.1116417368
H   H25       1.0  0.51220  0.16450  0.20230  1.0000 0.1195675039
H   H26       1.0  0.48780  0.66450  0.29770  1.0000 0.1195675039
H   H27       1.0  0.48780  0.83550  0.79770  1.0000 0.1195675039
H   H28       1.0  0.51220  0.33550  0.70230  1.0000 0.1195675039
H   H29       1.0  0.65310  0.09350  0.25880  1.0000 0.1025363995
H   H30       1.0  0.34690  0.59350  0.24120  1.0000 0.1025363995
H   H31       1.0  0.34690  0.90650  0.74120  1.0000 0.1025363995
H   H32       1.0  0.65310  0.40650  0.75880  1.0000 0.1025363995
H   H33       1.0  0.65920  0.23530  0.14500  1.0000 0.1025363995
H   H34       1.0  0.34080  0.73530  0.35500  1.0000 0.1025363995
H   H35       1.0  0.34080  0.76470  0.85500  1.0000 0.1025363995
H   H36       1.0  0.65920  0.26470  0.64500  1.0000 0.1025363995
H   H37       1.0  0.98780  0.66950  0.98470  1.0000 0.1116417368
H   H38       1.0  0.01220  0.16950  0.51530  1.0000 0.1116417368
H   H39       1.0  0.01220  0.33050  0.01530  1.0000 0.1116417368
H   H40       1.0  0.98780  0.83050  0.48470  1.0000 0.1116417368
H   H41       1.0  0.90530  0.54410  0.91180  1.0000 0.1302264823
H   H42       1.0  0.09470  0.04410  0.58820  1.0000 0.1302264823
H   H43       1.0  0.09470  0.45590  0.08820  1.0000 0.1302264823
H   H44       1.0  0.90530  0.95590  0.41180  1.0000 0.1302264823
H   H45       1.0  0.96370  0.52030  0.84510  1.0000 0.1557990616
H   H46       1.0  0.03630  0.02030  0.65490  1.0000 0.1557990616
H   H47       1.0  0.03630  0.47970  0.15490  1.0000 0.1557990616
H   H48       1.0  0.96370  0.97970  0.34510  1.0000 0.1557990616
H   H49       1.0  0.04860  0.47320  0.93810  1.0000 0.1302264823
H   H50       1.0  0.95140  0.97320  0.56190  1.0000 0.1302264823
H   H51       1.0  0.95140  0.52680  0.06190  1.0000 0.1302264823
H   H52       1.0  0.04860  0.02680  0.43810  1.0000 0.1302264823
H   H53       1.0  0.31240  0.65980  0.96080  1.0000 0.1511325507
H   H54       1.0  0.68760  0.15980  0.53920  1.0000 0.1511325507
H   H55       1.0  0.68760  0.34020  0.03920  1.0000 0.1511325507
H   H56       1.0  0.31240  0.84020  0.46080  1.0000 0.1511325507
H   H57       1.0  0.30930  0.54780  0.97000  1.0000 0.1353841765
H   H58       1.0  0.69070  0.04780  0.53000  1.0000 0.1353841765
H   H59       1.0  0.69070  0.45220  0.03000  1.0000 0.1353841765
H   H60       1.0  0.30930  0.95220  0.47000  1.0000 0.1353841765
H   H61       1.0  0.22660  0.59520  0.87710  1.0000 0.1511325507
H   H62       1.0  0.77340  0.09520  0.62290  1.0000 0.1511325507
H   H63       1.0  0.77340  0.40480  0.12290  1.0000 0.1511325507
H   H64       1.0  0.22660  0.90480  0.37710  1.0000 0.1511325507
C   C1        1.0  0.85280  0.14270  0.19410  1.0000 -0.190216401
C   C2        1.0  0.14720  0.64270  0.30590  1.0000 -0.190216401
C   C3        1.0  0.14720  0.85730  0.80590  1.0000 -0.190216401
C   C4        1.0  0.85280  0.35730  0.69410  1.0000 -0.190216401
C   C5        1.0  0.79000  0.07410  0.11970  1.0000 -0.1206573764
C   C6        1.0  0.21000  0.57410  0.38030  1.0000 -0.1206573764
C   C7        1.0  0.21000  0.92590  0.88030  1.0000 -0.1206573764
C   C8        1.0  0.79000  0.42590  0.61970  1.0000 -0.1206573764
C   C9        1.0  0.66940  0.00420  0.12310  1.0000 -0.1831394987
C   C10       1.0  0.33060  0.50420  0.37690  1.0000 -0.1831394987
C   C11       1.0  0.33060  0.99580  0.87690  1.0000 -0.1831394987
C   C12       1.0  0.66940  0.49580  0.62310  1.0000 -0.1831394987
C   C13       1.0  0.53510  0.05750  0.12780  1.0000 -0.1097553031
C   C14       1.0  0.46490  0.55750  0.37220  1.0000 -0.1097553031
C   C15       1.0  0.46490  0.94250  0.87220  1.0000 -0.1097553031
C   C16       1.0  0.53510  0.44250  0.62780  1.0000 -0.1097553031
C   C17       1.0  0.60000  0.12840  0.20400  1.0000 -0.190216401
C   C18       1.0  0.40000  0.62840  0.29600  1.0000 -0.190216401
C   C19       1.0  0.40000  0.87160  0.79600  1.0000 -0.190216401
C   C20       1.0  0.60000  0.37160  0.70400  1.0000 -0.190216401
C   C21       1.0  0.71730  0.19720  0.19850  1.0000 -0.1097553031
C   C22       1.0  0.28270  0.69720  0.30150  1.0000 -0.1097553031
C   C23       1.0  0.28270  0.80280  0.80150  1.0000 -0.1097553031
C   C24       1.0  0.71730  0.30280  0.69850  1.0000 -0.1097553031
C   C25       1.0  0.40610  0.99060  0.12390  1.0000 0.5599189332
C   C26       1.0  0.59390  0.49060  0.37610  1.0000 0.5599189332
C   C27       1.0  0.59390  0.00940  0.87610  1.0000 0.5599189332
C   C28       1.0  0.40610  0.50940  0.62390  1.0000 0.5599189332
C   C29       1.0  0.92100  0.01800  0.11320  1.0000 0.6068601838
C   C30       1.0  0.07900  0.51800  0.38680  1.0000 0.6068601838
C   C31       1.0  0.07900  0.98200  0.88680  1.0000 0.6068601838
C   C32       1.0  0.92100  0.48200  0.61320  1.0000 0.6068601838
C   C33       1.0  0.77960  0.26420  0.27490  1.0000 0.5709167352
C   C34       1.0  0.22040  0.76420  0.22510  1.0000 0.5709167352
C   C35       1.0  0.22040  0.73580  0.72510  1.0000 0.5709167352
C   C36       1.0  0.77960  0.23580  0.77490  1.0000 0.5709167352
C   C37       1.0  0.07880  0.67610  0.97980  1.0000 0.2918769649
C   C38       1.0  0.92120  0.17610  0.52020  1.0000 0.2918769649
C   C39       1.0  0.92120  0.32390  0.02020  1.0000 0.2918769649
C   C40       1.0  0.07880  0.82390  0.47980  1.0000 0.2918769649
C   C41       1.0  0.99670  0.53020  0.90570  1.0000 -0.3509471857
C   C42       1.0  0.00330  0.03020  0.59430  1.0000 -0.3509471857
C   C43       1.0  0.00330  0.46980  0.09430  1.0000 -0.3509471857
C   C44       1.0  0.99670  0.96980  0.40570  1.0000 -0.3509471857
C   C45       1.0  0.25050  0.60260  0.93650  1.0000 -0.2881551007
C   C46       1.0  0.74950  0.10260  0.56350  1.0000 -0.2881551007
C   C47       1.0  0.74950  0.39740  0.06350  1.0000 -0.2881551007
C   C48       1.0  0.25050  0.89740  0.43650  1.0000 -0.2881551007
N   N1        1.0  0.10770  0.60990  0.93870  1.0000 0.0275670687
N   N2        1.0  0.89230  0.10990  0.56130  1.0000 0.0275670687
N   N3        1.0  0.89230  0.39010  0.06130  1.0000 0.0275670687
N   N4        1.0  0.10770  0.89010  0.43870  1.0000 0.0275670687
O   O1        1.0  0.29820  0.02980  0.13640  1.0000 -0.5667081395
O   O2        1.0  0.70180  0.52980  0.36360  1.0000 -0.5667081395
O   O3        1.0  0.70180  0.97020  0.86360  1.0000 -0.5667081395
O   O4        1.0  0.29820  0.47020  0.63640  1.0000 -0.5667081395
O   O5        1.0  0.85910  0.83110  0.98840  1.0000 -0.3798089096
O   O6        1.0  0.14090  0.33110  0.51160  1.0000 -0.3798089096
O   O7        1.0  0.14090  0.16890  0.01160  1.0000 -0.3798089096
O   O8        1.0  0.85910  0.66890  0.48840  1.0000 -0.3798089096
O   O9        1.0  0.39670  0.90450  0.10320  1.0000 -0.5905364671
O   O10       1.0  0.60330  0.40450  0.39680  1.0000 -0.5905364671
O   O11       1.0  0.60330  0.09550  0.89680  1.0000 -0.5905364671
O   O12       1.0  0.39670  0.59550  0.60320  1.0000 -0.5905364671
O   O13       1.0  0.99910  0.95440  0.16670  1.0000 -0.5610118875
O   O14       1.0  0.00090  0.45440  0.33333  1.0000 -0.5610118875
O   O15       1.0  0.00090  0.04560  0.83330  1.0000 -0.5610118875
O   O16       1.0  0.99910  0.54560  0.66667  1.0000 -0.5610118875
O   O17       1.0  0.94390  0.03710  0.05030  1.0000 -0.6475166449
O   O18       1.0  0.05610  0.53710  0.44970  1.0000 -0.6475166449
O   O19       1.0  0.05610  0.96290  0.94970  1.0000 -0.6475166449
O   O20       1.0  0.94390  0.46290  0.55030  1.0000 -0.6475166449
O   O21       1.0  0.69290  0.33470  0.26810  1.0000 -0.6062248269
O   O22       1.0  0.30710  0.83470  0.23190  1.0000 -0.6062248269
O   O23       1.0  0.30710  0.66530  0.73190  1.0000 -0.6062248269
O   O24       1.0  0.69290  0.16530  0.76810  1.0000 -0.6062248269
O   O25       1.0  0.91080  0.25050  0.34370  1.0000 -0.5905364671
O   O26       1.0  0.08920  0.75050  0.15630  1.0000 -0.5905364671
O   O27       1.0  0.08920  0.74950  0.65630  1.0000 -0.5905364671
O   O28       1.0  0.91080  0.24950  0.84370  1.0000 -0.5905364671
O   O29       1.0  0.16350  0.74840  0.01400  1.0000 -0.5183468232
O   O30       1.0  0.83650  0.24840  0.48600  1.0000 -0.5183468232
O   O31       1.0  0.83650  0.25160  0.98600  1.0000 -0.5183468232
O   O32       1.0  0.16350  0.75160  0.51400  1.0000 -0.5183468232
