# DDEC6 charges by PACMAN v1.1 (https://github.com/mtap-research/PACMAN-charge/)
data_2008[Cd][sxd]3[FSR]1
_chemical_formula_sum              "Cd4 H28 C18 N12 O12"
_cell_length_a       12.9197
_cell_length_b       12.9197
_cell_length_c       8.6482
_cell_angle_alpha    71.9649
_cell_angle_beta     108.035
_cell_angle_gamma    60.6501

_symmetry_space_group_name_H-M    "P 1"
_symmetry_Int_Tables_number       1

loop_
  _symmetry_equiv_pos_as_xyz
  'x, y, z'

loop_
  _atom_site_type_symbol
  _atom_site_label
  _atom_site_symmetry_multiplicity
  _atom_site_fract_x
  _atom_site_fract_y
  _atom_site_fract_z
  _atom_site_occupancy
  _atom_site_charge
Cd  Cd1       1.0  0.52948  0.25674  0.48544  1.0000 0.7963753597
Cd  Cd2       1.0  0.74326  0.47052  0.98544  1.0000 0.7963753597
Cd  Cd3       1.0  0.71019  0.97743  0.01885  1.0000 0.8334794299
Cd  Cd4       1.0  0.02257  0.28981  0.51885  1.0000 0.8334794299
H   H1        1.0  0.62030  0.00850  0.28580  1.0000 0.3842970984
H   H2        1.0  0.99150  0.37970  0.78580  1.0000 0.3842970984
H   H3        1.0  0.61620  0.90660  0.25350  1.0000 0.3600935371
H   H4        1.0  0.09340  0.38380  0.75350  1.0000 0.3600935371
H   H5        1.0  0.01530  0.78010  0.35740  1.0000 0.3713348167
H   H6        1.0  0.21990  0.98470  0.85740  1.0000 0.3713348167
H   H7        1.0  0.93840  0.92540  0.30780  1.0000 0.3600935371
H   H8        1.0  0.07460  0.06160  0.80780  1.0000 0.3600935371
H   H9        1.0  0.20910  0.33290  0.36500  1.0000 0.1220944192
H   H10       1.0  0.66710  0.79090  0.86500  1.0000 0.1220944192
H   H11       1.0  0.38920  0.03260  0.89290  1.0000 0.0960619108
H   H12       1.0  0.96740  0.61080  0.39290  1.0000 0.0960619108
H   H13       1.0  0.54030  0.47590  0.61700  1.0000 0.1220944192
H   H14       1.0  0.52410  0.45970  0.11700  1.0000 0.1220944192
H   H15       1.0  0.76300  0.17980  0.16320  1.0000 0.1094532919
H   H16       1.0  0.82020  0.23700  0.66320  1.0000 0.1094532919
H   H17       1.0  0.83570  0.76930  0.71630  1.0000 0.1331143634
H   H18       1.0  0.23070  0.16430  0.21630  1.0000 0.1331143634
H   H19       1.0  0.88910  0.82770  0.60470  1.0000 0.1094532919
H   H20       1.0  0.17230  0.11090  0.10470  1.0000 0.1094532919
H   H21       1.0  0.99600  0.72480  0.00330  1.0000 0.0933800893
H   H22       1.0  0.27520  0.00400  0.50330  1.0000 0.0933800893
H   H23       1.0  0.05070  0.78110  0.89090  1.0000 0.0933800893
H   H24       1.0  0.21890  0.94930  0.39090  1.0000 0.0933800893
H   H25       1.0  0.07320  0.54400  0.94730  1.0000 0.1094532919
H   H26       1.0  0.45600  0.92680  0.44730  1.0000 0.1094532919
H   H27       1.0  0.13030  0.59910  0.84000  1.0000 0.1094532919
H   H28       1.0  0.40090  0.86970  0.34000  1.0000 0.1094532919
C   C1        1.0  0.27732  0.25612  0.49520  1.0000 0.1450954781
C   C2        1.0  0.74388  0.72268  0.99520  1.0000 0.1450954781
C   C3        1.0  0.37432  0.09392  0.78080  1.0000 0.1220944192
C   C4        1.0  0.90608  0.62568  0.28080  1.0000 0.1220944192
C   C5        1.0  0.58628  0.39148  0.73260  1.0000 0.155209835
C   C6        1.0  0.60852  0.41372  0.23260  1.0000 0.155209835
C   C7        1.0  0.70649  0.23149  0.02730  1.0000 0.1220944192
C   C8        1.0  0.76851  0.29351  0.52730  1.0000 0.1220944192
C   C9        1.0  0.75659  0.96899  0.64690  1.0000 0.6148039953
C   C10       1.0  0.03101  0.24341  0.14690  1.0000 0.6148039953
C   C11       1.0  0.87128  0.82048  0.70700  1.0000 -0.3509144156
C   C12       1.0  0.17952  0.12872  0.20700  1.0000 -0.3509144156
C   C13       1.0  0.01199  0.73299  0.89930  1.0000 -0.09764484
C   C14       1.0  0.26701  0.98801  0.39930  1.0000 -0.09764484
C   C15       1.0  0.11603  0.58823  0.94580  1.0000 -0.3301636521
C   C16       1.0  0.41177  0.88397  0.44580  1.0000 -0.3301636521
C   C17       1.0  0.26101  0.48641  0.13590  1.0000 0.6042064683
C   C18       1.0  0.51359  0.73899  0.63590  1.0000 0.6042064683
N   N1        1.0  0.47790  0.08650  0.77210  1.0000 -0.2245223864
N   N2        1.0  0.91350  0.52210  0.27210  1.0000 -0.2245223864
N   N3        1.0  0.41363  0.19283  0.58360  1.0000 -0.1807910545
N   N4        1.0  0.80717  0.58637  0.08360  1.0000 -0.1807910545
N   N5        1.0  0.24626  0.19846  0.61250  1.0000 -0.3509144156
N   N6        1.0  0.80154  0.75374  0.11250  1.0000 -0.3509144156
N   N7        1.0  0.66022  0.18642  0.93130  1.0000 -0.2133086665
N   N8        1.0  0.81358  0.33978  0.43130  1.0000 -0.2133086665
N   N9        1.0  0.58108  0.29168  0.73760  1.0000 -0.1986292495
N   N10       1.0  0.70832  0.41892  0.23760  1.0000 -0.1986292495
N   N11       1.0  0.66405  0.35965  0.90970  1.0000 -0.3242921276
N   N12       1.0  0.64035  0.33595  0.40970  1.0000 -0.3301636521
O   O1        1.0  0.76493  0.00293  0.76900  1.0000 -0.5910522087
O   O2        1.0  0.99707  0.23507  0.26900  1.0000 -0.5910522087
O   O3        1.0  0.65326  0.05606  0.47220  1.0000 -0.5504384382
O   O4        1.0  0.94394  0.34674  0.97220  1.0000 -0.5504384382
O   O5        1.0  0.28560  0.51320  0.26360  1.0000 -0.6012826903
O   O6        1.0  0.48680  0.71440  0.76360  1.0000 -0.6012826903
O   O7        1.0  0.35344  0.37124  0.16290  1.0000 -0.5749636038
O   O8        1.0  0.62876  0.64656  0.66290  1.0000 -0.5749636038
O   O9        1.0  0.61954  0.97334  0.21740  1.0000 -0.6959225877
O   O10       1.0  0.02666  0.38046  0.71740  1.0000 -0.6959225877
O   O11       1.0  0.93937  0.86737  0.28020  1.0000 -0.6793407543
O   O12       1.0  0.13263  0.06063  0.78020  1.0000 -0.6793407543
