# DDEC6 charges by PACMAN v1.1 (https://github.com/mtap-research/PACMAN-charge/)
data_2008[LaCu][stp]3[FSR]3
_chemical_formula_sum              "La4 Cu6 H60 C48 N12 O48"
_cell_length_a       13.5156
_cell_length_b       13.5156
_cell_length_c       14.872
_cell_angle_alpha    90
_cell_angle_beta     90
_cell_angle_gamma    120

_symmetry_space_group_name_H-M    "P 1"
_symmetry_Int_Tables_number       1

loop_
  _symmetry_equiv_pos_as_xyz
  'x, y, z'

loop_
  _atom_site_type_symbol
  _atom_site_label
  _atom_site_symmetry_multiplicity
  _atom_site_fract_x
  _atom_site_fract_y
  _atom_site_fract_z
  _atom_site_occupancy
  _atom_site_charge
La  La1       1.0  0.33333  0.66667  0.66823  1.0000 1.8608704878
La  La2       1.0  0.66667  0.33333  0.83177  1.0000 1.8608704878
La  La3       1.0  0.66667  0.33333  0.33177  1.0000 1.8608704878
La  La4       1.0  0.33333  0.66667  0.16823  1.0000 1.8608704878
Cu  Cu1       1.0  0.50000  0.50000  0.50000  1.0000 0.741001345
Cu  Cu2       1.0  0.50000  0.00000  0.50000  1.0000 0.741001345
Cu  Cu3       1.0  0.00000  0.50000  0.50000  1.0000 0.741001345
Cu  Cu4       1.0  0.50000  0.50000  0.00000  1.0000 0.741001345
Cu  Cu5       1.0  0.00000  0.50000  0.00000  1.0000 0.741001345
Cu  Cu6       1.0  0.50000  0.00000  0.00000  1.0000 0.741001345
H   H1        1.0  0.24380  0.28770  0.54280  1.0000 0.1380859462
H   H2        1.0  0.71230  0.95610  0.54280  1.0000 0.1380859462
H   H3        1.0  0.04390  0.75620  0.54280  1.0000 0.1380859462
H   H4        1.0  0.28770  0.24380  0.95720  1.0000 0.1380859462
H   H5        1.0  0.95610  0.71230  0.95720  1.0000 0.1380859462
H   H6        1.0  0.75620  0.04390  0.95720  1.0000 0.1380859462
H   H7        1.0  0.75620  0.71230  0.45720  1.0000 0.1380859462
H   H8        1.0  0.28770  0.04390  0.45720  1.0000 0.1380859462
H   H9        1.0  0.95610  0.24380  0.45720  1.0000 0.1380859462
H   H10       1.0  0.71230  0.75620  0.04280  1.0000 0.1380859462
H   H11       1.0  0.04390  0.28770  0.04280  1.0000 0.1380859462
H   H12       1.0  0.24380  0.95610  0.04280  1.0000 0.1380859462
H   H13       1.0  0.35220  0.33030  0.42400  1.0000 0.2560925855
H   H14       1.0  0.66970  0.02190  0.42400  1.0000 0.2560925855
H   H15       1.0  0.97810  0.64780  0.42400  1.0000 0.2560925855
H   H16       1.0  0.33030  0.35220  0.07600  1.0000 0.2560925855
H   H17       1.0  0.02190  0.66970  0.07600  1.0000 0.2560925855
H   H18       1.0  0.64780  0.97810  0.07600  1.0000 0.2560925855
H   H19       1.0  0.64780  0.66970  0.57600  1.0000 0.2560925855
H   H20       1.0  0.33030  0.97810  0.57600  1.0000 0.2560925855
H   H21       1.0  0.02190  0.35220  0.57600  1.0000 0.2560925855
H   H22       1.0  0.66970  0.64780  0.92400  1.0000 0.2560925855
H   H23       1.0  0.97810  0.33030  0.92400  1.0000 0.2560925855
H   H24       1.0  0.35220  0.02190  0.92400  1.0000 0.2560925855
H   H25       1.0  0.20240  0.34570  0.46450  1.0000 0.1380859462
H   H26       1.0  0.65430  0.85670  0.46450  1.0000 0.1380859462
H   H27       1.0  0.14330  0.79760  0.46450  1.0000 0.1380859462
H   H28       1.0  0.34570  0.20240  0.03550  1.0000 0.1380859462
H   H29       1.0  0.85670  0.65430  0.03550  1.0000 0.1380859462
H   H30       1.0  0.79760  0.14330  0.03550  1.0000 0.1380859462
H   H31       1.0  0.79760  0.65430  0.53550  1.0000 0.1380859462
H   H32       1.0  0.34570  0.14330  0.53550  1.0000 0.1380859462
H   H33       1.0  0.85670  0.20240  0.53550  1.0000 0.1380859462
H   H34       1.0  0.65430  0.79760  0.96450  1.0000 0.1380859462
H   H35       1.0  0.14330  0.34570  0.96450  1.0000 0.1380859462
H   H36       1.0  0.20240  0.85670  0.96450  1.0000 0.1380859462
H   H37       1.0  0.27530  0.46300  0.38050  1.0000 0.1550101264
H   H38       1.0  0.53700  0.81230  0.38050  1.0000 0.1550101264
H   H39       1.0  0.18770  0.72470  0.38050  1.0000 0.1550101264
H   H40       1.0  0.46300  0.27530  0.11950  1.0000 0.1550101264
H   H41       1.0  0.81230  0.53700  0.11950  1.0000 0.1550101264
H   H42       1.0  0.72470  0.18770  0.11950  1.0000 0.1550101264
H   H43       1.0  0.72470  0.53700  0.61950  1.0000 0.1550101264
H   H44       1.0  0.46300  0.18770  0.61950  1.0000 0.1550101264
H   H45       1.0  0.81230  0.27530  0.61950  1.0000 0.1550101264
H   H46       1.0  0.53700  0.72470  0.88050  1.0000 0.1550101264
H   H47       1.0  0.18770  0.46300  0.88050  1.0000 0.1550101264
H   H48       1.0  0.27530  0.81230  0.88050  1.0000 0.1550101264
H   H49       1.0  0.33020  0.39750  0.31480  1.0000 0.1485322849
H   H50       1.0  0.60250  0.93270  0.31480  1.0000 0.1485322849
H   H51       1.0  0.06730  0.66980  0.31480  1.0000 0.1485322849
H   H52       1.0  0.39750  0.33020  0.18520  1.0000 0.1485322849
H   H53       1.0  0.93270  0.60250  0.18520  1.0000 0.1485322849
H   H54       1.0  0.66980  0.06730  0.18520  1.0000 0.1485322849
H   H55       1.0  0.66980  0.60250  0.68520  1.0000 0.1485322849
H   H56       1.0  0.39750  0.06730  0.68520  1.0000 0.1485322849
H   H57       1.0  0.93270  0.33020  0.68520  1.0000 0.1485322849
H   H58       1.0  0.60250  0.66980  0.81480  1.0000 0.1485322849
H   H59       1.0  0.06730  0.39750  0.81480  1.0000 0.1485322849
H   H60       1.0  0.33020  0.93270  0.81480  1.0000 0.1485322849
C   C1        1.0  0.27250  0.45260  0.56590  1.0000 0.6053157224
C   C2        1.0  0.54740  0.81990  0.56590  1.0000 0.6053157224
C   C3        1.0  0.18010  0.72750  0.56590  1.0000 0.6053157224
C   C4        1.0  0.45260  0.27250  0.93410  1.0000 0.6053157224
C   C5        1.0  0.81990  0.54740  0.93410  1.0000 0.6053157224
C   C6        1.0  0.72750  0.18010  0.93410  1.0000 0.6053157224
C   C7        1.0  0.72750  0.54740  0.43410  1.0000 0.6053157224
C   C8        1.0  0.45260  0.18010  0.43410  1.0000 0.6053157224
C   C9        1.0  0.81990  0.27250  0.43410  1.0000 0.6053157224
C   C10       1.0  0.54740  0.72750  0.06590  1.0000 0.6053157224
C   C11       1.0  0.18010  0.45260  0.06590  1.0000 0.6053157224
C   C12       1.0  0.27250  0.81990  0.06590  1.0000 0.6053157224
C   C13       1.0  0.25650  0.35290  0.50890  1.0000 -0.2478658261
C   C14       1.0  0.64710  0.90360  0.50890  1.0000 -0.2478658261
C   C15       1.0  0.09640  0.74350  0.50890  1.0000 -0.2478658261
C   C16       1.0  0.35290  0.25650  0.99110  1.0000 -0.2478658261
C   C17       1.0  0.90360  0.64710  0.99110  1.0000 -0.2478658261
C   C18       1.0  0.74350  0.09640  0.99110  1.0000 -0.2478658261
C   C19       1.0  0.74350  0.64710  0.49110  1.0000 -0.2478658261
C   C20       1.0  0.35290  0.09640  0.49110  1.0000 -0.2478658261
C   C21       1.0  0.90360  0.25650  0.49110  1.0000 -0.2478658261
C   C22       1.0  0.64710  0.74350  0.00890  1.0000 -0.2478658261
C   C23       1.0  0.09640  0.35290  0.00890  1.0000 -0.2478658261
C   C24       1.0  0.25650  0.90360  0.00890  1.0000 -0.2478658261
C   C25       1.0  0.33350  0.44590  0.36340  1.0000 -0.2624234136
C   C26       1.0  0.55410  0.88760  0.36340  1.0000 -0.2624234136
C   C27       1.0  0.11240  0.66650  0.36340  1.0000 -0.2624234136
C   C28       1.0  0.44590  0.33350  0.13660  1.0000 -0.2624234136
C   C29       1.0  0.88760  0.55410  0.13660  1.0000 -0.2624234136
C   C30       1.0  0.66650  0.11240  0.13660  1.0000 -0.2624234136
C   C31       1.0  0.66650  0.55410  0.63660  1.0000 -0.2624234136
C   C32       1.0  0.44590  0.11240  0.63660  1.0000 -0.2624234136
C   C33       1.0  0.88760  0.33350  0.63660  1.0000 -0.2624234136
C   C34       1.0  0.55410  0.66650  0.86340  1.0000 -0.2624234136
C   C35       1.0  0.11240  0.44590  0.86340  1.0000 -0.2624234136
C   C36       1.0  0.33350  0.88760  0.86340  1.0000 -0.2624234136
C   C37       1.0  0.44010  0.56120  0.34340  1.0000 0.6376642459
C   C38       1.0  0.43880  0.87890  0.34340  1.0000 0.6376642459
C   C39       1.0  0.12110  0.55990  0.34340  1.0000 0.6376642459
C   C40       1.0  0.56120  0.44010  0.15660  1.0000 0.6376642459
C   C41       1.0  0.87890  0.43880  0.15660  1.0000 0.6376642459
C   C42       1.0  0.55990  0.12110  0.15660  1.0000 0.6376642459
C   C43       1.0  0.55990  0.43880  0.65660  1.0000 0.6376642459
C   C44       1.0  0.56120  0.12110  0.65660  1.0000 0.6376642459
C   C45       1.0  0.87890  0.44010  0.65660  1.0000 0.6376642459
C   C46       1.0  0.43880  0.55990  0.84340  1.0000 0.6376642459
C   C47       1.0  0.12110  0.56120  0.84340  1.0000 0.6376642459
C   C48       1.0  0.44010  0.87890  0.84340  1.0000 0.6376642459
N   N1        1.0  0.34910  0.39060  0.44300  1.0000 -0.2478658261
N   N2        1.0  0.60940  0.95850  0.44300  1.0000 -0.2478658261
N   N3        1.0  0.04150  0.65090  0.44300  1.0000 -0.2478658261
N   N4        1.0  0.39060  0.34910  0.05700  1.0000 -0.2478658261
N   N5        1.0  0.95850  0.60940  0.05700  1.0000 -0.2478658261
N   N6        1.0  0.65090  0.04150  0.05700  1.0000 -0.2478658261
N   N7        1.0  0.65090  0.60940  0.55700  1.0000 -0.2478658261
N   N8        1.0  0.39060  0.04150  0.55700  1.0000 -0.2478658261
N   N9        1.0  0.95850  0.34910  0.55700  1.0000 -0.2478658261
N   N10       1.0  0.60940  0.65090  0.94300  1.0000 -0.2478658261
N   N11       1.0  0.04150  0.39060  0.94300  1.0000 -0.2478658261
N   N12       1.0  0.34910  0.95850  0.94300  1.0000 -0.2478658261
O   O1        1.0  0.36500  0.54780  0.55500  1.0000 -0.6280834155
O   O2        1.0  0.45220  0.81720  0.55500  1.0000 -0.6280834155
O   O3        1.0  0.18280  0.63500  0.55500  1.0000 -0.6280834155
O   O4        1.0  0.54780  0.36500  0.94500  1.0000 -0.6280834155
O   O5        1.0  0.81720  0.45220  0.94500  1.0000 -0.6280834155
O   O6        1.0  0.63500  0.18280  0.94500  1.0000 -0.6280834155
O   O7        1.0  0.63500  0.45220  0.44500  1.0000 -0.6280834155
O   O8        1.0  0.54780  0.18280  0.44500  1.0000 -0.6280834155
O   O9        1.0  0.81720  0.36500  0.44500  1.0000 -0.6280834155
O   O10       1.0  0.45220  0.63500  0.05500  1.0000 -0.6280834155
O   O11       1.0  0.18280  0.54780  0.05500  1.0000 -0.6280834155
O   O12       1.0  0.36500  0.81720  0.05500  1.0000 -0.6280834155
O   O13       1.0  0.19910  0.44020  0.62210  1.0000 -0.5741080271
O   O14       1.0  0.55980  0.75890  0.62210  1.0000 -0.5741080271
O   O15       1.0  0.24110  0.80090  0.62210  1.0000 -0.5741080271
O   O16       1.0  0.44020  0.19910  0.87790  1.0000 -0.5741080271
O   O17       1.0  0.75890  0.55980  0.87790  1.0000 -0.5741080271
O   O18       1.0  0.80090  0.24110  0.87790  1.0000 -0.5741080271
O   O19       1.0  0.80090  0.55980  0.37790  1.0000 -0.5741080271
O   O20       1.0  0.44020  0.24110  0.37790  1.0000 -0.5741080271
O   O21       1.0  0.75890  0.19910  0.37790  1.0000 -0.5741080271
O   O22       1.0  0.55980  0.80090  0.12210  1.0000 -0.5741080271
O   O23       1.0  0.24110  0.44020  0.12210  1.0000 -0.5741080271
O   O24       1.0  0.19910  0.75890  0.12210  1.0000 -0.5741080271
O   O25       1.0  0.52460  0.59710  0.39440  1.0000 -0.5036740528
O   O26       1.0  0.40290  0.92750  0.39440  1.0000 -0.5036740528
O   O27       1.0  0.07250  0.47540  0.39440  1.0000 -0.5036740528
O   O28       1.0  0.59710  0.52460  0.10560  1.0000 -0.5036740528
O   O29       1.0  0.92750  0.40290  0.10560  1.0000 -0.5036740528
O   O30       1.0  0.47540  0.07250  0.10560  1.0000 -0.5036740528
O   O31       1.0  0.47540  0.40290  0.60560  1.0000 -0.5036740528
O   O32       1.0  0.59710  0.07250  0.60560  1.0000 -0.5036740528
O   O33       1.0  0.92750  0.52460  0.60560  1.0000 -0.5036740528
O   O34       1.0  0.40290  0.47540  0.89440  1.0000 -0.5036740528
O   O35       1.0  0.07250  0.59710  0.89440  1.0000 -0.5036740528
O   O36       1.0  0.52460  0.92750  0.89440  1.0000 -0.5036740528
O   O37       1.0  0.43680  0.61380  0.27520  1.0000 -0.6055571315
O   O38       1.0  0.38620  0.82300  0.27520  1.0000 -0.6055571315
O   O39       1.0  0.17700  0.56320  0.27520  1.0000 -0.6055571315
O   O40       1.0  0.61380  0.43680  0.22480  1.0000 -0.6055571315
O   O41       1.0  0.82300  0.38620  0.22480  1.0000 -0.6055571315
O   O42       1.0  0.56320  0.17700  0.22480  1.0000 -0.6055571315
O   O43       1.0  0.56320  0.38620  0.72480  1.0000 -0.6055571315
O   O44       1.0  0.61380  0.17700  0.72480  1.0000 -0.6055571315
O   O45       1.0  0.82300  0.43680  0.72480  1.0000 -0.6055571315
O   O46       1.0  0.38620  0.56320  0.77520  1.0000 -0.6055571315
O   O47       1.0  0.17700  0.61380  0.77520  1.0000 -0.6055571315
O   O48       1.0  0.43680  0.82300  0.77520  1.0000 -0.6055571315
