# DDEC6 charges by PACMAN v1.1 (https://github.com/mtap-research/PACMAN-charge/)
data_2008[Zn][srs]3[FSR]5
_chemical_formula_sum              "Zn24 H192 C288 I48 N96"
_cell_length_a       13.8238
_cell_length_b       28.1745
_cell_length_c       45.1995
_cell_angle_alpha    90
_cell_angle_beta     90
_cell_angle_gamma    90

_symmetry_space_group_name_H-M    "P 1"
_symmetry_Int_Tables_number       1

loop_
  _symmetry_equiv_pos_as_xyz
  'x, y, z'

loop_
  _atom_site_type_symbol
  _atom_site_label
  _atom_site_symmetry_multiplicity
  _atom_site_fract_x
  _atom_site_fract_y
  _atom_site_fract_z
  _atom_site_occupancy
  _atom_site_charge
Zn  Zn1       1.0  0.85534  0.55258  0.57888  1.0000 0.4563306758
Zn  Zn2       1.0  0.14466  0.94742  0.07888  1.0000 0.4563306758
Zn  Zn3       1.0  0.35534  0.44742  0.92112  1.0000 0.4542211183
Zn  Zn4       1.0  0.64466  0.05258  0.42112  1.0000 0.4542211183
Zn  Zn5       1.0  0.16584  0.76140  0.81556  1.0000 0.4706636259
Zn  Zn6       1.0  0.83416  0.73860  0.31556  1.0000 0.4706636259
Zn  Zn7       1.0  0.66584  0.23860  0.68444  1.0000 0.4706636259
Zn  Zn8       1.0  0.33416  0.26140  0.18444  1.0000 0.4706636259
Zn  Zn9       1.0  0.87258  0.02205  0.58663  1.0000 0.4706636259
Zn  Zn10      1.0  0.12742  0.47795  0.08663  1.0000 0.4706636259
Zn  Zn11      1.0  0.37258  0.97795  0.91337  1.0000 0.4706636259
Zn  Zn12      1.0  0.62742  0.52205  0.41337  1.0000 0.4706636259
Zn  Zn13      1.0  0.14466  0.44742  0.42112  1.0000 0.4563306758
Zn  Zn14      1.0  0.85534  0.05258  0.92112  1.0000 0.4563306758
Zn  Zn15      1.0  0.64466  0.55258  0.07888  1.0000 0.4542211183
Zn  Zn16      1.0  0.35534  0.94742  0.57888  1.0000 0.4542211183
Zn  Zn17      1.0  0.83416  0.23860  0.18444  1.0000 0.4706636259
Zn  Zn18      1.0  0.16584  0.26140  0.68444  1.0000 0.4706636259
Zn  Zn19      1.0  0.33416  0.76140  0.31556  1.0000 0.4706636259
Zn  Zn20      1.0  0.66584  0.73860  0.81556  1.0000 0.4706636259
Zn  Zn21      1.0  0.12742  0.97795  0.41337  1.0000 0.4706636259
Zn  Zn22      1.0  0.87258  0.52205  0.91337  1.0000 0.4706636259
Zn  Zn23      1.0  0.62742  0.02205  0.08663  1.0000 0.4706636259
Zn  Zn24      1.0  0.37258  0.47795  0.58663  1.0000 0.4706636259
H   H1        1.0  0.90960  0.72850  0.58900  1.0000 0.1381675152
H   H2        1.0  0.09040  0.77150  0.08900  1.0000 0.1381675152
H   H3        1.0  0.40960  0.27150  0.91100  1.0000 0.1381675152
H   H4        1.0  0.59040  0.22850  0.41100  1.0000 0.1381675152
H   H5        1.0  0.87420  0.65590  0.56580  1.0000 0.1007859268
H   H6        1.0  0.12580  0.84410  0.06580  1.0000 0.1007859268
H   H7        1.0  0.37420  0.34410  0.93420  1.0000 0.1007859268
H   H8        1.0  0.62580  0.15590  0.43420  1.0000 0.1007859268
H   H9        1.0  0.93250  0.58570  0.63560  1.0000 0.1007859268
H   H10       1.0  0.06750  0.91430  0.13560  1.0000 0.1007859268
H   H11       1.0  0.43250  0.41430  0.86440  1.0000 0.1007859268
H   H12       1.0  0.56750  0.08570  0.36440  1.0000 0.1007859268
H   H13       1.0  0.97130  0.65480  0.66160  1.0000 0.1322946252
H   H14       1.0  0.02870  0.84520  0.16160  1.0000 0.1322946252
H   H15       1.0  0.47130  0.34520  0.83840  1.0000 0.1322946252
H   H16       1.0  0.52870  0.15480  0.33840  1.0000 0.1322946252
H   H17       1.0  0.00700  0.70660  0.72280  1.0000 0.1322946252
H   H18       1.0  0.99300  0.79340  0.22280  1.0000 0.1322946252
H   H19       1.0  0.50700  0.29340  0.77720  1.0000 0.1322946252
H   H20       1.0  0.49300  0.20660  0.27720  1.0000 0.1322946252
H   H21       1.0  0.05720  0.70220  0.77160  1.0000 0.1111372318
H   H22       1.0  0.94280  0.79780  0.27160  1.0000 0.1111372318
H   H23       1.0  0.55720  0.29780  0.72840  1.0000 0.1111372318
H   H24       1.0  0.44280  0.20220  0.22840  1.0000 0.1111372318
H   H25       1.0  0.10520  0.83660  0.77360  1.0000 0.1172058504
H   H26       1.0  0.89480  0.66340  0.27360  1.0000 0.1172058504
H   H27       1.0  0.60520  0.16340  0.72640  1.0000 0.1172058504
H   H28       1.0  0.39480  0.33660  0.22640  1.0000 0.1172058504
H   H29       1.0  0.05260  0.84550  0.72720  1.0000 0.1381675152
H   H30       1.0  0.94740  0.65450  0.22720  1.0000 0.1381675152
H   H31       1.0  0.55260  0.15450  0.77280  1.0000 0.1381675152
H   H32       1.0  0.44740  0.34550  0.27280  1.0000 0.1381675152
H   H33       1.0  0.96300  0.91180  0.66950  1.0000 0.1322946252
H   H34       1.0  0.03700  0.58820  0.16950  1.0000 0.1322946252
H   H35       1.0  0.46300  0.08820  0.83050  1.0000 0.1381675152
H   H36       1.0  0.53700  0.41180  0.33050  1.0000 0.1322946252
H   H37       1.0  0.93270  0.98290  0.64560  1.0000 0.1007859268
H   H38       1.0  0.06730  0.51710  0.14560  1.0000 0.1007859268
H   H39       1.0  0.43270  0.01710  0.85440  1.0000 0.1007859268
H   H40       1.0  0.56730  0.48290  0.35440  1.0000 0.1007859268
H   H41       1.0  0.88240  0.91690  0.57070  1.0000 0.1111372318
H   H42       1.0  0.11760  0.58310  0.07070  1.0000 0.1111372318
H   H43       1.0  0.38240  0.08310  0.92930  1.0000 0.1111372318
H   H44       1.0  0.61760  0.41690  0.42930  1.0000 0.1111372318
H   H45       1.0  0.92080  0.84440  0.59120  1.0000 0.1322946252
H   H46       1.0  0.07920  0.65560  0.09120  1.0000 0.1322946252
H   H47       1.0  0.42080  0.15560  0.90880  1.0000 0.1322946252
H   H48       1.0  0.57920  0.34440  0.40880  1.0000 0.1322946252
H   H49       1.0  0.12960  0.55310  0.50760  1.0000 0.1381675152
H   H50       1.0  0.87040  0.94690  0.00760  1.0000 0.1381675152
H   H51       1.0  0.62960  0.44690  0.99240  1.0000 0.1322946252
H   H52       1.0  0.37040  0.05310  0.49240  1.0000 0.1381675152
H   H53       1.0  0.04630  0.53430  0.55050  1.0000 0.1111372318
H   H54       1.0  0.95370  0.96570  0.05050  1.0000 0.1111372318
H   H55       1.0  0.54630  0.46570  0.94950  1.0000 0.1111372318
H   H56       1.0  0.45370  0.03430  0.44950  1.0000 0.1111372318
H   H57       1.0  0.80410  0.58190  0.51690  1.0000 0.1111372318
H   H58       1.0  0.19590  0.91810  0.01690  1.0000 0.1111372318
H   H59       1.0  0.30410  0.41810  0.98310  1.0000 0.1111372318
H   H60       1.0  0.69590  0.08190  0.48310  1.0000 0.1111372318
H   H61       1.0  0.88160  0.60420  0.47440  1.0000 0.1381675152
H   H62       1.0  0.11840  0.89580  0.97440  1.0000 0.1381675152
H   H63       1.0  0.38160  0.39580  0.02560  1.0000 0.1381675152
H   H64       1.0  0.61840  0.10420  0.52560  1.0000 0.1381675152
H   H65       1.0  0.88380  0.64430  0.40460  1.0000 0.1381675152
H   H66       1.0  0.11620  0.85570  0.90460  1.0000 0.1381675152
H   H67       1.0  0.38380  0.35570  0.09540  1.0000 0.1381675152
H   H68       1.0  0.61620  0.14430  0.59540  1.0000 0.1381675152
H   H69       1.0  0.80340  0.67830  0.36740  1.0000 0.1172058504
H   H70       1.0  0.19660  0.82170  0.86740  1.0000 0.1111372318
H   H71       1.0  0.30340  0.32170  0.13260  1.0000 0.1172058504
H   H72       1.0  0.69660  0.17830  0.63260  1.0000 0.1172058504
H   H73       1.0  0.04440  0.72090  0.33200  1.0000 0.1111372318
H   H74       1.0  0.95560  0.77910  0.83200  1.0000 0.1111372318
H   H75       1.0  0.54440  0.27910  0.16800  1.0000 0.1111372318
H   H76       1.0  0.45560  0.22090  0.66800  1.0000 0.1111372318
H   H77       1.0  0.13010  0.68110  0.36720  1.0000 0.1381675152
H   H78       1.0  0.86990  0.81890  0.86720  1.0000 0.1381675152
H   H79       1.0  0.63010  0.31890  0.13280  1.0000 0.1381675152
H   H80       1.0  0.36990  0.18110  0.63280  1.0000 0.1381675152
H   H81       1.0  0.32360  0.60690  0.38650  1.0000 0.1381675152
H   H82       1.0  0.67640  0.89310  0.88650  1.0000 0.1322946252
H   H83       1.0  0.82360  0.39310  0.11350  1.0000 0.1322946252
H   H84       1.0  0.17640  0.10690  0.61350  1.0000 0.1322946252
H   H85       1.0  0.48140  0.58420  0.38150  1.0000 0.1111372318
H   H86       1.0  0.51860  0.91580  0.88150  1.0000 0.1111372318
H   H87       1.0  0.98140  0.41580  0.11850  1.0000 0.1111372318
H   H88       1.0  0.01860  0.08420  0.61850  1.0000 0.1111372318
H   H89       1.0  0.48520  0.53240  0.46260  1.0000 0.1111372318
H   H90       1.0  0.51480  0.96760  0.96260  1.0000 0.1111372318
H   H91       1.0  0.98520  0.46760  0.03740  1.0000 0.1111372318
H   H92       1.0  0.01480  0.03240  0.53740  1.0000 0.1111372318
H   H93       1.0  0.32540  0.56120  0.47000  1.0000 0.1322946252
H   H94       1.0  0.67460  0.93880  0.97000  1.0000 0.1322946252
H   H95       1.0  0.82540  0.43880  0.03000  1.0000 0.1322946252
H   H96       1.0  0.17460  0.06120  0.53000  1.0000 0.1322946252
H   H97       1.0  0.09040  0.27150  0.41100  1.0000 0.1381675152
H   H98       1.0  0.90960  0.22850  0.91100  1.0000 0.1381675152
H   H99       1.0  0.59040  0.72850  0.08900  1.0000 0.1381675152
H   H100      1.0  0.40960  0.77150  0.58900  1.0000 0.1381675152
H   H101      1.0  0.12580  0.34410  0.43420  1.0000 0.1007859268
H   H102      1.0  0.87420  0.15590  0.93420  1.0000 0.1007859268
H   H103      1.0  0.62580  0.65590  0.06580  1.0000 0.1007859268
H   H104      1.0  0.37420  0.84410  0.56580  1.0000 0.1007859268
H   H105      1.0  0.06750  0.41430  0.36440  1.0000 0.1007859268
H   H106      1.0  0.93250  0.08570  0.86440  1.0000 0.1007859268
H   H107      1.0  0.56750  0.58570  0.13560  1.0000 0.1007859268
H   H108      1.0  0.43250  0.91430  0.63560  1.0000 0.1007859268
H   H109      1.0  0.02870  0.34520  0.33840  1.0000 0.1322946252
H   H110      1.0  0.97130  0.15480  0.83840  1.0000 0.1322946252
H   H111      1.0  0.52870  0.65480  0.16160  1.0000 0.1322946252
H   H112      1.0  0.47130  0.84520  0.66160  1.0000 0.1322946252
H   H113      1.0  0.99300  0.29340  0.27720  1.0000 0.1322946252
H   H114      1.0  0.00700  0.20660  0.77720  1.0000 0.1322946252
H   H115      1.0  0.49300  0.70660  0.22280  1.0000 0.1322946252
H   H116      1.0  0.50700  0.79340  0.72280  1.0000 0.1322946252
H   H117      1.0  0.94280  0.29780  0.22840  1.0000 0.1111372318
H   H118      1.0  0.05720  0.20220  0.72840  1.0000 0.1111372318
H   H119      1.0  0.44280  0.70220  0.27160  1.0000 0.1111372318
H   H120      1.0  0.55720  0.79780  0.77160  1.0000 0.1111372318
H   H121      1.0  0.89480  0.16340  0.22640  1.0000 0.1172058504
H   H122      1.0  0.10520  0.33660  0.72640  1.0000 0.1172058504
H   H123      1.0  0.39480  0.83660  0.27360  1.0000 0.1172058504
H   H124      1.0  0.60520  0.66340  0.77360  1.0000 0.1172058504
H   H125      1.0  0.94740  0.15450  0.27280  1.0000 0.1381675152
H   H126      1.0  0.05260  0.34550  0.77280  1.0000 0.1381675152
H   H127      1.0  0.44740  0.84550  0.22720  1.0000 0.1381675152
H   H128      1.0  0.55260  0.65450  0.72720  1.0000 0.1381675152
H   H129      1.0  0.03700  0.08820  0.33050  1.0000 0.1322946252
H   H130      1.0  0.96300  0.41180  0.83050  1.0000 0.1322946252
H   H131      1.0  0.53700  0.91180  0.16950  1.0000 0.1322946252
H   H132      1.0  0.46300  0.58820  0.66950  1.0000 0.1322946252
H   H133      1.0  0.06730  0.01710  0.35440  1.0000 0.1007859268
H   H134      1.0  0.93270  0.48290  0.85440  1.0000 0.1007859268
H   H135      1.0  0.56730  0.98290  0.14560  1.0000 0.1007859268
H   H136      1.0  0.43270  0.51710  0.64560  1.0000 0.1007859268
H   H137      1.0  0.11760  0.08310  0.42930  1.0000 0.1111372318
H   H138      1.0  0.88240  0.41690  0.92930  1.0000 0.1111372318
H   H139      1.0  0.61760  0.91690  0.07070  1.0000 0.1111372318
H   H140      1.0  0.38240  0.58310  0.57070  1.0000 0.1111372318
H   H141      1.0  0.07920  0.15560  0.40880  1.0000 0.1322946252
H   H142      1.0  0.92080  0.34440  0.90880  1.0000 0.1322946252
H   H143      1.0  0.57920  0.84440  0.09120  1.0000 0.1322946252
H   H144      1.0  0.42080  0.65560  0.59120  1.0000 0.1322946252
H   H145      1.0  0.87040  0.44690  0.49240  1.0000 0.1381675152
H   H146      1.0  0.12960  0.05310  0.99240  1.0000 0.1322946252
H   H147      1.0  0.37040  0.55310  0.00760  1.0000 0.1381675152
H   H148      1.0  0.62960  0.94690  0.50760  1.0000 0.1381675152
H   H149      1.0  0.95370  0.46570  0.44950  1.0000 0.1111372318
H   H150      1.0  0.04630  0.03430  0.94950  1.0000 0.1111372318
H   H151      1.0  0.45370  0.53430  0.05050  1.0000 0.1111372318
H   H152      1.0  0.54630  0.96570  0.55050  1.0000 0.1111372318
H   H153      1.0  0.19590  0.41810  0.48310  1.0000 0.1111372318
H   H154      1.0  0.80410  0.08190  0.98310  1.0000 0.1111372318
H   H155      1.0  0.69590  0.58190  0.01690  1.0000 0.1111372318
H   H156      1.0  0.30410  0.91810  0.51690  1.0000 0.1111372318
H   H157      1.0  0.11840  0.39580  0.52560  1.0000 0.1381675152
H   H158      1.0  0.88160  0.10420  0.02560  1.0000 0.1381675152
H   H159      1.0  0.61840  0.60420  0.97440  1.0000 0.1381675152
H   H160      1.0  0.38160  0.89580  0.47440  1.0000 0.1381675152
H   H161      1.0  0.11620  0.35570  0.59540  1.0000 0.1381675152
H   H162      1.0  0.88380  0.14430  0.09540  1.0000 0.1381675152
H   H163      1.0  0.61620  0.64430  0.90460  1.0000 0.1381675152
H   H164      1.0  0.38380  0.85570  0.40460  1.0000 0.1381675152
H   H165      1.0  0.19660  0.32170  0.63260  1.0000 0.1172058504
H   H166      1.0  0.80340  0.17830  0.13260  1.0000 0.1172058504
H   H167      1.0  0.69660  0.67830  0.86740  1.0000 0.1111372318
H   H168      1.0  0.30340  0.82170  0.36740  1.0000 0.1111372318
H   H169      1.0  0.95560  0.27910  0.66800  1.0000 0.1111372318
H   H170      1.0  0.04440  0.22090  0.16800  1.0000 0.1111372318
H   H171      1.0  0.45560  0.72090  0.83200  1.0000 0.1111372318
H   H172      1.0  0.54440  0.77910  0.33200  1.0000 0.1111372318
H   H173      1.0  0.86990  0.31890  0.63280  1.0000 0.1381675152
H   H174      1.0  0.13010  0.18110  0.13280  1.0000 0.1381675152
H   H175      1.0  0.36990  0.68110  0.86720  1.0000 0.1381675152
H   H176      1.0  0.63010  0.81890  0.36720  1.0000 0.1381675152
H   H177      1.0  0.67640  0.39310  0.61350  1.0000 0.1322946252
H   H178      1.0  0.32360  0.10690  0.11350  1.0000 0.1322946252
H   H179      1.0  0.17640  0.60690  0.88650  1.0000 0.1322946252
H   H180      1.0  0.82360  0.89310  0.38650  1.0000 0.1322946252
H   H181      1.0  0.51860  0.41580  0.61850  1.0000 0.1111372318
H   H182      1.0  0.48140  0.08420  0.11850  1.0000 0.1172058504
H   H183      1.0  0.01860  0.58420  0.88150  1.0000 0.1111372318
H   H184      1.0  0.98140  0.91580  0.38150  1.0000 0.1111372318
H   H185      1.0  0.51480  0.46760  0.53740  1.0000 0.1111372318
H   H186      1.0  0.48520  0.03240  0.03740  1.0000 0.1111372318
H   H187      1.0  0.01480  0.53240  0.96260  1.0000 0.1111372318
H   H188      1.0  0.98520  0.96760  0.46260  1.0000 0.1111372318
H   H189      1.0  0.67460  0.43880  0.53000  1.0000 0.1322946252
H   H190      1.0  0.32540  0.06120  0.03000  1.0000 0.1322946252
H   H191      1.0  0.17460  0.56120  0.97000  1.0000 0.1322946252
H   H192      1.0  0.82540  0.93880  0.47000  1.0000 0.1322946252
C   C1        1.0  0.95520  0.74520  0.64500  1.0000 0.3872939666
C   C2        1.0  0.04480  0.75480  0.14500  1.0000 0.3872939666
C   C3        1.0  0.45520  0.25480  0.85500  1.0000 0.3872939666
C   C4        1.0  0.54480  0.24520  0.35500  1.0000 0.3872939666
C   C5        1.0  0.99210  0.78170  0.68810  1.0000 0.3572212999
C   C6        1.0  0.00790  0.71830  0.18810  1.0000 0.3572212999
C   C7        1.0  0.49210  0.21830  0.81190  1.0000 0.3572212999
C   C8        1.0  0.50790  0.28170  0.31190  1.0000 0.3572212999
C   C9        1.0  0.95670  0.82390  0.64800  1.0000 0.3572212999
C   C10       1.0  0.04330  0.67610  0.14800  1.0000 0.3572212999
C   C11       1.0  0.45670  0.17610  0.85200  1.0000 0.3572212999
C   C12       1.0  0.54330  0.32390  0.35200  1.0000 0.3572212999
C   C13       1.0  0.93890  0.69950  0.62800  1.0000 0.0617139906
C   C14       1.0  0.06110  0.80050  0.12800  1.0000 0.0617139906
C   C15       1.0  0.43890  0.30050  0.87200  1.0000 0.0617139906
C   C16       1.0  0.56110  0.19950  0.37200  1.0000 0.0617139906
C   C17       1.0  0.91370  0.70010  0.59950  1.0000 -0.1579975547
C   C18       1.0  0.08630  0.79990  0.09950  1.0000 -0.1579975547
C   C19       1.0  0.41370  0.29990  0.90050  1.0000 -0.1579975547
C   C20       1.0  0.58630  0.20010  0.40050  1.0000 -0.1579975547
C   C21       1.0  0.89330  0.65550  0.58550  1.0000 0.1111372318
C   C22       1.0  0.10670  0.84450  0.08550  1.0000 0.1111372318
C   C23       1.0  0.39330  0.34450  0.91450  1.0000 0.1111372318
C   C24       1.0  0.60670  0.15550  0.41450  1.0000 0.1111372318
C   C25       1.0  0.92740  0.61490  0.62610  1.0000 0.0869951692
C   C26       1.0  0.07260  0.88510  0.12610  1.0000 0.0869951692
C   C27       1.0  0.42740  0.38510  0.87390  1.0000 0.0869951692
C   C28       1.0  0.57260  0.11490  0.37390  1.0000 0.0869951692
C   C29       1.0  0.94980  0.65640  0.64220  1.0000 -0.1579975547
C   C30       1.0  0.05020  0.84360  0.14220  1.0000 -0.1579975547
C   C31       1.0  0.44980  0.34360  0.85780  1.0000 -0.1579975547
C   C32       1.0  0.55020  0.15640  0.35780  1.0000 -0.1579975547
C   C33       1.0  0.02080  0.77680  0.71830  1.0000 0.0435878635
C   C34       1.0  0.97920  0.72320  0.21830  1.0000 0.0435878635
C   C35       1.0  0.52080  0.22320  0.78170  1.0000 0.0435878635
C   C36       1.0  0.47920  0.27680  0.28170  1.0000 0.0435878635
C   C37       1.0  0.02550  0.73420  0.73260  1.0000 -0.1507235796
C   C38       1.0  0.97450  0.76580  0.23260  1.0000 -0.1507235796
C   C39       1.0  0.52550  0.26580  0.76740  1.0000 -0.1507235796
C   C40       1.0  0.47450  0.23420  0.26740  1.0000 -0.1507235796
C   C41       1.0  0.05820  0.73150  0.76200  1.0000 0.1111372318
C   C42       1.0  0.94180  0.76850  0.26200  1.0000 0.1111372318
C   C43       1.0  0.55820  0.26850  0.73800  1.0000 0.1111372318
C   C44       1.0  0.44180  0.23150  0.23800  1.0000 0.1111372318
C   C45       1.0  0.08520  0.80990  0.76320  1.0000 0.0693895067
C   C46       1.0  0.91480  0.69010  0.26320  1.0000 0.0693895067
C   C47       1.0  0.58520  0.19010  0.73680  1.0000 0.0693895067
C   C48       1.0  0.41480  0.30990  0.23680  1.0000 0.0693895067
C   C49       1.0  0.05330  0.81520  0.73550  1.0000 -0.1789632841
C   C50       1.0  0.94670  0.68480  0.23550  1.0000 -0.1730352259
C   C51       1.0  0.55330  0.18480  0.76450  1.0000 -0.1789632841
C   C52       1.0  0.44670  0.31520  0.26450  1.0000 -0.1730352259
C   C53       1.0  0.94240  0.87030  0.63340  1.0000 0.0617139906
C   C54       1.0  0.05760  0.62970  0.13340  1.0000 0.0617139906
C   C55       1.0  0.44240  0.12970  0.86660  1.0000 0.0693895067
C   C56       1.0  0.55760  0.37030  0.36660  1.0000 0.0617139906
C   C57       1.0  0.94760  0.91210  0.64940  1.0000 -0.1579975547
C   C58       1.0  0.05240  0.58790  0.14940  1.0000 -0.1579975547
C   C59       1.0  0.44760  0.08790  0.85060  1.0000 -0.1579975547
C   C60       1.0  0.55240  0.41210  0.35060  1.0000 -0.1579975547
C   C61       1.0  0.92890  0.95510  0.63460  1.0000 0.1007859268
C   C62       1.0  0.07110  0.54490  0.13460  1.0000 0.1007859268
C   C63       1.0  0.42890  0.04490  0.86540  1.0000 0.1007859268
C   C64       1.0  0.57110  0.45510  0.36540  1.0000 0.1007859268
C   C65       1.0  0.90080  0.91590  0.59050  1.0000 0.0803887562
C   C66       1.0  0.09920  0.58410  0.09050  1.0000 0.0803887562
C   C67       1.0  0.40080  0.08410  0.90950  1.0000 0.0693895067
C   C68       1.0  0.59920  0.41590  0.40950  1.0000 0.0693895067
C   C69       1.0  0.92110  0.87180  0.60270  1.0000 -0.1370401381
C   C70       1.0  0.07890  0.62820  0.10270  1.0000 -0.1370401381
C   C71       1.0  0.42110  0.12820  0.89730  1.0000 -0.1370401381
C   C72       1.0  0.57890  0.37180  0.39730  1.0000 -0.1370401381
C   C73       1.0  0.06790  0.59750  0.45950  1.0000 0.3872939666
C   C74       1.0  0.93210  0.90250  0.95950  1.0000 0.3872939666
C   C75       1.0  0.56790  0.40250  0.04050  1.0000 0.3872939666
C   C76       1.0  0.43210  0.09750  0.54050  1.0000 0.3872939666
C   C77       1.0  0.07090  0.63450  0.41460  1.0000 0.3783000203
C   C78       1.0  0.92910  0.86550  0.91460  1.0000 0.3726391458
C   C79       1.0  0.57090  0.36550  0.08540  1.0000 0.3783000203
C   C80       1.0  0.42910  0.13450  0.58540  1.0000 0.3783000203
C   C81       1.0  0.20590  0.60060  0.43240  1.0000 0.3783000203
C   C82       1.0  0.79410  0.89940  0.93240  1.0000 0.3783000203
C   C83       1.0  0.70590  0.39940  0.06760  1.0000 0.3783000203
C   C84       1.0  0.29410  0.10060  0.56760  1.0000 0.3783000203
C   C85       1.0  0.01530  0.58190  0.48620  1.0000 0.048663142
C   C86       1.0  0.98470  0.91810  0.98620  1.0000 0.048663142
C   C87       1.0  0.51530  0.41810  0.01380  1.0000 0.048663142
C   C88       1.0  0.48470  0.08190  0.51380  1.0000 0.048663142
C   C89       1.0  0.06410  0.56010  0.50920  1.0000 -0.1319531686
C   C90       1.0  0.93590  0.93990  0.00920  1.0000 -0.1319531686
C   C91       1.0  0.56410  0.43990  0.99080  1.0000 -0.1319531686
C   C92       1.0  0.43590  0.06010  0.49080  1.0000 -0.1319531686
C   C93       1.0  0.01360  0.54890  0.53500  1.0000 0.0693895067
C   C94       1.0  0.98640  0.95110  0.03500  1.0000 0.0693895067
C   C95       1.0  0.51360  0.45110  0.96500  1.0000 0.0617139906
C   C96       1.0  0.48640  0.04890  0.46500  1.0000 0.0693895067
C   C97       1.0  0.87060  0.57730  0.51540  1.0000 0.0869951692
C   C98       1.0  0.12940  0.92270  0.01540  1.0000 0.0869951692
C   C99       1.0  0.37060  0.42270  0.98460  1.0000 0.0869951692
C   C100      1.0  0.62940  0.07730  0.48460  1.0000 0.0869951692
C   C101      1.0  0.91660  0.59010  0.48970  1.0000 -0.1507235796
C   C102      1.0  0.08340  0.90990  0.98970  1.0000 -0.1507235796
C   C103      1.0  0.41660  0.40990  0.01030  1.0000 -0.1507235796
C   C104      1.0  0.58340  0.09010  0.51030  1.0000 -0.1507235796
C   C105      1.0  0.01760  0.65790  0.39060  1.0000 0.0617139906
C   C106      1.0  0.98240  0.84210  0.89060  1.0000 0.0617139906
C   C107      1.0  0.51760  0.34210  0.10940  1.0000 0.0617139906
C   C108      1.0  0.48240  0.15790  0.60940  1.0000 0.0617139906
C   C109      1.0  0.91860  0.65870  0.38940  1.0000 -0.1507235796
C   C110      1.0  0.08140  0.84130  0.88940  1.0000 -0.1507235796
C   C111      1.0  0.41860  0.34130  0.11060  1.0000 -0.1507235796
C   C112      1.0  0.58140  0.15870  0.61060  1.0000 -0.1507235796
C   C113      1.0  0.87060  0.67920  0.36740  1.0000 0.0869951692
C   C114      1.0  0.12940  0.82080  0.86740  1.0000 0.0869951692
C   C115      1.0  0.37060  0.32080  0.13260  1.0000 0.0869951692
C   C116      1.0  0.62940  0.17920  0.63260  1.0000 0.0869951692
C   C117      1.0  0.01180  0.70350  0.34640  1.0000 0.0803887562
C   C118      1.0  0.98820  0.79650  0.84640  1.0000 0.0803887562
C   C119      1.0  0.51180  0.29650  0.15360  1.0000 0.0803887562
C   C120      1.0  0.48820  0.20350  0.65360  1.0000 0.0803887562
C   C121      1.0  0.06290  0.68090  0.36790  1.0000 -0.1370401381
C   C122      1.0  0.93710  0.81910  0.86790  1.0000 -0.1370401381
C   C123      1.0  0.56290  0.31910  0.13210  1.0000 -0.1370401381
C   C124      1.0  0.43710  0.18090  0.63210  1.0000 -0.1370401381
C   C125      1.0  0.30810  0.58690  0.42900  1.0000 0.048663142
C   C126      1.0  0.69190  0.91310  0.92900  1.0000 0.048663142
C   C127      1.0  0.80810  0.41310  0.07100  1.0000 0.048663142
C   C128      1.0  0.19190  0.08690  0.57100  1.0000 0.048663142
C   C129      1.0  0.35540  0.59270  0.40230  1.0000 -0.1198727069
C   C130      1.0  0.64460  0.90730  0.90230  1.0000 -0.1198727069
C   C131      1.0  0.85540  0.40730  0.09770  1.0000 -0.1198727069
C   C132      1.0  0.14460  0.09270  0.59770  1.0000 -0.1198727069
C   C133      1.0  0.44920  0.57760  0.39910  1.0000 0.0869951692
C   C134      1.0  0.55080  0.92240  0.89910  1.0000 0.0869951692
C   C135      1.0  0.94920  0.42240  0.10090  1.0000 0.0869951692
C   C136      1.0  0.05080  0.07760  0.60090  1.0000 0.0869951692
C   C137      1.0  0.45250  0.54760  0.44730  1.0000 0.0803887562
C   C138      1.0  0.54750  0.95240  0.94730  1.0000 0.0803887562
C   C139      1.0  0.95250  0.45240  0.05270  1.0000 0.0803887562
C   C140      1.0  0.04750  0.04760  0.55270  1.0000 0.0803887562
C   C141      1.0  0.35560  0.56490  0.45170  1.0000 -0.11455476
C   C142      1.0  0.64440  0.93510  0.95170  1.0000 -0.11455476
C   C143      1.0  0.85560  0.43510  0.04830  1.0000 -0.11455476
C   C144      1.0  0.14440  0.06490  0.54830  1.0000 -0.11455476
C   C145      1.0  0.04480  0.25480  0.35500  1.0000 0.3872939666
C   C146      1.0  0.95520  0.24520  0.85500  1.0000 0.3872939666
C   C147      1.0  0.54480  0.74520  0.14500  1.0000 0.3872939666
C   C148      1.0  0.45520  0.75480  0.64500  1.0000 0.3872939666
C   C149      1.0  0.00790  0.21830  0.31190  1.0000 0.3572212999
C   C150      1.0  0.99210  0.28170  0.81190  1.0000 0.3572212999
C   C151      1.0  0.50790  0.78170  0.18810  1.0000 0.3572212999
C   C152      1.0  0.49210  0.71830  0.68810  1.0000 0.3572212999
C   C153      1.0  0.04330  0.17610  0.35200  1.0000 0.3572212999
C   C154      1.0  0.95670  0.32390  0.85200  1.0000 0.3572212999
C   C155      1.0  0.54330  0.82390  0.14800  1.0000 0.3572212999
C   C156      1.0  0.45670  0.67610  0.64800  1.0000 0.3572212999
C   C157      1.0  0.06110  0.30050  0.37200  1.0000 0.0617139906
C   C158      1.0  0.93890  0.19950  0.87200  1.0000 0.0617139906
C   C159      1.0  0.56110  0.69950  0.12800  1.0000 0.0617139906
C   C160      1.0  0.43890  0.80050  0.62800  1.0000 0.0617139906
C   C161      1.0  0.08630  0.29990  0.40050  1.0000 -0.1579975547
C   C162      1.0  0.91370  0.20010  0.90050  1.0000 -0.1579975547
C   C163      1.0  0.58630  0.70010  0.09950  1.0000 -0.1579975547
C   C164      1.0  0.41370  0.79990  0.59950  1.0000 -0.1579975547
C   C165      1.0  0.10670  0.34450  0.41450  1.0000 0.1111372318
C   C166      1.0  0.89330  0.15550  0.91450  1.0000 0.1111372318
C   C167      1.0  0.60670  0.65550  0.08550  1.0000 0.1111372318
C   C168      1.0  0.39330  0.84450  0.58550  1.0000 0.1111372318
C   C169      1.0  0.07260  0.38510  0.37390  1.0000 0.0869951692
C   C170      1.0  0.92740  0.11490  0.87390  1.0000 0.0869951692
C   C171      1.0  0.57260  0.61490  0.12610  1.0000 0.0869951692
C   C172      1.0  0.42740  0.88510  0.62610  1.0000 0.0869951692
C   C173      1.0  0.05020  0.34360  0.35780  1.0000 -0.1579975547
C   C174      1.0  0.94980  0.15640  0.85780  1.0000 -0.1579975547
C   C175      1.0  0.55020  0.65640  0.14220  1.0000 -0.1579975547
C   C176      1.0  0.44980  0.84360  0.64220  1.0000 -0.1579975547
C   C177      1.0  0.97920  0.22320  0.28170  1.0000 0.0435878635
C   C178      1.0  0.02080  0.27680  0.78170  1.0000 0.0435878635
C   C179      1.0  0.47920  0.77680  0.21830  1.0000 0.0435878635
C   C180      1.0  0.52080  0.72320  0.71830  1.0000 0.0435878635
C   C181      1.0  0.97450  0.26580  0.26740  1.0000 -0.1507235796
C   C182      1.0  0.02550  0.23420  0.76740  1.0000 -0.1507235796
C   C183      1.0  0.47450  0.73420  0.23260  1.0000 -0.1507235796
C   C184      1.0  0.52550  0.76580  0.73260  1.0000 -0.1507235796
C   C185      1.0  0.94180  0.26850  0.23800  1.0000 0.1111372318
C   C186      1.0  0.05820  0.23150  0.73800  1.0000 0.1111372318
C   C187      1.0  0.44180  0.73150  0.26200  1.0000 0.1111372318
C   C188      1.0  0.55820  0.76850  0.76200  1.0000 0.1111372318
C   C189      1.0  0.91480  0.19010  0.23680  1.0000 0.0693895067
C   C190      1.0  0.08520  0.30990  0.73680  1.0000 0.0693895067
C   C191      1.0  0.41480  0.80990  0.26320  1.0000 0.0693895067
C   C192      1.0  0.58520  0.69010  0.76320  1.0000 0.0693895067
C   C193      1.0  0.94670  0.18480  0.26450  1.0000 -0.1730352259
C   C194      1.0  0.05330  0.31520  0.76450  1.0000 -0.1789632841
C   C195      1.0  0.44670  0.81520  0.23550  1.0000 -0.1730352259
C   C196      1.0  0.55330  0.68480  0.73550  1.0000 -0.1789632841
C   C197      1.0  0.05760  0.12970  0.36660  1.0000 0.0617139906
C   C198      1.0  0.94240  0.37030  0.86660  1.0000 0.0693895067
C   C199      1.0  0.55760  0.87030  0.13340  1.0000 0.0617139906
C   C200      1.0  0.44240  0.62970  0.63340  1.0000 0.0617139906
C   C201      1.0  0.05240  0.08790  0.35060  1.0000 -0.1579975547
C   C202      1.0  0.94760  0.41210  0.85060  1.0000 -0.1579975547
C   C203      1.0  0.55240  0.91210  0.14940  1.0000 -0.1579975547
C   C204      1.0  0.44760  0.58790  0.64940  1.0000 -0.1579975547
C   C205      1.0  0.07110  0.04490  0.36540  1.0000 0.1007859268
C   C206      1.0  0.92890  0.45510  0.86540  1.0000 0.1007859268
C   C207      1.0  0.57110  0.95510  0.13460  1.0000 0.1007859268
C   C208      1.0  0.42890  0.54490  0.63460  1.0000 0.1007859268
C   C209      1.0  0.09920  0.08410  0.40950  1.0000 0.0803887562
C   C210      1.0  0.90080  0.41590  0.90950  1.0000 0.0803887562
C   C211      1.0  0.59920  0.91590  0.09050  1.0000 0.0693895067
C   C212      1.0  0.40080  0.58410  0.59050  1.0000 0.0693895067
C   C213      1.0  0.07890  0.12820  0.39730  1.0000 -0.1370401381
C   C214      1.0  0.92110  0.37180  0.89730  1.0000 -0.1370401381
C   C215      1.0  0.57890  0.87180  0.10270  1.0000 -0.1370401381
C   C216      1.0  0.42110  0.62820  0.60270  1.0000 -0.1370401381
C   C217      1.0  0.93210  0.40250  0.54050  1.0000 0.3872939666
C   C218      1.0  0.06790  0.09750  0.04050  1.0000 0.3872939666
C   C219      1.0  0.43210  0.59750  0.95950  1.0000 0.3872939666
C   C220      1.0  0.56790  0.90250  0.45950  1.0000 0.3872939666
C   C221      1.0  0.92910  0.36550  0.58540  1.0000 0.3726391458
C   C222      1.0  0.07090  0.13450  0.08540  1.0000 0.3783000203
C   C223      1.0  0.42910  0.63450  0.91460  1.0000 0.3783000203
C   C224      1.0  0.57090  0.86550  0.41460  1.0000 0.3783000203
C   C225      1.0  0.79410  0.39940  0.56760  1.0000 0.3783000203
C   C226      1.0  0.20590  0.10060  0.06760  1.0000 0.3783000203
C   C227      1.0  0.29410  0.60060  0.93240  1.0000 0.3783000203
C   C228      1.0  0.70590  0.89940  0.43240  1.0000 0.3783000203
C   C229      1.0  0.98470  0.41810  0.51380  1.0000 0.048663142
C   C230      1.0  0.01530  0.08190  0.01380  1.0000 0.048663142
C   C231      1.0  0.48470  0.58190  0.98620  1.0000 0.048663142
C   C232      1.0  0.51530  0.91810  0.48620  1.0000 0.048663142
C   C233      1.0  0.93590  0.43990  0.49080  1.0000 -0.1319531686
C   C234      1.0  0.06410  0.06010  0.99080  1.0000 -0.1319531686
C   C235      1.0  0.43590  0.56010  0.00920  1.0000 -0.1319531686
C   C236      1.0  0.56410  0.93990  0.50920  1.0000 -0.1319531686
C   C237      1.0  0.98640  0.45110  0.46500  1.0000 0.0693895067
C   C238      1.0  0.01360  0.04890  0.96500  1.0000 0.0693895067
C   C239      1.0  0.48640  0.54890  0.03500  1.0000 0.0693895067
C   C240      1.0  0.51360  0.95110  0.53500  1.0000 0.0693895067
C   C241      1.0  0.12940  0.42270  0.48460  1.0000 0.0869951692
C   C242      1.0  0.87060  0.07730  0.98460  1.0000 0.0869951692
C   C243      1.0  0.62940  0.57730  0.01540  1.0000 0.0869951692
C   C244      1.0  0.37060  0.92270  0.51540  1.0000 0.0869951692
C   C245      1.0  0.08340  0.40990  0.51030  1.0000 -0.1507235796
C   C246      1.0  0.91660  0.09010  0.01030  1.0000 -0.1507235796
C   C247      1.0  0.58340  0.59010  0.98970  1.0000 -0.1507235796
C   C248      1.0  0.41660  0.90990  0.48970  1.0000 -0.1507235796
C   C249      1.0  0.98240  0.34210  0.60940  1.0000 0.0617139906
C   C250      1.0  0.01760  0.15790  0.10940  1.0000 0.0617139906
C   C251      1.0  0.48240  0.65790  0.89060  1.0000 0.0617139906
C   C252      1.0  0.51760  0.84210  0.39060  1.0000 0.0617139906
C   C253      1.0  0.08140  0.34130  0.61060  1.0000 -0.1507235796
C   C254      1.0  0.91860  0.15870  0.11060  1.0000 -0.1507235796
C   C255      1.0  0.58140  0.65870  0.88940  1.0000 -0.1507235796
C   C256      1.0  0.41860  0.84130  0.38940  1.0000 -0.1507235796
C   C257      1.0  0.12940  0.32080  0.63260  1.0000 0.0869951692
C   C258      1.0  0.87060  0.17920  0.13260  1.0000 0.0869951692
C   C259      1.0  0.62940  0.67920  0.86740  1.0000 0.0869951692
C   C260      1.0  0.37060  0.82080  0.36740  1.0000 0.0869951692
C   C261      1.0  0.98820  0.29650  0.65360  1.0000 0.0803887562
C   C262      1.0  0.01180  0.20350  0.15360  1.0000 0.0803887562
C   C263      1.0  0.48820  0.70350  0.84640  1.0000 0.0803887562
C   C264      1.0  0.51180  0.79650  0.34640  1.0000 0.0803887562
C   C265      1.0  0.93710  0.31910  0.63210  1.0000 -0.1370401381
C   C266      1.0  0.06290  0.18090  0.13210  1.0000 -0.1370401381
C   C267      1.0  0.43710  0.68090  0.86790  1.0000 -0.1370401381
C   C268      1.0  0.56290  0.81910  0.36790  1.0000 -0.1370401381
C   C269      1.0  0.69190  0.41310  0.57100  1.0000 0.048663142
C   C270      1.0  0.30810  0.08690  0.07100  1.0000 0.048663142
C   C271      1.0  0.19190  0.58690  0.92900  1.0000 0.048663142
C   C272      1.0  0.80810  0.91310  0.42900  1.0000 0.048663142
C   C273      1.0  0.64460  0.40730  0.59770  1.0000 -0.1198727069
C   C274      1.0  0.35540  0.09270  0.09770  1.0000 -0.1198727069
C   C275      1.0  0.14460  0.59270  0.90230  1.0000 -0.1198727069
C   C276      1.0  0.85540  0.90730  0.40230  1.0000 -0.1198727069
C   C277      1.0  0.55080  0.42240  0.60090  1.0000 0.0869951692
C   C278      1.0  0.44920  0.07760  0.10090  1.0000 0.0869951692
C   C279      1.0  0.05080  0.57760  0.89910  1.0000 0.0869951692
C   C280      1.0  0.94920  0.92240  0.39910  1.0000 0.0869951692
C   C281      1.0  0.54750  0.45240  0.55270  1.0000 0.0803887562
C   C282      1.0  0.45250  0.04760  0.05270  1.0000 0.0803887562
C   C283      1.0  0.04750  0.54760  0.94730  1.0000 0.0803887562
C   C284      1.0  0.95250  0.95240  0.44730  1.0000 0.0803887562
C   C285      1.0  0.64440  0.43510  0.54830  1.0000 -0.11455476
C   C286      1.0  0.35560  0.06490  0.04830  1.0000 -0.11455476
C   C287      1.0  0.14440  0.56490  0.95170  1.0000 -0.11455476
C   C288      1.0  0.85560  0.93510  0.45170  1.0000 -0.11455476
I   I1        1.0  0.67413  0.56118  0.57367  1.0000 -0.4600631531
I   I2        1.0  0.32587  0.93882  0.07367  1.0000 -0.4600631531
I   I3        1.0  0.17413  0.43882  0.92633  1.0000 -0.4600631531
I   I4        1.0  0.82587  0.06118  0.42633  1.0000 -0.4600631531
I   I5        1.0  0.94638  0.48776  0.60657  1.0000 -0.442800071
I   I6        1.0  0.05362  0.01224  0.10657  1.0000 -0.442800071
I   I7        1.0  0.44638  0.51224  0.89343  1.0000 -0.442800071
I   I8        1.0  0.55362  0.98776  0.39343  1.0000 -0.442800071
I   I9        1.0  0.32694  0.80493  0.80910  1.0000 -0.4600631531
I   I10       1.0  0.67306  0.69507  0.30910  1.0000 -0.4600631531
I   I11       1.0  0.82694  0.19507  0.69090  1.0000 -0.4600631531
I   I12       1.0  0.17306  0.30493  0.19090  1.0000 -0.4600631531
I   I13       1.0  0.16771  0.67434  0.83048  1.0000 -0.4600631531
I   I14       1.0  0.83229  0.82566  0.33048  1.0000 -0.4600631531
I   I15       1.0  0.66771  0.32566  0.66952  1.0000 -0.4600631531
I   I16       1.0  0.33229  0.17434  0.16952  1.0000 -0.4600631531
I   I17       1.0  0.79673  0.00595  0.53596  1.0000 -0.4815330393
I   I18       1.0  0.20327  0.49405  0.03596  1.0000 -0.4815330393
I   I19       1.0  0.29673  0.99405  0.96404  1.0000 -0.4815330393
I   I20       1.0  0.70327  0.50595  0.46404  1.0000 -0.4815330393
I   I21       1.0  0.78814  0.06958  0.62642  1.0000 -0.4284362957
I   I22       1.0  0.21186  0.43042  0.12642  1.0000 -0.4284362957
I   I23       1.0  0.28814  0.93042  0.87358  1.0000 -0.4284362957
I   I24       1.0  0.71186  0.56958  0.37358  1.0000 -0.4284362957
I   I25       1.0  0.32587  0.43882  0.42633  1.0000 -0.4600631531
I   I26       1.0  0.67413  0.06118  0.92633  1.0000 -0.4600631531
I   I27       1.0  0.82587  0.56118  0.07367  1.0000 -0.4600631531
I   I28       1.0  0.17413  0.93882  0.57367  1.0000 -0.4600631531
I   I29       1.0  0.05362  0.51224  0.39343  1.0000 -0.442800071
I   I30       1.0  0.94638  0.98776  0.89343  1.0000 -0.442800071
I   I31       1.0  0.55362  0.48776  0.10657  1.0000 -0.442800071
I   I32       1.0  0.44638  0.01224  0.60657  1.0000 -0.442800071
I   I33       1.0  0.67306  0.19507  0.19090  1.0000 -0.4600631531
I   I34       1.0  0.32694  0.30493  0.69090  1.0000 -0.4600631531
I   I35       1.0  0.17306  0.80493  0.30910  1.0000 -0.4600631531
I   I36       1.0  0.82694  0.69507  0.80910  1.0000 -0.4600631531
I   I37       1.0  0.83229  0.32566  0.16952  1.0000 -0.4600631531
I   I38       1.0  0.16771  0.17434  0.66952  1.0000 -0.4600631531
I   I39       1.0  0.33229  0.67434  0.33048  1.0000 -0.4600631531
I   I40       1.0  0.66771  0.82566  0.83048  1.0000 -0.4600631531
I   I41       1.0  0.20327  0.99405  0.46404  1.0000 -0.4815330393
I   I42       1.0  0.79673  0.50595  0.96404  1.0000 -0.4815330393
I   I43       1.0  0.70327  0.00595  0.03596  1.0000 -0.4815330393
I   I44       1.0  0.29673  0.49405  0.53596  1.0000 -0.4815330393
I   I45       1.0  0.21186  0.93042  0.37358  1.0000 -0.4284362957
I   I46       1.0  0.78814  0.56958  0.87358  1.0000 -0.4284362957
I   I47       1.0  0.71186  0.06958  0.12642  1.0000 -0.4284362957
I   I48       1.0  0.28814  0.43042  0.62642  1.0000 -0.4284362957
N   N1        1.0  0.97870  0.74000  0.67358  1.0000 -0.4284362957
N   N2        1.0  0.02130  0.76000  0.17358  1.0000 -0.4179661246
N   N3        1.0  0.47870  0.26000  0.82642  1.0000 -0.4284362957
N   N4        1.0  0.52130  0.24000  0.32642  1.0000 -0.4284362957
N   N5        1.0  0.98210  0.82310  0.67640  1.0000 -0.4003439172
N   N6        1.0  0.01790  0.67690  0.17640  1.0000 -0.4003439172
N   N7        1.0  0.48210  0.17690  0.82360  1.0000 -0.4003439172
N   N8        1.0  0.51790  0.32310  0.32360  1.0000 -0.4003439172
N   N9        1.0  0.94090  0.78480  0.63082  1.0000 -0.4147425578
N   N10       1.0  0.05910  0.71520  0.13082  1.0000 -0.4147425578
N   N11       1.0  0.44090  0.21520  0.86918  1.0000 -0.4179661246
N   N12       1.0  0.55910  0.28480  0.36918  1.0000 -0.4179661246
N   N13       1.0  0.89940  0.61570  0.59810  1.0000 -0.1789632841
N   N14       1.0  0.10060  0.88430  0.09810  1.0000 -0.1789632841
N   N15       1.0  0.39940  0.38430  0.90190  1.0000 -0.1789632841
N   N16       1.0  0.60060  0.11570  0.40190  1.0000 -0.1789632841
N   N17       1.0  0.08940  0.76790  0.77614  1.0000 -0.1789632841
N   N18       1.0  0.91060  0.73210  0.27614  1.0000 -0.1789632841
N   N19       1.0  0.58940  0.23210  0.72386  1.0000 -0.1789632841
N   N20       1.0  0.41060  0.26790  0.22386  1.0000 -0.1789632841
N   N21       1.0  0.90600  0.95870  0.60580  1.0000 -0.1969681269
N   N22       1.0  0.09400  0.54130  0.10580  1.0000 -0.1969681269
N   N23       1.0  0.40600  0.04130  0.89420  1.0000 -0.1969681269
N   N24       1.0  0.59400  0.45870  0.39420  1.0000 -0.1969681269
N   N25       1.0  0.01980  0.62080  0.43880  1.0000 -0.3828634507
N   N26       1.0  0.98020  0.87920  0.93880  1.0000 -0.3828634507
N   N27       1.0  0.51980  0.37920  0.06120  1.0000 -0.3828634507
N   N28       1.0  0.48020  0.12080  0.56120  1.0000 -0.3828634507
N   N29       1.0  0.16600  0.62690  0.41120  1.0000 -0.3661856837
N   N30       1.0  0.83400  0.87310  0.91120  1.0000 -0.3661856837
N   N31       1.0  0.66600  0.37310  0.08880  1.0000 -0.3661856837
N   N32       1.0  0.33400  0.12690  0.58880  1.0000 -0.3661856837
N   N33       1.0  0.16280  0.58640  0.45780  1.0000 -0.3904316648
N   N34       1.0  0.83720  0.91360  0.95780  1.0000 -0.3904316648
N   N35       1.0  0.66280  0.41360  0.04220  1.0000 -0.3904316648
N   N36       1.0  0.33720  0.08640  0.54220  1.0000 -0.3904316648
N   N37       1.0  0.91690  0.55890  0.53810  1.0000 -0.1903582401
N   N38       1.0  0.08310  0.94110  0.03810  1.0000 -0.1903582401
N   N39       1.0  0.41690  0.44110  0.96190  1.0000 -0.1903582401
N   N40       1.0  0.58310  0.05890  0.46190  1.0000 -0.1903582401
N   N41       1.0  0.91580  0.70100  0.34560  1.0000 -0.1730352259
N   N42       1.0  0.08420  0.79900  0.84560  1.0000 -0.1730352259
N   N43       1.0  0.41580  0.29900  0.15440  1.0000 -0.1730352259
N   N44       1.0  0.58420  0.20100  0.65440  1.0000 -0.1730352259
N   N45       1.0  0.49600  0.55370  0.42040  1.0000 -0.1730352259
N   N46       1.0  0.50400  0.94630  0.92040  1.0000 -0.1730352259
N   N47       1.0  0.99600  0.44630  0.07960  1.0000 -0.1730352259
N   N48       1.0  0.00400  0.05370  0.57960  1.0000 -0.1730352259
N   N49       1.0  0.02130  0.26000  0.32642  1.0000 -0.4179661246
N   N50       1.0  0.97870  0.24000  0.82642  1.0000 -0.4284362957
N   N51       1.0  0.52130  0.74000  0.17358  1.0000 -0.4284362957
N   N52       1.0  0.47870  0.76000  0.67358  1.0000 -0.4284362957
N   N53       1.0  0.01790  0.17690  0.32360  1.0000 -0.4003439172
N   N54       1.0  0.98210  0.32310  0.82360  1.0000 -0.4003439172
N   N55       1.0  0.51790  0.82310  0.17640  1.0000 -0.4003439172
N   N56       1.0  0.48210  0.67690  0.67640  1.0000 -0.4003439172
N   N57       1.0  0.05910  0.21520  0.36918  1.0000 -0.4147425578
N   N58       1.0  0.94090  0.28480  0.86918  1.0000 -0.4179661246
N   N59       1.0  0.55910  0.78480  0.13082  1.0000 -0.4179661246
N   N60       1.0  0.44090  0.71520  0.63082  1.0000 -0.4179661246
N   N61       1.0  0.10060  0.38430  0.40190  1.0000 -0.1789632841
N   N62       1.0  0.89940  0.11570  0.90190  1.0000 -0.1789632841
N   N63       1.0  0.60060  0.61570  0.09810  1.0000 -0.1789632841
N   N64       1.0  0.39940  0.88430  0.59810  1.0000 -0.1789632841
N   N65       1.0  0.91060  0.23210  0.22386  1.0000 -0.1789632841
N   N66       1.0  0.08940  0.26790  0.72386  1.0000 -0.1789632841
N   N67       1.0  0.41060  0.76790  0.27614  1.0000 -0.1789632841
N   N68       1.0  0.58940  0.73210  0.77614  1.0000 -0.1789632841
N   N69       1.0  0.09400  0.04130  0.39420  1.0000 -0.1969681269
N   N70       1.0  0.90600  0.45870  0.89420  1.0000 -0.1969681269
N   N71       1.0  0.59400  0.95870  0.10580  1.0000 -0.1969681269
N   N72       1.0  0.40600  0.54130  0.60580  1.0000 -0.1969681269
N   N73       1.0  0.98020  0.37920  0.56120  1.0000 -0.3828634507
N   N74       1.0  0.01980  0.12080  0.06120  1.0000 -0.3828634507
N   N75       1.0  0.48020  0.62080  0.93880  1.0000 -0.3828634507
N   N76       1.0  0.51980  0.87920  0.43880  1.0000 -0.3828634507
N   N77       1.0  0.83400  0.37310  0.58880  1.0000 -0.3661856837
N   N78       1.0  0.16600  0.12690  0.08880  1.0000 -0.3661856837
N   N79       1.0  0.33400  0.62690  0.91120  1.0000 -0.3661856837
N   N80       1.0  0.66600  0.87310  0.41120  1.0000 -0.3661856837
N   N81       1.0  0.83720  0.41360  0.54220  1.0000 -0.3904316648
N   N82       1.0  0.16280  0.08640  0.04220  1.0000 -0.3904316648
N   N83       1.0  0.33720  0.58640  0.95780  1.0000 -0.3904316648
N   N84       1.0  0.66280  0.91360  0.45780  1.0000 -0.3904316648
N   N85       1.0  0.08310  0.44110  0.46190  1.0000 -0.1903582401
N   N86       1.0  0.91690  0.05890  0.96190  1.0000 -0.1903582401
N   N87       1.0  0.58310  0.55890  0.03810  1.0000 -0.1903582401
N   N88       1.0  0.41690  0.94110  0.53810  1.0000 -0.1903582401
N   N89       1.0  0.08420  0.29900  0.65440  1.0000 -0.1730352259
N   N90       1.0  0.91580  0.20100  0.15440  1.0000 -0.1730352259
N   N91       1.0  0.58420  0.70100  0.84560  1.0000 -0.1730352259
N   N92       1.0  0.41580  0.79900  0.34560  1.0000 -0.1730352259
N   N93       1.0  0.50400  0.44630  0.57960  1.0000 -0.1730352259
N   N94       1.0  0.49600  0.05370  0.07960  1.0000 -0.1730352259
N   N95       1.0  0.00400  0.55370  0.92040  1.0000 -0.1730352259
N   N96       1.0  0.99600  0.94630  0.42040  1.0000 -0.1730352259
