# DDEC6 charges by PACMAN v1.1 (https://github.com/mtap-research/PACMAN-charge/)
data_2008[Er][ctn]3[FSR]1
_chemical_formula_sum              "Er8 H336 C366 N48 O120"
_cell_length_a       24.1205
_cell_length_b       24.1205
_cell_length_c       24.1205
_cell_angle_alpha    109.461
_cell_angle_beta     109.461
_cell_angle_gamma    109.461

_symmetry_space_group_name_H-M    "P 1"
_symmetry_Int_Tables_number       1

loop_
  _symmetry_equiv_pos_as_xyz
  'x, y, z'

loop_
  _atom_site_type_symbol
  _atom_site_label
  _atom_site_symmetry_multiplicity
  _atom_site_fract_x
  _atom_site_fract_y
  _atom_site_fract_z
  _atom_site_occupancy
  _atom_site_charge
Er  Er1       1.0  0.64793  0.59848  0.14793  1.0000 1.9254547104
Er  Er2       1.0  0.59848  0.14793  0.64793  1.0000 1.9254547104
Er  Er3       1.0  0.14793  0.64793  0.59848  1.0000 1.9254547104
Er  Er4       1.0  0.14793  0.64793  0.09848  1.0000 1.9254547104
Er  Er5       1.0  0.09848  0.14793  0.64793  1.0000 1.9254547104
Er  Er6       1.0  0.64793  0.09848  0.14793  1.0000 1.9254547104
Er  Er7       1.0  0.69717  0.69717  0.69717  1.0000 1.9088633204
Er  Er8       1.0  0.19717  0.19717  0.19717  1.0000 1.9088633204
H   H1        1.0  0.52320  0.65100  0.97270  1.0000 0.2782807113
H   H2        1.0  0.65100  0.97270  0.52320  1.0000 0.2782807113
H   H3        1.0  0.97270  0.52320  0.65100  1.0000 0.2782807113
H   H4        1.0  0.02320  0.47270  0.15100  1.0000 0.2782807113
H   H5        1.0  0.15100  0.02320  0.47270  1.0000 0.2782807113
H   H6        1.0  0.47270  0.15100  0.02320  1.0000 0.2782807113
H   H7        1.0  0.28470  0.61000  0.78780  1.0000 0.2907184754
H   H8        1.0  0.61000  0.78780  0.28470  1.0000 0.2907184754
H   H9        1.0  0.78780  0.28470  0.61000  1.0000 0.2907184754
H   H10       1.0  0.78470  0.28780  0.11000  1.0000 0.2907184754
H   H11       1.0  0.11000  0.78470  0.28780  1.0000 0.2907184754
H   H12       1.0  0.28780  0.11000  0.78470  1.0000 0.2907184754
H   H13       1.0  0.32390  0.33150  0.69200  1.0000 0.2782807113
H   H14       1.0  0.33150  0.69200  0.32390  1.0000 0.2782807113
H   H15       1.0  0.69200  0.32390  0.33150  1.0000 0.2782807113
H   H16       1.0  0.82390  0.19200  0.83150  1.0000 0.2782807113
H   H17       1.0  0.83150  0.82390  0.19200  1.0000 0.2782807113
H   H18       1.0  0.19200  0.83150  0.82390  1.0000 0.2782807113
H   H19       1.0  0.47380  0.51750  0.64710  1.0000 0.2782807113
H   H20       1.0  0.51750  0.64710  0.47380  1.0000 0.2782807113
H   H21       1.0  0.64710  0.47380  0.51750  1.0000 0.2782807113
H   H22       1.0  0.97380  0.14710  0.01750  1.0000 0.2782807113
H   H23       1.0  0.01750  0.97380  0.14710  1.0000 0.2782807113
H   H24       1.0  0.14710  0.01750  0.97380  1.0000 0.2782807113
H   H25       1.0  0.33520  0.53540  0.80800  1.0000 0.0992063825
H   H26       1.0  0.53540  0.80800  0.33520  1.0000 0.0992063825
H   H27       1.0  0.80800  0.33520  0.53540  1.0000 0.0992063825
H   H28       1.0  0.83520  0.30800  0.03540  1.0000 0.0992063825
H   H29       1.0  0.03540  0.83520  0.30800  1.0000 0.0992063825
H   H30       1.0  0.30800  0.03540  0.83520  1.0000 0.0992063825
H   H31       1.0  0.33270  0.46550  0.79130  1.0000 0.0992063825
H   H32       1.0  0.46550  0.79130  0.33270  1.0000 0.0992063825
H   H33       1.0  0.79130  0.33270  0.46550  1.0000 0.0992063825
H   H34       1.0  0.83270  0.29130  0.96550  1.0000 0.0992063825
H   H35       1.0  0.96550  0.83270  0.29130  1.0000 0.0992063825
H   H36       1.0  0.29130  0.96550  0.83270  1.0000 0.0992063825
H   H37       1.0  0.46360  0.62240  0.84670  1.0000 0.091025093
H   H38       1.0  0.62240  0.84670  0.46360  1.0000 0.091025093
H   H39       1.0  0.84670  0.46360  0.62240  1.0000 0.091025093
H   H40       1.0  0.96360  0.34670  0.12240  1.0000 0.091025093
H   H41       1.0  0.12240  0.96360  0.34670  1.0000 0.091025093
H   H42       1.0  0.34670  0.12240  0.96360  1.0000 0.091025093
H   H43       1.0  0.46470  0.60680  0.77840  1.0000 0.0992063825
H   H44       1.0  0.60680  0.77840  0.46470  1.0000 0.0992063825
H   H45       1.0  0.77840  0.46470  0.60680  1.0000 0.0992063825
H   H46       1.0  0.96470  0.27840  0.10680  1.0000 0.0992063825
H   H47       1.0  0.10680  0.96470  0.27840  1.0000 0.0992063825
H   H48       1.0  0.27840  0.10680  0.96470  1.0000 0.0992063825
H   H49       1.0  0.36440  0.48630  0.66950  1.0000 0.0992063825
H   H50       1.0  0.48630  0.66950  0.36440  1.0000 0.0992063825
H   H51       1.0  0.66950  0.36440  0.48630  1.0000 0.0992063825
H   H52       1.0  0.86440  0.16950  0.98630  1.0000 0.0992063825
H   H53       1.0  0.98630  0.86440  0.16950  1.0000 0.0992063825
H   H54       1.0  0.16950  0.98630  0.86440  1.0000 0.0992063825
H   H55       1.0  0.31080  0.49630  0.68850  1.0000 0.0992063825
H   H56       1.0  0.49630  0.68850  0.31080  1.0000 0.0992063825
H   H57       1.0  0.68850  0.31080  0.49630  1.0000 0.0992063825
H   H58       1.0  0.81080  0.18850  0.99630  1.0000 0.0992063825
H   H59       1.0  0.99630  0.81080  0.18850  1.0000 0.0992063825
H   H60       1.0  0.18850  0.99630  0.81080  1.0000 0.0992063825
H   H61       1.0  0.42720  0.45310  0.76470  1.0000 0.0992063825
H   H62       1.0  0.45310  0.76470  0.42720  1.0000 0.0992063825
H   H63       1.0  0.76470  0.42720  0.45310  1.0000 0.0992063825
H   H64       1.0  0.92720  0.26470  0.95310  1.0000 0.0992063825
H   H65       1.0  0.95310  0.92720  0.26470  1.0000 0.0992063825
H   H66       1.0  0.26470  0.95310  0.92720  1.0000 0.0992063825
H   H67       1.0  0.48000  0.52270  0.83190  1.0000 0.0992063825
H   H68       1.0  0.52270  0.83190  0.48000  1.0000 0.0992063825
H   H69       1.0  0.83190  0.48000  0.52270  1.0000 0.0992063825
H   H70       1.0  0.98000  0.33190  0.02270  1.0000 0.0992063825
H   H71       1.0  0.02270  0.98000  0.33190  1.0000 0.0992063825
H   H72       1.0  0.33190  0.02270  0.98000  1.0000 0.0992063825
H   H73       1.0  0.29600  0.47660  0.86640  1.0000 0.1281810409
H   H74       1.0  0.47660  0.86640  0.29600  1.0000 0.1281810409
H   H75       1.0  0.86640  0.29600  0.47660  1.0000 0.1281810409
H   H76       1.0  0.79600  0.36640  0.97660  1.0000 0.1281810409
H   H77       1.0  0.97660  0.79600  0.36640  1.0000 0.1281810409
H   H78       1.0  0.36640  0.97660  0.79600  1.0000 0.1281810409
H   H79       1.0  0.26980  0.45930  0.94260  1.0000 0.1371265942
H   H80       1.0  0.45930  0.94260  0.26980  1.0000 0.1371265942
H   H81       1.0  0.94260  0.26980  0.45930  1.0000 0.1371265942
H   H82       1.0  0.76980  0.44260  0.95930  1.0000 0.1371265942
H   H83       1.0  0.95930  0.76980  0.44260  1.0000 0.1371265942
H   H84       1.0  0.44260  0.95930  0.76980  1.0000 0.1371265942
H   H85       1.0  0.35300  0.48320  0.04310  1.0000 0.1207535713
H   H86       1.0  0.48320  0.04310  0.35300  1.0000 0.1207535713
H   H87       1.0  0.04310  0.35300  0.48320  1.0000 0.1281810409
H   H88       1.0  0.85300  0.54310  0.98320  1.0000 0.1207535713
H   H89       1.0  0.98320  0.85300  0.54310  1.0000 0.1207535713
H   H90       1.0  0.54310  0.98320  0.85300  1.0000 0.1207535713
H   H91       1.0  0.45490  0.56510  0.07590  1.0000 0.1207535713
H   H92       1.0  0.56510  0.07590  0.45490  1.0000 0.1207535713
H   H93       1.0  0.07590  0.45490  0.56510  1.0000 0.1207535713
H   H94       1.0  0.95490  0.57590  0.06510  1.0000 0.1207535713
H   H95       1.0  0.06510  0.95490  0.57590  1.0000 0.1207535713
H   H96       1.0  0.57590  0.06510  0.95490  1.0000 0.1207535713
H   H97       1.0  0.63840  0.70830  0.06600  1.0000 0.1092200181
H   H98       1.0  0.70830  0.06600  0.63840  1.0000 0.1092200181
H   H99       1.0  0.06600  0.63840  0.70830  1.0000 0.1092200181
H   H100      1.0  0.13840  0.56600  0.20830  1.0000 0.1092200181
H   H101      1.0  0.20830  0.13840  0.56600  1.0000 0.1092200181
H   H102      1.0  0.56600  0.20830  0.13840  1.0000 0.1092200181
H   H103      1.0  0.62730  0.64190  0.01060  1.0000 0.1092200181
H   H104      1.0  0.64190  0.01060  0.62730  1.0000 0.1092200181
H   H105      1.0  0.01060  0.62730  0.64190  1.0000 0.1092200181
H   H106      1.0  0.12730  0.51060  0.14190  1.0000 0.1092200181
H   H107      1.0  0.14190  0.12730  0.51060  1.0000 0.1092200181
H   H108      1.0  0.51060  0.14190  0.12730  1.0000 0.1092200181
H   H109      1.0  0.63550  0.64330  0.91340  1.0000 0.1207535713
H   H110      1.0  0.64330  0.91340  0.63550  1.0000 0.1207535713
H   H111      1.0  0.91340  0.63550  0.64330  1.0000 0.1207535713
H   H112      1.0  0.13550  0.41340  0.14330  1.0000 0.1207535713
H   H113      1.0  0.14330  0.13550  0.41340  1.0000 0.1207535713
H   H114      1.0  0.41340  0.14330  0.13550  1.0000 0.1207535713
H   H115      1.0  0.62600  0.68580  0.84020  1.0000 0.1281810409
H   H116      1.0  0.68580  0.84020  0.62600  1.0000 0.1281810409
H   H117      1.0  0.84020  0.62600  0.68580  1.0000 0.1281810409
H   H118      1.0  0.12600  0.34020  0.18580  1.0000 0.1281810409
H   H119      1.0  0.18580  0.12600  0.34020  1.0000 0.1281810409
H   H120      1.0  0.34020  0.18580  0.12600  1.0000 0.1281810409
H   H121      1.0  0.64610  0.79470  0.87920  1.0000 0.1207535713
H   H122      1.0  0.79470  0.87920  0.64610  1.0000 0.1207535713
H   H123      1.0  0.87920  0.64610  0.79470  1.0000 0.1207535713
H   H124      1.0  0.14610  0.37920  0.29470  1.0000 0.1207535713
H   H125      1.0  0.29470  0.14610  0.37920  1.0000 0.1207535713
H   H126      1.0  0.37920  0.29470  0.14610  1.0000 0.1207535713
H   H127      1.0  0.65230  0.85130  0.98080  1.0000 0.1281810409
H   H128      1.0  0.85130  0.98080  0.65230  1.0000 0.1281810409
H   H129      1.0  0.98080  0.65230  0.85130  1.0000 0.1281810409
H   H130      1.0  0.15230  0.48080  0.35130  1.0000 0.1281810409
H   H131      1.0  0.35130  0.15230  0.48080  1.0000 0.1207535713
H   H132      1.0  0.48080  0.35130  0.15230  1.0000 0.1281810409
H   H133      1.0  0.62000  0.79100  0.03080  1.0000 0.1207535713
H   H134      1.0  0.79100  0.03080  0.62000  1.0000 0.1207535713
H   H135      1.0  0.03080  0.62000  0.79100  1.0000 0.1207535713
H   H136      1.0  0.12000  0.53080  0.29100  1.0000 0.1207535713
H   H137      1.0  0.29100  0.12000  0.53080  1.0000 0.1207535713
H   H138      1.0  0.53080  0.29100  0.12000  1.0000 0.1207535713
H   H139      1.0  0.49990  0.71640  0.82710  1.0000 0.1207535713
H   H140      1.0  0.71640  0.82710  0.49990  1.0000 0.1207535713
H   H141      1.0  0.82710  0.49990  0.71640  1.0000 0.1207535713
H   H142      1.0  0.99990  0.32710  0.21640  1.0000 0.1207535713
H   H143      1.0  0.21640  0.99990  0.32710  1.0000 0.1207535713
H   H144      1.0  0.32710  0.21640  0.99990  1.0000 0.1207535713
H   H145      1.0  0.52950  0.82020  0.83500  1.0000 0.1281810409
H   H146      1.0  0.82020  0.83500  0.52950  1.0000 0.1281810409
H   H147      1.0  0.83500  0.52950  0.82020  1.0000 0.1281810409
H   H148      1.0  0.02950  0.33500  0.32020  1.0000 0.1281810409
H   H149      1.0  0.32020  0.02950  0.33500  1.0000 0.1281810409
H   H150      1.0  0.33500  0.32020  0.02950  1.0000 0.1281810409
H   H151      1.0  0.44630  0.83880  0.78110  1.0000 0.1207535713
H   H152      1.0  0.83880  0.78110  0.44630  1.0000 0.1207535713
H   H153      1.0  0.78110  0.44630  0.83880  1.0000 0.1207535713
H   H154      1.0  0.94630  0.28110  0.33880  1.0000 0.1207535713
H   H155      1.0  0.33880  0.94630  0.28110  1.0000 0.1207535713
H   H156      1.0  0.28110  0.33880  0.94630  1.0000 0.1207535713
H   H157      1.0  0.33990  0.76690  0.75030  1.0000 0.1207535713
H   H158      1.0  0.76690  0.75030  0.33990  1.0000 0.1207535713
H   H159      1.0  0.75030  0.33990  0.76690  1.0000 0.1207535713
H   H160      1.0  0.83990  0.25030  0.26690  1.0000 0.1207535713
H   H161      1.0  0.26690  0.83990  0.25030  1.0000 0.1207535713
H   H162      1.0  0.25030  0.26690  0.83990  1.0000 0.1207535713
H   H163      1.0  0.15490  0.57220  0.71240  1.0000 0.0992063825
H   H164      1.0  0.57220  0.71240  0.15490  1.0000 0.0992063825
H   H165      1.0  0.71240  0.15490  0.57220  1.0000 0.0992063825
H   H166      1.0  0.65490  0.21240  0.07220  1.0000 0.0992063825
H   H167      1.0  0.07220  0.65490  0.21240  1.0000 0.0992063825
H   H168      1.0  0.21240  0.07220  0.65490  1.0000 0.0992063825
H   H169      1.0  0.17120  0.52780  0.66250  1.0000 0.1092200181
H   H170      1.0  0.52780  0.66250  0.17120  1.0000 0.1092200181
H   H171      1.0  0.66250  0.17120  0.52780  1.0000 0.1092200181
H   H172      1.0  0.67120  0.16250  0.02780  1.0000 0.1092200181
H   H173      1.0  0.02780  0.67120  0.16250  1.0000 0.1092200181
H   H174      1.0  0.16250  0.02780  0.67120  1.0000 0.1092200181
H   H175      1.0  0.16670  0.42800  0.66510  1.0000 0.1207535713
H   H176      1.0  0.42800  0.66510  0.16670  1.0000 0.1207535713
H   H177      1.0  0.66510  0.16670  0.42800  1.0000 0.1207535713
H   H178      1.0  0.66667  0.16510  0.92800  1.0000 0.1207535713
H   H179      1.0  0.92800  0.66667  0.16510  1.0000 0.1207535713
H   H180      1.0  0.16510  0.92800  0.66667  1.0000 0.1207535713
H   H181      1.0  0.16340  0.36140  0.71400  1.0000 0.1207535713
H   H182      1.0  0.36140  0.71400  0.16340  1.0000 0.1207535713
H   H183      1.0  0.71400  0.16340  0.36140  1.0000 0.1207535713
H   H184      1.0  0.66340  0.21400  0.86140  1.0000 0.1207535713
H   H185      1.0  0.86140  0.66340  0.21400  1.0000 0.1207535713
H   H186      1.0  0.21400  0.86140  0.66340  1.0000 0.1207535713
H   H187      1.0  0.14660  0.38670  0.80540  1.0000 0.1207535713
H   H188      1.0  0.38670  0.80540  0.14660  1.0000 0.1207535713
H   H189      1.0  0.80540  0.14660  0.38670  1.0000 0.1207535713
H   H190      1.0  0.64660  0.30540  0.88670  1.0000 0.1207535713
H   H191      1.0  0.88670  0.64660  0.30540  1.0000 0.1207535713
H   H192      1.0  0.30540  0.88670  0.64660  1.0000 0.1207535713
H   H193      1.0  0.14460  0.48550  0.85350  1.0000 0.1207535713
H   H194      1.0  0.48550  0.85350  0.14460  1.0000 0.1207535713
H   H195      1.0  0.85350  0.14460  0.48550  1.0000 0.1207535713
H   H196      1.0  0.64460  0.35350  0.98550  1.0000 0.1207535713
H   H197      1.0  0.98550  0.64460  0.35350  1.0000 0.1207535713
H   H198      1.0  0.35350  0.98550  0.64460  1.0000 0.1207535713
H   H199      1.0  0.17010  0.56140  0.81780  1.0000 0.1281810409
H   H200      1.0  0.56140  0.81780  0.17010  1.0000 0.1281810409
H   H201      1.0  0.81780  0.17010  0.56140  1.0000 0.1281810409
H   H202      1.0  0.67010  0.31780  0.06140  1.0000 0.1281810409
H   H203      1.0  0.06140  0.67010  0.31780  1.0000 0.1281810409
H   H204      1.0  0.31780  0.06140  0.67010  1.0000 0.1281810409
H   H205      1.0  0.26350  0.42590  0.57370  1.0000 0.1207535713
H   H206      1.0  0.42590  0.57370  0.26350  1.0000 0.1207535713
H   H207      1.0  0.57370  0.26350  0.42590  1.0000 0.1207535713
H   H208      1.0  0.76350  0.07370  0.92590  1.0000 0.1207535713
H   H209      1.0  0.92590  0.76350  0.07370  1.0000 0.1207535713
H   H210      1.0  0.07370  0.92590  0.76350  1.0000 0.1207535713
H   H211      1.0  0.16040  0.35430  0.47450  1.0000 0.1207535713
H   H212      1.0  0.35430  0.47450  0.16040  1.0000 0.1207535713
H   H213      1.0  0.47450  0.16040  0.35430  1.0000 0.1207535713
H   H214      1.0  0.66040  0.97450  0.85430  1.0000 0.1207535713
H   H215      1.0  0.85430  0.66040  0.97450  1.0000 0.1207535713
H   H216      1.0  0.97450  0.85430  0.66040  1.0000 0.1207535713
H   H217      1.0  0.08890  0.25310  0.46060  1.0000 0.1207535713
H   H218      1.0  0.25310  0.46060  0.08890  1.0000 0.1207535713
H   H219      1.0  0.46060  0.08890  0.25310  1.0000 0.1207535713
H   H220      1.0  0.58890  0.96060  0.75310  1.0000 0.1207535713
H   H221      1.0  0.75310  0.58890  0.96060  1.0000 0.1207535713
H   H222      1.0  0.96060  0.75310  0.58890  1.0000 0.1207535713
H   H223      1.0  0.12920  0.21790  0.53320  1.0000 0.1092200181
H   H224      1.0  0.21790  0.53320  0.12920  1.0000 0.1092200181
H   H225      1.0  0.53320  0.12920  0.21790  1.0000 0.1092200181
H   H226      1.0  0.62920  0.03320  0.71790  1.0000 0.1092200181
H   H227      1.0  0.71790  0.62920  0.03320  1.0000 0.1092200181
H   H228      1.0  0.03320  0.71790  0.62920  1.0000 0.1092200181
H   H229      1.0  0.29130  0.22780  0.71610  1.0000 0.1092200181
H   H230      1.0  0.22780  0.71610  0.29130  1.0000 0.1092200181
H   H231      1.0  0.71610  0.29130  0.22780  1.0000 0.1092200181
H   H232      1.0  0.79130  0.21610  0.72780  1.0000 0.1092200181
H   H233      1.0  0.72780  0.79130  0.21610  1.0000 0.1092200181
H   H234      1.0  0.21610  0.72780  0.79130  1.0000 0.1092200181
H   H235      1.0  0.28230  0.28210  0.76500  1.0000 0.1092200181
H   H236      1.0  0.28210  0.76500  0.28230  1.0000 0.1092200181
H   H237      1.0  0.76500  0.28230  0.28210  1.0000 0.1092200181
H   H238      1.0  0.78230  0.26500  0.78210  1.0000 0.1092200181
H   H239      1.0  0.78210  0.78230  0.26500  1.0000 0.1092200181
H   H240      1.0  0.26500  0.78210  0.78230  1.0000 0.1092200181
H   H241      1.0  0.37300  0.37770  0.85950  1.0000 0.1207535713
H   H242      1.0  0.37770  0.85950  0.37300  1.0000 0.1207535713
H   H243      1.0  0.85950  0.37300  0.37770  1.0000 0.1207535713
H   H244      1.0  0.87300  0.35950  0.87770  1.0000 0.1207535713
H   H245      1.0  0.87770  0.87300  0.35950  1.0000 0.1207535713
H   H246      1.0  0.35950  0.87770  0.87300  1.0000 0.1207535713
H   H247      1.0  0.48510  0.43840  0.93840  1.0000 0.1281810409
H   H248      1.0  0.43840  0.93840  0.48510  1.0000 0.1281810409
H   H249      1.0  0.93840  0.48510  0.43840  1.0000 0.1281810409
H   H250      1.0  0.98510  0.43840  0.93840  1.0000 0.1281810409
H   H251      1.0  0.93840  0.98510  0.43840  1.0000 0.1281810409
H   H252      1.0  0.43840  0.93840  0.98510  1.0000 0.1281810409
H   H253      1.0  0.56260  0.42360  0.90870  1.0000 0.1207535713
H   H254      1.0  0.42360  0.90870  0.56260  1.0000 0.1207535713
H   H255      1.0  0.90870  0.56260  0.42360  1.0000 0.1207535713
H   H256      1.0  0.06260  0.40870  0.92360  1.0000 0.1207535713
H   H257      1.0  0.92360  0.06260  0.40870  1.0000 0.1207535713
H   H258      1.0  0.40870  0.92360  0.06260  1.0000 0.1207535713
H   H259      1.0  0.52180  0.31540  0.82130  1.0000 0.1207535713
H   H260      1.0  0.31540  0.82130  0.52180  1.0000 0.1207535713
H   H261      1.0  0.82130  0.52180  0.31540  1.0000 0.1207535713
H   H262      1.0  0.02180  0.32130  0.81540  1.0000 0.1207535713
H   H263      1.0  0.81540  0.02180  0.32130  1.0000 0.1207535713
H   H264      1.0  0.32130  0.81540  0.02180  1.0000 0.1207535713
H   H265      1.0  0.41150  0.25970  0.73740  1.0000 0.1281810409
H   H266      1.0  0.25970  0.73740  0.41150  1.0000 0.1281810409
H   H267      1.0  0.73740  0.41150  0.25970  1.0000 0.1281810409
H   H268      1.0  0.91150  0.23740  0.75970  1.0000 0.1281810409
H   H269      1.0  0.75970  0.91150  0.23740  1.0000 0.1281810409
H   H270      1.0  0.23740  0.75970  0.91150  1.0000 0.1281810409
H   H271      1.0  0.53360  0.46280  0.81540  1.0000 0.1281810409
H   H272      1.0  0.46280  0.81540  0.53360  1.0000 0.1281810409
H   H273      1.0  0.81540  0.53360  0.46280  1.0000 0.1281810409
H   H274      1.0  0.03360  0.31540  0.96280  1.0000 0.1281810409
H   H275      1.0  0.96280  0.03360  0.31540  1.0000 0.1281810409
H   H276      1.0  0.31540  0.96280  0.03360  1.0000 0.1281810409
H   H277      1.0  0.63610  0.46420  0.84620  1.0000 0.1281810409
H   H278      1.0  0.46420  0.84620  0.63610  1.0000 0.1281810409
H   H279      1.0  0.84620  0.63610  0.46420  1.0000 0.1281810409
H   H280      1.0  0.13610  0.34620  0.96420  1.0000 0.1281810409
H   H281      1.0  0.96420  0.13610  0.34620  1.0000 0.1281810409
H   H282      1.0  0.34620  0.96420  0.13610  1.0000 0.1281810409
H   H283      1.0  0.69500  0.50550  0.80240  1.0000 0.1281810409
H   H284      1.0  0.50550  0.80240  0.69500  1.0000 0.1281810409
H   H285      1.0  0.80240  0.69500  0.50550  1.0000 0.1281810409
H   H286      1.0  0.19500  0.30240  0.00550  1.0000 0.1281810409
H   H287      1.0  0.00550  0.19500  0.30240  1.0000 0.1281810409
H   H288      1.0  0.30240  0.00550  0.19500  1.0000 0.1281810409
H   H289      1.0  0.66890  0.55090  0.74110  1.0000 0.1207535713
H   H290      1.0  0.55090  0.74110  0.66890  1.0000 0.1207535713
H   H291      1.0  0.74110  0.66890  0.55090  1.0000 0.1207535713
H   H292      1.0  0.16890  0.24110  0.05090  1.0000 0.1207535713
H   H293      1.0  0.05090  0.16890  0.24110  1.0000 0.1207535713
H   H294      1.0  0.24110  0.05090  0.16890  1.0000 0.1207535713
H   H295      1.0  0.51660  0.63170  0.65150  1.0000 0.1092200181
H   H296      1.0  0.63170  0.65150  0.51660  1.0000 0.1092200181
H   H297      1.0  0.65150  0.51660  0.63170  1.0000 0.1092200181
H   H298      1.0  0.01660  0.15150  0.13170  1.0000 0.1092200181
H   H299      1.0  0.13170  0.01660  0.15150  1.0000 0.1092200181
H   H300      1.0  0.15150  0.13170  0.01660  1.0000 0.1092200181
H   H301      1.0  0.50630  0.57600  0.58580  1.0000 0.1092200181
H   H302      1.0  0.57600  0.58580  0.50630  1.0000 0.1092200181
H   H303      1.0  0.58580  0.50630  0.57600  1.0000 0.1092200181
H   H304      1.0  0.00630  0.08580  0.07600  1.0000 0.1092200181
H   H305      1.0  0.07600  0.00630  0.08580  1.0000 0.1092200181
H   H306      1.0  0.08580  0.07600  0.00630  1.0000 0.1092200181
H   H307      1.0  0.42190  0.63820  0.65240  1.0000 0.1207535713
H   H308      1.0  0.63820  0.65240  0.42190  1.0000 0.1207535713
H   H309      1.0  0.65240  0.42190  0.63820  1.0000 0.1207535713
H   H310      1.0  0.92190  0.15240  0.13820  1.0000 0.1207535713
H   H311      1.0  0.13820  0.92190  0.15240  1.0000 0.1207535713
H   H312      1.0  0.15240  0.13820  0.92190  1.0000 0.1207535713
H   H313      1.0  0.30790  0.59670  0.61170  1.0000 0.1207535713
H   H314      1.0  0.59670  0.61170  0.30790  1.0000 0.1207535713
H   H315      1.0  0.61170  0.30790  0.59670  1.0000 0.1207535713
H   H316      1.0  0.80790  0.11170  0.09670  1.0000 0.1207535713
H   H317      1.0  0.09670  0.80790  0.11170  1.0000 0.1207535713
H   H318      1.0  0.11170  0.09670  0.80790  1.0000 0.1207535713
H   H319      1.0  0.23280  0.50180  0.50840  1.0000 0.1207535713
H   H320      1.0  0.50180  0.50840  0.23280  1.0000 0.1207535713
H   H321      1.0  0.50840  0.23280  0.50180  1.0000 0.1207535713
H   H322      1.0  0.73280  0.00840  0.00180  1.0000 0.1207535713
H   H323      1.0  0.00180  0.73280  0.00840  1.0000 0.1207535713
H   H324      1.0  0.00840  0.00180  0.73280  1.0000 0.1207535713
H   H325      1.0  0.27290  0.45480  0.44180  1.0000 0.1207535713
H   H326      1.0  0.45480  0.44180  0.27290  1.0000 0.1207535713
H   H327      1.0  0.44180  0.27290  0.45480  1.0000 0.1207535713
H   H328      1.0  0.77290  0.94180  0.95480  1.0000 0.1207535713
H   H329      1.0  0.95480  0.77290  0.94180  1.0000 0.1207535713
H   H330      1.0  0.94180  0.95480  0.77290  1.0000 0.1207535713
H   H331      1.0  0.38260  0.47660  0.49600  1.0000 0.1281810409
H   H332      1.0  0.47660  0.49600  0.38260  1.0000 0.1281810409
H   H333      1.0  0.49600  0.38260  0.47660  1.0000 0.1281810409
H   H334      1.0  0.88260  0.99600  0.97660  1.0000 0.1281810409
H   H335      1.0  0.97660  0.88260  0.99600  1.0000 0.1281810409
H   H336      1.0  0.99600  0.97660  0.88260  1.0000 0.1281810409
C   C1        1.0  0.39840  0.52400  0.77270  1.0000 0.091025093
C   C2        1.0  0.52400  0.77270  0.39840  1.0000 0.091025093
C   C3        1.0  0.77270  0.39840  0.52400  1.0000 0.091025093
C   C4        1.0  0.89840  0.27270  0.02400  1.0000 0.091025093
C   C5        1.0  0.02400  0.89840  0.27270  1.0000 0.091025093
C   C6        1.0  0.27270  0.02400  0.89840  1.0000 0.091025093
C   C7        1.0  0.36260  0.51350  0.81060  1.0000 -0.1201670193
C   C8        1.0  0.51350  0.81060  0.36260  1.0000 -0.1201670193
C   C9        1.0  0.81060  0.36260  0.51350  1.0000 -0.1201670193
C   C10       1.0  0.86260  0.31060  0.01350  1.0000 -0.1201670193
C   C11       1.0  0.01350  0.86260  0.31060  1.0000 -0.1201670193
C   C12       1.0  0.31060  0.01350  0.86260  1.0000 -0.1201670193
C   C13       1.0  0.43580  0.59720  0.79770  1.0000 -0.1201670193
C   C14       1.0  0.59720  0.79770  0.43580  1.0000 -0.1201670193
C   C15       1.0  0.79770  0.43580  0.59720  1.0000 -0.1201670193
C   C16       1.0  0.93580  0.29770  0.09720  1.0000 -0.1201670193
C   C17       1.0  0.09720  0.93580  0.29770  1.0000 -0.1201670193
C   C18       1.0  0.29770  0.09720  0.93580  1.0000 -0.1201670193
C   C19       1.0  0.34340  0.48070  0.69670  1.0000 -0.0788574366
C   C20       1.0  0.48070  0.69670  0.34340  1.0000 -0.0788574366
C   C21       1.0  0.69670  0.34340  0.48070  1.0000 -0.0788574366
C   C22       1.0  0.84340  0.19670  0.98070  1.0000 -0.0788574366
C   C23       1.0  0.98070  0.84340  0.19670  1.0000 -0.0788574366
C   C24       1.0  0.19670  0.98070  0.84340  1.0000 -0.0788574366
C   C25       1.0  0.45000  0.50180  0.78350  1.0000 -0.0715889131
C   C26       1.0  0.50180  0.78350  0.45000  1.0000 -0.0715889131
C   C27       1.0  0.78350  0.45000  0.50180  1.0000 -0.0715889131
C   C28       1.0  0.95000  0.28350  0.00180  1.0000 -0.0715889131
C   C29       1.0  0.00180  0.95000  0.28350  1.0000 -0.0715889131
C   C30       1.0  0.28350  0.00180  0.95000  1.0000 -0.0715889131
C   C31       1.0  0.52270  0.60450  0.02300  1.0000 0.4444640919
C   C32       1.0  0.60450  0.02300  0.52270  1.0000 0.4444640919
C   C33       1.0  0.02300  0.52270  0.60450  1.0000 0.4470318401
C   C34       1.0  0.02270  0.52300  0.10450  1.0000 0.4470318401
C   C35       1.0  0.10450  0.02270  0.52300  1.0000 0.4470318401
C   C36       1.0  0.52300  0.10450  0.02270  1.0000 0.4444640919
C   C37       1.0  0.44930  0.55420  0.99130  1.0000 -0.1080017289
C   C38       1.0  0.55420  0.99130  0.44930  1.0000 -0.1080017289
C   C39       1.0  0.99130  0.44930  0.55420  1.0000 -0.1080017289
C   C40       1.0  0.94930  0.49130  0.05420  1.0000 -0.1080017289
C   C41       1.0  0.05420  0.94930  0.49130  1.0000 -0.1080017289
C   C42       1.0  0.49130  0.05420  0.94930  1.0000 -0.1080017289
C   C43       1.0  0.39570  0.52790  0.92900  1.0000 0.1692227964
C   C44       1.0  0.52790  0.92900  0.39570  1.0000 0.1692227964
C   C45       1.0  0.92900  0.39570  0.52790  1.0000 0.1692227964
C   C46       1.0  0.89570  0.42900  0.02790  1.0000 0.1692227964
C   C47       1.0  0.02790  0.89570  0.42900  1.0000 0.1692227964
C   C48       1.0  0.42900  0.02790  0.89570  1.0000 0.1692227964
C   C49       1.0  0.33000  0.49250  0.90980  1.0000 -0.1913744291
C   C50       1.0  0.49250  0.90980  0.33000  1.0000 -0.1913744291
C   C51       1.0  0.90980  0.33000  0.49250  1.0000 -0.1913744291
C   C52       1.0  0.83000  0.40980  0.99250  1.0000 -0.1913744291
C   C53       1.0  0.99250  0.83000  0.40980  1.0000 -0.1913744291
C   C54       1.0  0.40980  0.99250  0.83000  1.0000 -0.1913744291
C   C55       1.0  0.31520  0.48080  0.95430  1.0000 -0.0715889131
C   C56       1.0  0.48080  0.95430  0.31520  1.0000 -0.0715889131
C   C57       1.0  0.95430  0.31520  0.48080  1.0000 -0.0715889131
C   C58       1.0  0.81520  0.45430  0.98080  1.0000 -0.0715889131
C   C59       1.0  0.98080  0.81520  0.45430  1.0000 -0.0715889131
C   C60       1.0  0.45430  0.98080  0.81520  1.0000 -0.0715889131
C   C61       1.0  0.36220  0.49850  0.01470  1.0000 -0.1080017289
C   C62       1.0  0.49850  0.01470  0.36220  1.0000 -0.1080017289
C   C63       1.0  0.01470  0.36220  0.49850  1.0000 -0.1080017289
C   C64       1.0  0.86220  0.51470  0.99850  1.0000 -0.1080017289
C   C65       1.0  0.99850  0.86220  0.51470  1.0000 -0.1080017289
C   C66       1.0  0.51470  0.99850  0.86220  1.0000 -0.1080017289
C   C67       1.0  0.42340  0.54030  0.02960  1.0000 -0.1080017289
C   C68       1.0  0.54030  0.02960  0.42340  1.0000 -0.1080017289
C   C69       1.0  0.02960  0.42340  0.54030  1.0000 -0.1080017289
C   C70       1.0  0.92340  0.52960  0.04030  1.0000 -0.1080017289
C   C71       1.0  0.04030  0.92340  0.52960  1.0000 -0.1080017289
C   C72       1.0  0.52960  0.04030  0.92340  1.0000 -0.1080017289
C   C73       1.0  0.61180  0.67450  0.01810  1.0000 -0.0214333409
C   C74       1.0  0.67450  0.01810  0.61180  1.0000 -0.0214333409
C   C75       1.0  0.01810  0.61180  0.67450  1.0000 -0.0214333409
C   C76       1.0  0.11180  0.51810  0.17450  1.0000 -0.0214333409
C   C77       1.0  0.17450  0.11180  0.51810  1.0000 -0.0214333409
C   C78       1.0  0.51810  0.17450  0.11180  1.0000 -0.0214333409
C   C79       1.0  0.62120  0.70910  0.97590  1.0000 0.0233889198
C   C80       1.0  0.70910  0.97590  0.62120  1.0000 0.0233889198
C   C81       1.0  0.97590  0.62120  0.70910  1.0000 0.0233889198
C   C82       1.0  0.12120  0.47590  0.20910  1.0000 0.0233889198
C   C83       1.0  0.20910  0.12120  0.47590  1.0000 0.0233889198
C   C84       1.0  0.47590  0.20910  0.12120  1.0000 0.0233889198
C   C85       1.0  0.63020  0.68130  0.92240  1.0000 -0.1585861137
C   C86       1.0  0.68130  0.92240  0.63020  1.0000 -0.1585861137
C   C87       1.0  0.92240  0.63020  0.68130  1.0000 -0.1585861137
C   C88       1.0  0.13020  0.42240  0.18130  1.0000 -0.1585861137
C   C89       1.0  0.18130  0.13020  0.42240  1.0000 -0.1585861137
C   C90       1.0  0.42240  0.18130  0.13020  1.0000 -0.1585861137
C   C91       1.0  0.63150  0.70990  0.88260  1.0000 -0.0788574366
C   C92       1.0  0.70990  0.88260  0.63150  1.0000 -0.0788574366
C   C93       1.0  0.88260  0.63150  0.70990  1.0000 -0.0788574366
C   C94       1.0  0.13150  0.38260  0.20990  1.0000 -0.0788574366
C   C95       1.0  0.20990  0.13150  0.38260  1.0000 -0.0788574366
C   C96       1.0  0.38260  0.20990  0.13150  1.0000 -0.0788574366
C   C97       1.0  0.64060  0.77350  0.90440  1.0000 -0.0906471866
C   C98       1.0  0.77350  0.90440  0.64060  1.0000 -0.0906471866
C   C99       1.0  0.90440  0.64060  0.77350  1.0000 -0.0906471866
C   C100      1.0  0.14060  0.40440  0.27350  1.0000 -0.0906471866
C   C101      1.0  0.27350  0.14060  0.40440  1.0000 -0.0906471866
C   C102      1.0  0.40440  0.27350  0.14060  1.0000 -0.0906471866
C   C103      1.0  0.64160  0.80610  0.96290  1.0000 -0.0788574366
C   C104      1.0  0.80610  0.96290  0.64160  1.0000 -0.0788574366
C   C105      1.0  0.96290  0.64160  0.80610  1.0000 -0.0788574366
C   C106      1.0  0.14160  0.46290  0.30610  1.0000 -0.0788574366
C   C107      1.0  0.30610  0.14160  0.46290  1.0000 -0.0788574366
C   C108      1.0  0.46290  0.30610  0.14160  1.0000 -0.0788574366
C   C109      1.0  0.62680  0.77170  0.99500  1.0000 -0.1585861137
C   C110      1.0  0.77170  0.99500  0.62680  1.0000 -0.1585861137
C   C111      1.0  0.99500  0.62680  0.77170  1.0000 -0.1585861137
C   C112      1.0  0.12680  0.49500  0.27170  1.0000 -0.1585861137
C   C113      1.0  0.27170  0.12680  0.49500  1.0000 -0.1585861137
C   C114      1.0  0.49500  0.27170  0.12680  1.0000 -0.1585861137
C   C115      1.0  0.26720  0.64320  0.72200  1.0000 0.5043004895
C   C116      1.0  0.64320  0.72200  0.26720  1.0000 0.5043004895
C   C117      1.0  0.72200  0.26720  0.64320  1.0000 0.5043004895
C   C118      1.0  0.76720  0.22200  0.14320  1.0000 0.5043004895
C   C119      1.0  0.14320  0.76720  0.22200  1.0000 0.5043004895
C   C120      1.0  0.22200  0.14320  0.76720  1.0000 0.5050230766
C   C121      1.0  0.34930  0.69130  0.75260  1.0000 -0.0995572996
C   C122      1.0  0.69130  0.75260  0.34930  1.0000 -0.0995572996
C   C123      1.0  0.75260  0.34930  0.69130  1.0000 -0.0995572996
C   C124      1.0  0.84930  0.25260  0.19130  1.0000 -0.0995572996
C   C125      1.0  0.19130  0.84930  0.25260  1.0000 -0.0995572996
C   C126      1.0  0.25260  0.19130  0.84930  1.0000 -0.0995572996
C   C127      1.0  0.40090  0.68070  0.77880  1.0000 0.1692227964
C   C128      1.0  0.68070  0.77880  0.40090  1.0000 0.1692227964
C   C129      1.0  0.77880  0.40090  0.68070  1.0000 0.1692227964
C   C130      1.0  0.90090  0.27880  0.18070  1.0000 0.1692227964
C   C131      1.0  0.18070  0.90090  0.27880  1.0000 0.1692227964
C   C132      1.0  0.27880  0.18070  0.90090  1.0000 0.1692227964
C   C133      1.0  0.46650  0.72660  0.80890  1.0000 -0.1989355838
C   C134      1.0  0.72660  0.80890  0.46650  1.0000 -0.1989355838
C   C135      1.0  0.80890  0.46650  0.72660  1.0000 -0.1989355838
C   C136      1.0  0.96650  0.30890  0.22660  1.0000 -0.1989355838
C   C137      1.0  0.22660  0.96650  0.30890  1.0000 -0.1989355838
C   C138      1.0  0.30890  0.22660  0.96650  1.0000 -0.1989355838
C   C139      1.0  0.48400  0.78720  0.81270  1.0000 -0.0715889131
C   C140      1.0  0.78720  0.81270  0.48400  1.0000 -0.0715889131
C   C141      1.0  0.81270  0.48400  0.78720  1.0000 -0.0715889131
C   C142      1.0  0.98400  0.31270  0.28720  1.0000 -0.0715889131
C   C143      1.0  0.28720  0.98400  0.31270  1.0000 -0.0715889131
C   C144      1.0  0.31270  0.28720  0.98400  1.0000 -0.0715889131
C   C145      1.0  0.43630  0.79990  0.78470  1.0000 -0.1080017289
C   C146      1.0  0.79990  0.78470  0.43630  1.0000 -0.1080017289
C   C147      1.0  0.78470  0.43630  0.79990  1.0000 -0.1080017289
C   C148      1.0  0.93630  0.28470  0.29990  1.0000 -0.1080017289
C   C149      1.0  0.29990  0.93630  0.28470  1.0000 -0.1080017289
C   C150      1.0  0.28470  0.29990  0.93630  1.0000 -0.1080017289
C   C151      1.0  0.37210  0.75350  0.76150  1.0000 -0.0995572996
C   C152      1.0  0.75350  0.76150  0.37210  1.0000 -0.0995572996
C   C153      1.0  0.76150  0.37210  0.75350  1.0000 -0.0995572996
C   C154      1.0  0.87210  0.26150  0.25350  1.0000 -0.0995572996
C   C155      1.0  0.25350  0.87210  0.26150  1.0000 -0.0995572996
C   C156      1.0  0.26150  0.25350  0.87210  1.0000 -0.0995572996
C   C157      1.0  0.18350  0.55230  0.70970  1.0000 -0.1201670193
C   C158      1.0  0.55230  0.70970  0.18350  1.0000 -0.1201670193
C   C159      1.0  0.70970  0.18350  0.55230  1.0000 -0.1201670193
C   C160      1.0  0.68350  0.20970  0.05230  1.0000 -0.1201670193
C   C161      1.0  0.05230  0.68350  0.20970  1.0000 -0.1201670193
C   C162      1.0  0.20970  0.05230  0.68350  1.0000 -0.1201670193
C   C163      1.0  0.17600  0.50470  0.73990  1.0000 0.08024737
C   C164      1.0  0.50470  0.73990  0.17600  1.0000 0.08024737
C   C165      1.0  0.73990  0.17600  0.50470  1.0000 0.08024737
C   C166      1.0  0.67600  0.23990  0.00470  1.0000 0.08024737
C   C167      1.0  0.00470  0.67600  0.23990  1.0000 0.08024737
C   C168      1.0  0.23990  0.00470  0.67600  1.0000 0.08024737
C   C169      1.0  0.16800  0.44240  0.70670  1.0000 -0.1585861137
C   C170      1.0  0.44240  0.70670  0.16800  1.0000 -0.1585861137
C   C171      1.0  0.70670  0.16800  0.44240  1.0000 -0.1585861137
C   C172      1.0  0.66800  0.20670  0.94240  1.0000 -0.1585861137
C   C173      1.0  0.94240  0.66800  0.20670  1.0000 -0.1585861137
C   C174      1.0  0.20670  0.94240  0.66800  1.0000 -0.1585861137
C   C175      1.0  0.16160  0.40080  0.73340  1.0000 -0.0788574366
C   C176      1.0  0.40080  0.73340  0.16160  1.0000 -0.0788574366
C   C177      1.0  0.73340  0.16160  0.40080  1.0000 -0.0788574366
C   C178      1.0  0.66160  0.23340  0.90080  1.0000 -0.0788574366
C   C179      1.0  0.90080  0.66160  0.23340  1.0000 -0.0788574366
C   C180      1.0  0.23340  0.90080  0.66160  1.0000 -0.0788574366
C   C181      1.0  0.15290  0.41620  0.78820  1.0000 -0.0906471866
C   C182      1.0  0.41620  0.78820  0.15290  1.0000 -0.0906471866
C   C183      1.0  0.78820  0.15290  0.41620  1.0000 -0.0906471866
C   C184      1.0  0.65290  0.28820  0.91620  1.0000 -0.0906471866
C   C185      1.0  0.91620  0.65290  0.28820  1.0000 -0.0906471866
C   C186      1.0  0.28820  0.91620  0.65290  1.0000 -0.0906471866
C   C187      1.0  0.15350  0.47570  0.81780  1.0000 -0.0788574366
C   C188      1.0  0.47570  0.81780  0.15350  1.0000 -0.0788574366
C   C189      1.0  0.81780  0.15350  0.47570  1.0000 -0.0788574366
C   C190      1.0  0.65350  0.31780  0.97570  1.0000 -0.0788574366
C   C191      1.0  0.97570  0.65350  0.31780  1.0000 -0.0788574366
C   C192      1.0  0.31780  0.97570  0.65350  1.0000 -0.0788574366
C   C193      1.0  0.16680  0.51970  0.79530  1.0000 -0.1516246751
C   C194      1.0  0.51970  0.79530  0.16680  1.0000 -0.1516246751
C   C195      1.0  0.79530  0.16680  0.51970  1.0000 -0.1516246751
C   C196      1.0  0.66680  0.29530  0.01970  1.0000 -0.1516246751
C   C197      1.0  0.01970  0.66680  0.29530  1.0000 -0.1516246751
C   C198      1.0  0.29530  0.01970  0.66680  1.0000 -0.1516246751
C   C199      1.0  0.22620  0.27130  0.64830  1.0000 0.5050230766
C   C200      1.0  0.27130  0.64830  0.22620  1.0000 0.5043004895
C   C201      1.0  0.64830  0.22620  0.27130  1.0000 0.5043004895
C   C202      1.0  0.72620  0.14830  0.77130  1.0000 0.5050230766
C   C203      1.0  0.77130  0.72620  0.14830  1.0000 0.5043004895
C   C204      1.0  0.14830  0.77130  0.72620  1.0000 0.5043004895
C   C205      1.0  0.21220  0.30610  0.60560  1.0000 -0.1201670193
C   C206      1.0  0.30610  0.60560  0.21220  1.0000 -0.1201670193
C   C207      1.0  0.60560  0.21220  0.30610  1.0000 -0.126174823
C   C208      1.0  0.71220  0.10560  0.80610  1.0000 -0.126174823
C   C209      1.0  0.80610  0.71220  0.10560  1.0000 -0.126174823
C   C210      1.0  0.10560  0.80610  0.71220  1.0000 -0.1201670193
C   C211      1.0  0.25040  0.36970  0.61690  1.0000 0.1954745049
C   C212      1.0  0.36970  0.61690  0.25040  1.0000 0.1954745049
C   C213      1.0  0.61690  0.25040  0.36970  1.0000 0.1954745049
C   C214      1.0  0.75040  0.11690  0.86970  1.0000 0.1954745049
C   C215      1.0  0.86970  0.75040  0.11690  1.0000 0.1954745049
C   C216      1.0  0.11690  0.86970  0.75040  1.0000 0.1954745049
C   C217      1.0  0.23350  0.38520  0.56730  1.0000 -0.2301909159
C   C218      1.0  0.38520  0.56730  0.23350  1.0000 -0.2301909159
C   C219      1.0  0.56730  0.23350  0.38520  1.0000 -0.2301909159
C   C220      1.0  0.73350  0.06730  0.88520  1.0000 -0.2301909159
C   C221      1.0  0.88520  0.73350  0.06730  1.0000 -0.2301909159
C   C222      1.0  0.06730  0.88520  0.73350  1.0000 -0.2301909159
C   C223      1.0  0.17310  0.34230  0.50770  1.0000 -0.0426348155
C   C224      1.0  0.34230  0.50770  0.17310  1.0000 -0.0426348155
C   C225      1.0  0.50770  0.17310  0.34230  1.0000 -0.0426348155
C   C226      1.0  0.67310  0.00770  0.84230  1.0000 -0.0426348155
C   C227      1.0  0.84230  0.67310  0.00770  1.0000 -0.0426348155
C   C228      1.0  0.00770  0.84230  0.67310  1.0000 -0.0426348155
C   C229      1.0  0.13230  0.28160  0.49850  1.0000 -0.1201670193
C   C230      1.0  0.28160  0.49850  0.13230  1.0000 -0.1201670193
C   C231      1.0  0.49850  0.13230  0.28160  1.0000 -0.1201670193
C   C232      1.0  0.63230  0.99850  0.78160  1.0000 -0.1201670193
C   C233      1.0  0.78160  0.63230  0.99850  1.0000 -0.1201670193
C   C234      1.0  0.99850  0.78160  0.63230  1.0000 -0.1201670193
C   C235      1.0  0.15440  0.26250  0.54410  1.0000 -0.1080017289
C   C236      1.0  0.26250  0.54410  0.15440  1.0000 -0.1080017289
C   C237      1.0  0.54410  0.15440  0.26250  1.0000 -0.1080017289
C   C238      1.0  0.65440  0.04410  0.76250  1.0000 -0.1080017289
C   C239      1.0  0.76250  0.65440  0.04410  1.0000 -0.1080017289
C   C240      1.0  0.04410  0.76250  0.65440  1.0000 -0.1080017289
C   C241      1.0  0.30610  0.27570  0.74010  1.0000 -0.1201670193
C   C242      1.0  0.27570  0.74010  0.30610  1.0000 -0.1201670193
C   C243      1.0  0.74010  0.30610  0.27570  1.0000 -0.1201670193
C   C244      1.0  0.80610  0.24010  0.77570  1.0000 -0.1201670193
C   C245      1.0  0.77570  0.80610  0.24010  1.0000 -0.1201670193
C   C246      1.0  0.24010  0.77570  0.80610  1.0000 -0.1201670193
C   C247      1.0  0.38130  0.31630  0.78750  1.0000 0.08024737
C   C248      1.0  0.31630  0.78750  0.38130  1.0000 0.08024737
C   C249      1.0  0.78750  0.38130  0.31630  1.0000 0.08024737
C   C250      1.0  0.88130  0.28750  0.81630  1.0000 0.08024737
C   C251      1.0  0.81630  0.88130  0.28750  1.0000 0.08024737
C   C252      1.0  0.28750  0.81630  0.88130  1.0000 0.08024737
C   C253      1.0  0.40360  0.36760  0.84920  1.0000 -0.1516246751
C   C254      1.0  0.36760  0.84920  0.40360  1.0000 -0.1516246751
C   C255      1.0  0.84920  0.40360  0.36760  1.0000 -0.1516246751
C   C256      1.0  0.90360  0.34920  0.86760  1.0000 -0.1516246751
C   C257      1.0  0.86760  0.90360  0.34920  1.0000 -0.1516246751
C   C258      1.0  0.34920  0.86760  0.90360  1.0000 -0.1516246751
C   C259      1.0  0.47030  0.40420  0.89560  1.0000 -0.0788574366
C   C260      1.0  0.40420  0.89560  0.47030  1.0000 -0.0788574366
C   C261      1.0  0.89560  0.47030  0.40420  1.0000 -0.0788574366
C   C262      1.0  0.97030  0.39560  0.90420  1.0000 -0.0788574366
C   C263      1.0  0.90420  0.97030  0.39560  1.0000 -0.0788574366
C   C264      1.0  0.39560  0.90420  0.97030  1.0000 -0.0788574366
C   C265      1.0  0.51650  0.39210  0.88160  1.0000 -0.0995572996
C   C266      1.0  0.39210  0.88160  0.51650  1.0000 -0.0995572996
C   C267      1.0  0.88160  0.51650  0.39210  1.0000 -0.0906471866
C   C268      1.0  0.01650  0.38160  0.89210  1.0000 -0.0995572996
C   C269      1.0  0.89210  0.01650  0.38160  1.0000 -0.0906471866
C   C270      1.0  0.38160  0.89210  0.01650  1.0000 -0.0995572996
C   C271      1.0  0.49300  0.33200  0.82600  1.0000 -0.0788574366
C   C272      1.0  0.33200  0.82600  0.49300  1.0000 -0.0788574366
C   C273      1.0  0.82600  0.49300  0.33200  1.0000 -0.0788574366
C   C274      1.0  0.99300  0.32600  0.83200  1.0000 -0.0788574366
C   C275      1.0  0.83200  0.99300  0.32600  1.0000 -0.0788574366
C   C276      1.0  0.32600  0.83200  0.99300  1.0000 -0.0788574366
C   C277      1.0  0.42680  0.29740  0.77800  1.0000 -0.1516246751
C   C278      1.0  0.29740  0.77800  0.42680  1.0000 -0.1516246751
C   C279      1.0  0.77800  0.42680  0.29740  1.0000 -0.1516246751
C   C280      1.0  0.92680  0.27800  0.79740  1.0000 -0.1516246751
C   C281      1.0  0.79740  0.92680  0.27800  1.0000 -0.1516246751
C   C282      1.0  0.27800  0.79740  0.92680  1.0000 -0.1516246751
C   C283      1.0  0.56350  0.56550  0.68880  1.0000 0.429221108
C   C284      1.0  0.56550  0.68880  0.56350  1.0000 0.429221108
C   C285      1.0  0.68880  0.56350  0.56550  1.0000 0.429221108
C   C286      1.0  0.06350  0.18880  0.06550  1.0000 0.429221108
C   C287      1.0  0.06550  0.06350  0.18880  1.0000 0.429221108
C   C288      1.0  0.18880  0.06550  0.06350  1.0000 0.429221108
C   C289      1.0  0.58480  0.54160  0.74150  1.0000 -0.0906471866
C   C290      1.0  0.54160  0.74150  0.58480  1.0000 -0.0906471866
C   C291      1.0  0.74150  0.58480  0.54160  1.0000 -0.0906471866
C   C292      1.0  0.08480  0.24150  0.04160  1.0000 -0.0995572996
C   C293      1.0  0.04160  0.08480  0.24150  1.0000 -0.0906471866
C   C294      1.0  0.24150  0.04160  0.08480  1.0000 -0.0906471866
C   C295      1.0  0.55120  0.51720  0.77070  1.0000 0.1510706688
C   C296      1.0  0.51720  0.77070  0.55120  1.0000 0.1510706688
C   C297      1.0  0.77070  0.55120  0.51720  1.0000 0.1510706688
C   C298      1.0  0.05120  0.27070  0.01720  1.0000 0.1510706688
C   C299      1.0  0.01720  0.05120  0.27070  1.0000 0.1510706688
C   C300      1.0  0.27070  0.01720  0.05120  1.0000 0.1510706688
C   C301      1.0  0.56400  0.48400  0.80370  1.0000 -0.2109313091
C   C302      1.0  0.48400  0.80370  0.56400  1.0000 -0.2109313091
C   C303      1.0  0.80370  0.56400  0.48400  1.0000 -0.2109313091
C   C304      1.0  0.06400  0.30370  0.98400  1.0000 -0.2109313091
C   C305      1.0  0.98400  0.06400  0.30370  1.0000 -0.2109313091
C   C306      1.0  0.30370  0.98400  0.06400  1.0000 -0.2109313091
C   C307      1.0  0.62160  0.48210  0.81940  1.0000 -0.0537817297
C   C308      1.0  0.48210  0.81940  0.62160  1.0000 -0.0537817297
C   C309      1.0  0.81940  0.62160  0.48210  1.0000 -0.0537817297
C   C310      1.0  0.12160  0.31940  0.98210  1.0000 -0.0537817297
C   C311      1.0  0.98210  0.12160  0.31940  1.0000 -0.0537817297
C   C312      1.0  0.31940  0.98210  0.12160  1.0000 -0.0537817297
C   C313      1.0  0.65540  0.50730  0.79370  1.0000 -0.126174823
C   C314      1.0  0.50730  0.79370  0.65540  1.0000 -0.126174823
C   C315      1.0  0.79370  0.65540  0.50730  1.0000 -0.126174823
C   C316      1.0  0.15540  0.29370  0.00730  1.0000 -0.126174823
C   C317      1.0  0.00730  0.15540  0.29370  1.0000 -0.126174823
C   C318      1.0  0.29370  0.00730  0.15540  1.0000 -0.126174823
C   C319      1.0  0.64020  0.53520  0.75700  1.0000 -0.0995572996
C   C320      1.0  0.53520  0.75700  0.64020  1.0000 -0.0995572996
C   C321      1.0  0.75700  0.64020  0.53520  1.0000 -0.0995572996
C   C322      1.0  0.14020  0.25700  0.03520  1.0000 -0.0995572996
C   C323      1.0  0.03520  0.14020  0.25700  1.0000 -0.0995572996
C   C324      1.0  0.25700  0.03520  0.14020  1.0000 -0.0995572996
C   C325      1.0  0.49240  0.58330  0.61970  1.0000 -0.0995572996
C   C326      1.0  0.58330  0.61970  0.49240  1.0000 -0.0995572996
C   C327      1.0  0.61970  0.49240  0.58330  1.0000 -0.0995572996
C   C328      1.0  0.99240  0.11970  0.08330  1.0000 -0.0995572996
C   C329      1.0  0.08330  0.99240  0.11970  1.0000 -0.0995572996
C   C330      1.0  0.11970  0.08330  0.99240  1.0000 -0.0995572996
C   C331      1.0  0.41190  0.55520  0.58400  1.0000 0.0551822739
C   C332      1.0  0.55520  0.58400  0.41190  1.0000 0.0551822739
C   C333      1.0  0.58400  0.41190  0.55520  1.0000 0.0551822739
C   C334      1.0  0.91190  0.08400  0.05520  1.0000 0.0546713019
C   C335      1.0  0.05520  0.91190  0.08400  1.0000 0.0551822739
C   C336      1.0  0.08400  0.05520  0.91190  1.0000 0.0546713019
C   C337      1.0  0.39050  0.59580  0.61400  1.0000 -0.1585861137
C   C338      1.0  0.59580  0.61400  0.39050  1.0000 -0.1585861137
C   C339      1.0  0.61400  0.39050  0.59580  1.0000 -0.1585861137
C   C340      1.0  0.89050  0.11400  0.09580  1.0000 -0.1585861137
C   C341      1.0  0.09580  0.89050  0.11400  1.0000 -0.1585861137
C   C342      1.0  0.11400  0.09580  0.89050  1.0000 -0.1585861137
C   C343      1.0  0.32360  0.57360  0.58730  1.0000 -0.0788574366
C   C344      1.0  0.57360  0.58730  0.32360  1.0000 -0.0788574366
C   C345      1.0  0.58730  0.32360  0.57360  1.0000 -0.0788574366
C   C346      1.0  0.82360  0.08730  0.07360  1.0000 -0.0788574366
C   C347      1.0  0.07360  0.82360  0.08730  1.0000 -0.0788574366
C   C348      1.0  0.08730  0.07360  0.82360  1.0000 -0.0788574366
C   C349      1.0  0.27920  0.51840  0.52550  1.0000 -0.0906471866
C   C350      1.0  0.51840  0.52550  0.27920  1.0000 -0.0906471866
C   C351      1.0  0.52550  0.27920  0.51840  1.0000 -0.0906471866
C   C352      1.0  0.77920  0.02550  0.01840  1.0000 -0.0906471866
C   C353      1.0  0.01840  0.77920  0.02550  1.0000 -0.0906471866
C   C354      1.0  0.02550  0.01840  0.77920  1.0000 -0.0906471866
C   C355      1.0  0.30180  0.48640  0.48780  1.0000 -0.0788574366
C   C356      1.0  0.48640  0.48780  0.30180  1.0000 -0.0788574366
C   C357      1.0  0.48780  0.30180  0.48640  1.0000 -0.0788574366
C   C358      1.0  0.80180  0.98780  0.98640  1.0000 -0.0788574366
C   C359      1.0  0.98640  0.80180  0.98780  1.0000 -0.0788574366
C   C360      1.0  0.98780  0.98640  0.80180  1.0000 -0.0788574366
C   C361      1.0  0.36760  0.50200  0.51890  1.0000 -0.1585861137
C   C362      1.0  0.50200  0.51890  0.36760  1.0000 -0.1585861137
C   C363      1.0  0.51890  0.36760  0.50200  1.0000 -0.1585861137
C   C364      1.0  0.86760  0.01890  0.00200  1.0000 -0.1585861137
C   C365      1.0  0.00200  0.86760  0.01890  1.0000 -0.1585861137
C   C366      1.0  0.01890  0.00200  0.86760  1.0000 -0.1585861137
N   N1        1.0  0.55020  0.64500  0.00090  1.0000 -0.2247086372
N   N2        1.0  0.64500  0.00090  0.55020  1.0000 -0.2247086372
N   N3        1.0  0.00090  0.55020  0.64500  1.0000 -0.2247086372
N   N4        1.0  0.05020  0.50090  0.14500  1.0000 -0.2247086372
N   N5        1.0  0.14500  0.05020  0.50090  1.0000 -0.2247086372
N   N6        1.0  0.50090  0.14500  0.05020  1.0000 -0.2247086372
N   N7        1.0  0.25540  0.60460  0.75140  1.0000 -0.3230987445
N   N8        1.0  0.60460  0.75140  0.25540  1.0000 -0.3230987445
N   N9        1.0  0.75140  0.25540  0.60460  1.0000 -0.3230987445
N   N10       1.0  0.75540  0.25140  0.10460  1.0000 -0.3230987445
N   N11       1.0  0.10460  0.75540  0.25140  1.0000 -0.3230987445
N   N12       1.0  0.25140  0.10460  0.75540  1.0000 -0.3230987445
N   N13       1.0  0.29260  0.30100  0.69200  1.0000 -0.3076184894
N   N14       1.0  0.30100  0.69200  0.29260  1.0000 -0.3076184894
N   N15       1.0  0.69200  0.29260  0.30100  1.0000 -0.3076184894
N   N16       1.0  0.79260  0.19200  0.80100  1.0000 -0.3076184894
N   N17       1.0  0.80100  0.79260  0.19200  1.0000 -0.3076184894
N   N18       1.0  0.19200  0.80100  0.79260  1.0000 -0.3076184894
N   N19       1.0  0.50700  0.55090  0.65250  1.0000 -0.2109313091
N   N20       1.0  0.55090  0.65250  0.50700  1.0000 -0.2109313091
N   N21       1.0  0.65250  0.50700  0.55090  1.0000 -0.2109313091
N   N22       1.0  0.00700  0.15250  0.05090  1.0000 -0.2109313091
N   N23       1.0  0.05090  0.00700  0.15250  1.0000 -0.2109313091
N   N24       1.0  0.15250  0.05090  0.00700  1.0000 -0.2109313091
N   N25       1.0  0.53370  0.49140  0.12690  1.0000 0.7127883279
N   N26       1.0  0.49140  0.12690  0.53370  1.0000 0.7127883279
N   N27       1.0  0.12690  0.53370  0.49140  1.0000 0.7127883279
N   N28       1.0  0.03370  0.62690  0.99140  1.0000 0.7127883279
N   N29       1.0  0.99140  0.03370  0.62690  1.0000 0.7127883279
N   N30       1.0  0.62690  0.99140  0.03370  1.0000 0.7127883279
N   N31       1.0  0.73760  0.60730  0.26370  1.0000 0.7173309039
N   N32       1.0  0.60730  0.26370  0.73760  1.0000 0.7173309039
N   N33       1.0  0.26370  0.73760  0.60730  1.0000 0.7173309039
N   N34       1.0  0.23760  0.76370  0.10730  1.0000 0.7173309039
N   N35       1.0  0.10730  0.23760  0.76370  1.0000 0.7173309039
N   N36       1.0  0.76370  0.10730  0.23760  1.0000 0.7173309039
N   N37       1.0  0.67220  0.51730  0.05610  1.0000 0.7173309039
N   N38       1.0  0.51730  0.05610  0.67220  1.0000 0.7173309039
N   N39       1.0  0.05610  0.67220  0.51730  1.0000 0.7173309039
N   N40       1.0  0.17220  0.55610  0.01730  1.0000 0.7173309039
N   N41       1.0  0.01730  0.17220  0.55610  1.0000 0.7173309039
N   N42       1.0  0.55610  0.01730  0.17220  1.0000 0.7173309039
N   N43       1.0  0.68950  0.80510  0.77860  1.0000 0.7173309039
N   N44       1.0  0.80510  0.77860  0.68950  1.0000 0.7173309039
N   N45       1.0  0.77860  0.68950  0.80510  1.0000 0.7173309039
N   N46       1.0  0.18950  0.27860  0.30510  1.0000 0.7173309039
N   N47       1.0  0.30510  0.18950  0.27860  1.0000 0.7173309039
N   N48       1.0  0.27860  0.30510  0.18950  1.0000 0.7173309039
O   O1        1.0  0.41640  0.54470  0.88610  1.0000 -0.2661101973
O   O2        1.0  0.54470  0.88610  0.41640  1.0000 -0.2661101973
O   O3        1.0  0.88610  0.41640  0.54470  1.0000 -0.2661101973
O   O4        1.0  0.91640  0.38610  0.04470  1.0000 -0.2661101973
O   O5        1.0  0.04470  0.91640  0.38610  1.0000 -0.2661101973
O   O6        1.0  0.38610  0.04470  0.91640  1.0000 -0.2661101973
O   O7        1.0  0.38010  0.61640  0.77420  1.0000 -0.2582906316
O   O8        1.0  0.61640  0.77420  0.38010  1.0000 -0.2582906316
O   O9        1.0  0.77420  0.38010  0.61640  1.0000 -0.2582906316
O   O10       1.0  0.88010  0.27420  0.11640  1.0000 -0.2582906316
O   O11       1.0  0.11640  0.88010  0.27420  1.0000 -0.2582906316
O   O12       1.0  0.27420  0.11640  0.88010  1.0000 -0.2582906316
O   O13       1.0  0.30920  0.41080  0.67720  1.0000 -0.1913744291
O   O14       1.0  0.41080  0.67720  0.30920  1.0000 -0.1913744291
O   O15       1.0  0.67720  0.30920  0.41080  1.0000 -0.1913744291
O   O16       1.0  0.80920  0.17720  0.91080  1.0000 -0.1913744291
O   O17       1.0  0.91080  0.80920  0.17720  1.0000 -0.1913744291
O   O18       1.0  0.17720  0.91080  0.80920  1.0000 -0.1913744291
O   O19       1.0  0.48830  0.51960  0.75320  1.0000 -0.2582906316
O   O20       1.0  0.51960  0.75320  0.48830  1.0000 -0.2582906316
O   O21       1.0  0.75320  0.48830  0.51960  1.0000 -0.2582906316
O   O22       1.0  0.98830  0.25320  0.01960  1.0000 -0.2582906316
O   O23       1.0  0.01960  0.98830  0.25320  1.0000 -0.2582906316
O   O24       1.0  0.25320  0.01960  0.98830  1.0000 -0.2582906316
O   O25       1.0  0.56750  0.60480  0.07000  1.0000 -0.6139214491
O   O26       1.0  0.60480  0.07000  0.56750  1.0000 -0.6139214491
O   O27       1.0  0.07000  0.56750  0.60480  1.0000 -0.6139214491
O   O28       1.0  0.06750  0.57000  0.10480  1.0000 -0.6139214491
O   O29       1.0  0.10480  0.06750  0.57000  1.0000 -0.6139214491
O   O30       1.0  0.57000  0.10480  0.06750  1.0000 -0.6139214491
O   O31       1.0  0.22730  0.65180  0.68580  1.0000 -0.5617019987
O   O32       1.0  0.65180  0.68580  0.22730  1.0000 -0.5617019987
O   O33       1.0  0.68580  0.22730  0.65180  1.0000 -0.5617019987
O   O34       1.0  0.72730  0.18580  0.15180  1.0000 -0.5617019987
O   O35       1.0  0.15180  0.72730  0.18580  1.0000 -0.5617019987
O   O36       1.0  0.18580  0.15180  0.72730  1.0000 -0.5617019987
O   O37       1.0  0.18120  0.22220  0.64370  1.0000 -0.6445469713
O   O38       1.0  0.22220  0.64370  0.18120  1.0000 -0.6445469713
O   O39       1.0  0.64370  0.18120  0.22220  1.0000 -0.6445469713
O   O40       1.0  0.68120  0.14370  0.72220  1.0000 -0.6445469713
O   O41       1.0  0.72220  0.68120  0.14370  1.0000 -0.6445469713
O   O42       1.0  0.14370  0.72220  0.68120  1.0000 -0.6445469713
O   O43       1.0  0.61490  0.60970  0.69280  1.0000 -0.6297095274
O   O44       1.0  0.60970  0.69280  0.61490  1.0000 -0.6297095274
O   O45       1.0  0.69280  0.61490  0.60970  1.0000 -0.6297095274
O   O46       1.0  0.11490  0.19280  0.10970  1.0000 -0.6297095274
O   O47       1.0  0.10970  0.11490  0.19280  1.0000 -0.6297095274
O   O48       1.0  0.19280  0.10970  0.11490  1.0000 -0.6297095274
O   O49       1.0  0.56040  0.48030  0.09060  1.0000 -0.5092715651
O   O50       1.0  0.48030  0.09060  0.56040  1.0000 -0.5092715651
O   O51       1.0  0.09060  0.56040  0.48030  1.0000 -0.5092715651
O   O52       1.0  0.06040  0.59060  0.98030  1.0000 -0.5092715651
O   O53       1.0  0.98030  0.06040  0.59060  1.0000 -0.5092715651
O   O54       1.0  0.59060  0.98030  0.06040  1.0000 -0.5092715651
O   O55       1.0  0.54980  0.55260  0.16270  1.0000 -0.5195942477
O   O56       1.0  0.55260  0.16270  0.54980  1.0000 -0.5195942477
O   O57       1.0  0.16270  0.54980  0.55260  1.0000 -0.5195942477
O   O58       1.0  0.04980  0.66270  0.05260  1.0000 -0.5195942477
O   O59       1.0  0.05260  0.04980  0.66270  1.0000 -0.5195942477
O   O60       1.0  0.66270  0.05260  0.04980  1.0000 -0.5195942477
O   O61       1.0  0.48010  0.44560  0.11380  1.0000 -0.3928049106
O   O62       1.0  0.44560  0.11380  0.48010  1.0000 -0.3928049106
O   O63       1.0  0.11380  0.48010  0.44560  1.0000 -0.3928049106
O   O64       1.0  0.98010  0.61380  0.94560  1.0000 -0.3928049106
O   O65       1.0  0.94560  0.98010  0.61380  1.0000 -0.3928049106
O   O66       1.0  0.61380  0.94560  0.98010  1.0000 -0.3928049106
O   O67       1.0  0.75910  0.64750  0.24460  1.0000 -0.4860304004
O   O68       1.0  0.64750  0.24460  0.75910  1.0000 -0.4860304004
O   O69       1.0  0.24460  0.75910  0.64750  1.0000 -0.4860304004
O   O70       1.0  0.25910  0.74460  0.14750  1.0000 -0.4860304004
O   O71       1.0  0.14750  0.25910  0.74460  1.0000 -0.4860304004
O   O72       1.0  0.74460  0.14750  0.25910  1.0000 -0.4860304004
O   O73       1.0  0.67520  0.56230  0.22980  1.0000 -0.5275245761
O   O74       1.0  0.56230  0.22980  0.67520  1.0000 -0.5275245761
O   O75       1.0  0.22980  0.67520  0.56230  1.0000 -0.5275245761
O   O76       1.0  0.17520  0.72980  0.06230  1.0000 -0.5275245761
O   O77       1.0  0.06230  0.17520  0.72980  1.0000 -0.5275245761
O   O78       1.0  0.72980  0.06230  0.17520  1.0000 -0.5275245761
O   O79       1.0  0.77770  0.60680  0.31260  1.0000 -0.4005228111
O   O80       1.0  0.60680  0.31260  0.77770  1.0000 -0.4005228111
O   O81       1.0  0.31260  0.77770  0.60680  1.0000 -0.4005228111
O   O82       1.0  0.27770  0.81260  0.10680  1.0000 -0.4005228111
O   O83       1.0  0.10680  0.27770  0.81260  1.0000 -0.4005228111
O   O84       1.0  0.81260  0.10680  0.27770  1.0000 -0.4005228111
O   O85       1.0  0.70430  0.53810  0.11870  1.0000 -0.5092715651
O   O86       1.0  0.53810  0.11870  0.70430  1.0000 -0.5092715651
O   O87       1.0  0.11870  0.70430  0.53810  1.0000 -0.5092715651
O   O88       1.0  0.20430  0.61870  0.03810  1.0000 -0.5092715651
O   O89       1.0  0.03810  0.20430  0.61870  1.0000 -0.5092715651
O   O90       1.0  0.61870  0.03810  0.20430  1.0000 -0.5092715651
O   O91       1.0  0.63360  0.53940  0.03570  1.0000 -0.5092715651
O   O92       1.0  0.53940  0.03570  0.63360  1.0000 -0.5092715651
O   O93       1.0  0.03570  0.63360  0.53940  1.0000 -0.5092715651
O   O94       1.0  0.13360  0.53570  0.03940  1.0000 -0.5092715651
O   O95       1.0  0.03940  0.13360  0.53570  1.0000 -0.5092715651
O   O96       1.0  0.53570  0.03940  0.13360  1.0000 -0.5092715651
O   O97       1.0  0.68020  0.47750  0.01530  1.0000 -0.4005228111
O   O98       1.0  0.47750  0.01530  0.68020  1.0000 -0.4005228111
O   O99       1.0  0.01530  0.68020  0.47750  1.0000 -0.3928049106
O   O100      1.0  0.18020  0.51530  0.97750  1.0000 -0.4005228111
O   O101      1.0  0.97750  0.18020  0.51530  1.0000 -0.4005228111
O   O102      1.0  0.51530  0.97750  0.18020  1.0000 -0.4005228111
O   O103      1.0  0.64730  0.74480  0.75750  1.0000 -0.5044766819
O   O104      1.0  0.74480  0.75750  0.64730  1.0000 -0.5044766819
O   O105      1.0  0.75750  0.64730  0.74480  1.0000 -0.5044766819
O   O106      1.0  0.14730  0.25750  0.24480  1.0000 -0.5044766819
O   O107      1.0  0.24480  0.14730  0.25750  1.0000 -0.5044766819
O   O108      1.0  0.25750  0.24480  0.14730  1.0000 -0.5044766819
O   O109      1.0  0.73230  0.81500  0.75890  1.0000 -0.5092715651
O   O110      1.0  0.81500  0.75890  0.73230  1.0000 -0.5092715651
O   O111      1.0  0.75890  0.73230  0.81500  1.0000 -0.5092715651
O   O112      1.0  0.23230  0.25890  0.31500  1.0000 -0.5092715651
O   O113      1.0  0.31500  0.23230  0.25890  1.0000 -0.5092715651
O   O114      1.0  0.25890  0.31500  0.23230  1.0000 -0.5092715651
O   O115      1.0  0.67850  0.85150  0.80560  1.0000 -0.4055839335
O   O116      1.0  0.85150  0.80560  0.67850  1.0000 -0.4055839335
O   O117      1.0  0.80560  0.67850  0.85150  1.0000 -0.4055839335
O   O118      1.0  0.17850  0.30560  0.35150  1.0000 -0.4055839335
O   O119      1.0  0.35150  0.17850  0.30560  1.0000 -0.4055839335
O   O120      1.0  0.30560  0.35150  0.17850  1.0000 -0.4055839335
