# DDEC6 charges by PACMAN v1.1 (https://github.com/mtap-research/PACMAN-charge/)
data_2008[Dy][rtl]3[FSR]1
_chemical_formula_sum              "Dy4 H64 C48 N4 O32"
_cell_length_a       9.5983
_cell_length_b       13.8789
_cell_length_c       17.6024
_cell_angle_alpha    90
_cell_angle_beta     119.526
_cell_angle_gamma    90

_symmetry_space_group_name_H-M    "P 1"
_symmetry_Int_Tables_number       1

loop_
  _symmetry_equiv_pos_as_xyz
  'x, y, z'

loop_
  _atom_site_type_symbol
  _atom_site_label
  _atom_site_symmetry_multiplicity
  _atom_site_fract_x
  _atom_site_fract_y
  _atom_site_fract_z
  _atom_site_occupancy
  _atom_site_charge
Dy  Dy1       1.0  0.12826  0.11128  0.08579  1.0000 1.9526675575
Dy  Dy2       1.0  0.87174  0.61128  0.41421  1.0000 1.9526675575
Dy  Dy3       1.0  0.87174  0.88872  0.91421  1.0000 1.9526675575
Dy  Dy4       1.0  0.12826  0.38872  0.58579  1.0000 1.9526675575
H   H1        1.0  0.65240  0.90890  0.25690  1.0000 0.1021048938
H   H2        1.0  0.34760  0.40890  0.24310  1.0000 0.1021048938
H   H3        1.0  0.34760  0.09110  0.74310  1.0000 0.1021048938
H   H4        1.0  0.65240  0.59110  0.75690  1.0000 0.1021048938
H   H5        1.0  0.51130  0.83780  0.20100  1.0000 0.1218048193
H   H6        1.0  0.48870  0.33780  0.29900  1.0000 0.1218048193
H   H7        1.0  0.48870  0.16220  0.79900  1.0000 0.1218048193
H   H8        1.0  0.51130  0.66220  0.70100  1.0000 0.1218048193
H   H9        1.0  0.66010  0.76480  0.14470  1.0000 0.1021048938
H   H10       1.0  0.33990  0.26480  0.35530  1.0000 0.1021048938
H   H11       1.0  0.33990  0.23520  0.85530  1.0000 0.1021048938
H   H12       1.0  0.66010  0.73520  0.64470  1.0000 0.1021048938
H   H13       1.0  0.92360  0.81180  0.18780  1.0000 0.1114948599
H   H14       1.0  0.07640  0.31180  0.31220  1.0000 0.1114948599
H   H15       1.0  0.07640  0.18820  0.81220  1.0000 0.1114948599
H   H16       1.0  0.92360  0.68820  0.68780  1.0000 0.1114948599
H   H17       1.0  0.91630  0.89290  0.24800  1.0000 0.1114948599
H   H18       1.0  0.08370  0.39290  0.25200  1.0000 0.1114948599
H   H19       1.0  0.08370  0.10710  0.75200  1.0000 0.1114948599
H   H20       1.0  0.91630  0.60710  0.74800  1.0000 0.1114948599
H   H21       1.0  0.72640  0.88960  0.06370  1.0000 0.1114948599
H   H22       1.0  0.27360  0.38960  0.43630  1.0000 0.1114948599
H   H23       1.0  0.27360  0.11040  0.93630  1.0000 0.1114948599
H   H24       1.0  0.72640  0.61040  0.56370  1.0000 0.1114948599
H   H25       1.0  0.72630  0.03660  0.17420  1.0000 0.1114948599
H   H26       1.0  0.27370  0.53660  0.32580  1.0000 0.1114948599
H   H27       1.0  0.27370  0.96340  0.82580  1.0000 0.1114948599
H   H28       1.0  0.72630  0.46340  0.67420  1.0000 0.1114948599
H   H29       1.0  0.62410  0.03820  0.07190  1.0000 0.1114948599
H   H30       1.0  0.37590  0.53820  0.42810  1.0000 0.1114948599
H   H31       1.0  0.37590  0.96180  0.92810  1.0000 0.1114948599
H   H32       1.0  0.62410  0.46180  0.57190  1.0000 0.1114948599
H   H33       1.0  0.48390  0.90340  0.07450  1.0000 0.1114948599
H   H34       1.0  0.51610  0.40340  0.42550  1.0000 0.1114948599
H   H35       1.0  0.51610  0.09660  0.92550  1.0000 0.1114948599
H   H36       1.0  0.48390  0.59660  0.57450  1.0000 0.1114948599
H   H37       1.0  0.98490  0.31710  0.98180  1.0000 0.1218048193
H   H38       1.0  0.01510  0.81710  0.51820  1.0000 0.1218048193
H   H39       1.0  0.01510  0.68290  0.01820  1.0000 0.1218048193
H   H40       1.0  0.98490  0.18290  0.48180  1.0000 0.1218048193
H   H41       1.0  0.90070  0.45780  0.90470  1.0000 0.1299617634
H   H42       1.0  0.09930  0.95780  0.59530  1.0000 0.1299617634
H   H43       1.0  0.09930  0.54220  0.09530  1.0000 0.1299617634
H   H44       1.0  0.90070  0.04220  0.40470  1.0000 0.1299617634
H   H45       1.0  0.04310  0.52630  0.92180  1.0000 0.1299617634
H   H46       1.0  0.95690  0.02630  0.57820  1.0000 0.1299617634
H   H47       1.0  0.95690  0.47370  0.07820  1.0000 0.1299617634
H   H48       1.0  0.04310  0.97370  0.42180  1.0000 0.1299617634
H   H49       1.0  0.95880  0.46520  0.83580  1.0000 0.1458364677
H   H50       1.0  0.04120  0.96520  0.66420  1.0000 0.1458364677
H   H51       1.0  0.04120  0.53480  0.16420  1.0000 0.1458364677
H   H52       1.0  0.95880  0.03480  0.33580  1.0000 0.1458364677
H   H53       1.0  0.31370  0.33810  0.96350  1.0000 0.140234149
H   H54       1.0  0.68630  0.83810  0.53650  1.0000 0.140234149
H   H55       1.0  0.68630  0.66190  0.03650  1.0000 0.140234149
H   H56       1.0  0.31370  0.16190  0.46350  1.0000 0.140234149
H   H57       1.0  0.21850  0.39000  0.87300  1.0000 0.1458364677
H   H58       1.0  0.78150  0.89000  0.62700  1.0000 0.1458364677
H   H59       1.0  0.78150  0.61000  0.12700  1.0000 0.1458364677
H   H60       1.0  0.21850  0.11000  0.37300  1.0000 0.1458364677
H   H61       1.0  0.30310  0.45080  0.95920  1.0000 0.140234149
H   H62       1.0  0.69690  0.95080  0.54080  1.0000 0.140234149
H   H63       1.0  0.69690  0.54920  0.04080  1.0000 0.140234149
H   H64       1.0  0.30310  0.04920  0.45920  1.0000 0.140234149
C   C1        1.0  0.59940  0.87350  0.20240  1.0000 -0.1960473446
C   C2        1.0  0.40060  0.37350  0.29760  1.0000 -0.1960473446
C   C3        1.0  0.40060  0.12650  0.79760  1.0000 -0.1960473446
C   C4        1.0  0.59940  0.62650  0.70240  1.0000 -0.1960473446
C   C5        1.0  0.71780  0.80290  0.19820  1.0000 -0.1024290185
C   C6        1.0  0.28220  0.30290  0.30180  1.0000 -0.1024290185
C   C7        1.0  0.28220  0.19710  0.80180  1.0000 -0.1024290185
C   C8        1.0  0.71780  0.69710  0.69820  1.0000 -0.1024290185
C   C9        1.0  0.85340  0.85750  0.19400  1.0000 -0.1960473446
C   C10       1.0  0.14660  0.35750  0.30600  1.0000 -0.1960473446
C   C11       1.0  0.14660  0.14250  0.80600  1.0000 -0.1876547551
C   C12       1.0  0.85340  0.64250  0.69400  1.0000 -0.1960473446
C   C13       1.0  0.78550  0.92730  0.11740  1.0000 -0.1237648568
C   C14       1.0  0.21450  0.42730  0.38260  1.0000 -0.1237648568
C   C15       1.0  0.21450  0.07270  0.88260  1.0000 -0.1237648568
C   C16       1.0  0.78550  0.57270  0.61740  1.0000 -0.1237648568
C   C17       1.0  0.66950  0.99650  0.12280  1.0000 -0.1876547551
C   C18       1.0  0.33050  0.49650  0.37720  1.0000 -0.1876547551
C   C19       1.0  0.33050  0.00350  0.87720  1.0000 -0.1847351707
C   C20       1.0  0.66950  0.50350  0.62280  1.0000 -0.1876547551
C   C21       1.0  0.53520  0.94320  0.12730  1.0000 -0.1024290185
C   C22       1.0  0.46480  0.44320  0.37270  1.0000 -0.1024290185
C   C23       1.0  0.46480  0.05680  0.87270  1.0000 -0.1024290185
C   C24       1.0  0.53520  0.55680  0.62730  1.0000 -0.1024290185
C   C25       1.0  0.40320  0.00890  0.12230  1.0000 0.5536343389
C   C26       1.0  0.59680  0.50890  0.37770  1.0000 0.5536343389
C   C27       1.0  0.59680  0.99110  0.87770  1.0000 0.5536343389
C   C28       1.0  0.40320  0.49110  0.62230  1.0000 0.5536343389
C   C29       1.0  0.77930  0.73460  0.27560  1.0000 0.5601585143
C   C30       1.0  0.22070  0.23460  0.22440  1.0000 0.5601585143
C   C31       1.0  0.22070  0.26540  0.72440  1.0000 0.5601585143
C   C32       1.0  0.77930  0.76540  0.77560  1.0000 0.5601585143
C   C33       1.0  0.91770  0.98130  0.11180  1.0000 0.6094476515
C   C34       1.0  0.08230  0.48130  0.38820  1.0000 0.6094476515
C   C35       1.0  0.08230  0.01870  0.88820  1.0000 0.6094476515
C   C36       1.0  0.91770  0.51870  0.61180  1.0000 0.6094476515
C   C37       1.0  0.08050  0.31590  0.98040  1.0000 0.2936162584
C   C38       1.0  0.91950  0.81590  0.51960  1.0000 0.2960509443
C   C39       1.0  0.91950  0.68410  0.01960  1.0000 0.2936162584
C   C40       1.0  0.08050  0.18410  0.48040  1.0000 0.2960509443
C   C41       1.0  0.99200  0.46590  0.89700  1.0000 -0.3429281331
C   C42       1.0  0.00800  0.96590  0.60300  1.0000 -0.3429281331
C   C43       1.0  0.00800  0.53410  0.10300  1.0000 -0.3429281331
C   C44       1.0  0.99200  0.03410  0.39700  1.0000 -0.3429281331
C   C45       1.0  0.24640  0.39210  0.93340  1.0000 -0.303786791
C   C46       1.0  0.75360  0.89210  0.56660  1.0000 -0.303786791
C   C47       1.0  0.75360  0.60790  0.06660  1.0000 -0.303786791
C   C48       1.0  0.24640  0.10790  0.43340  1.0000 -0.303786791
N   N1        1.0  0.10420  0.38820  0.94020  1.0000 0.0197269687
N   N2        1.0  0.89580  0.88820  0.55980  1.0000 0.0197269687
N   N3        1.0  0.89580  0.61180  0.05980  1.0000 0.0197269687
N   N4        1.0  0.10420  0.11180  0.44020  1.0000 0.0197269687
O   O1        1.0  0.39750  0.09450  0.10250  1.0000 -0.5782553471
O   O2        1.0  0.60250  0.59450  0.39750  1.0000 -0.5782553471
O   O3        1.0  0.60250  0.90550  0.89750  1.0000 -0.5782553471
O   O4        1.0  0.39750  0.40550  0.60250  1.0000 -0.5782553471
O   O5        1.0  0.86040  0.16630  0.98920  1.0000 -0.4007384322
O   O6        1.0  0.13960  0.66630  0.51080  1.0000 -0.4007384322
O   O7        1.0  0.13960  0.83370  0.01080  1.0000 -0.4007384322
O   O8        1.0  0.86040  0.33370  0.48920  1.0000 -0.4007384322
O   O9        1.0  0.29620  0.97020  0.13530  1.0000 -0.5623576111
O   O10       1.0  0.70380  0.47020  0.36470  1.0000 -0.5623576111
O   O11       1.0  0.70380  0.02980  0.86470  1.0000 -0.5623576111
O   O12       1.0  0.29620  0.52980  0.63530  1.0000 -0.5623576111
O   O13       1.0  0.94310  0.96250  0.04930  1.0000 -0.6482436425
O   O14       1.0  0.05690  0.46250  0.45070  1.0000 -0.6482436425
O   O15       1.0  0.05690  0.03750  0.95070  1.0000 -0.6482436425
O   O16       1.0  0.94310  0.53750  0.54930  1.0000 -0.6482436425
O   O17       1.0  0.99780  0.04440  0.16520  1.0000 -0.5514372206
O   O18       1.0  0.00220  0.54440  0.33480  1.0000 -0.5514372206
O   O19       1.0  0.00220  0.95560  0.83480  1.0000 -0.5514372206
O   O20       1.0  0.99780  0.45560  0.66520  1.0000 -0.5514372206
O   O21       1.0  0.69050  0.66380  0.26760  1.0000 -0.6084532059
O   O22       1.0  0.30950  0.16380  0.23240  1.0000 -0.6084532059
O   O23       1.0  0.30950  0.33620  0.73240  1.0000 -0.6084532059
O   O24       1.0  0.69050  0.83620  0.76760  1.0000 -0.6084532059
O   O25       1.0  0.90830  0.74790  0.34220  1.0000 -0.5623576111
O   O26       1.0  0.09170  0.24790  0.15780  1.0000 -0.5623576111
O   O27       1.0  0.09170  0.25210  0.65780  1.0000 -0.5623576111
O   O28       1.0  0.90830  0.75210  0.84220  1.0000 -0.5623576111
O   O29       1.0  0.16590  0.24850  0.01550  1.0000 -0.4754364458
O   O30       1.0  0.83410  0.74850  0.48450  1.0000 -0.4754364458
O   O31       1.0  0.83410  0.75150  0.98450  1.0000 -0.4745694167
O   O32       1.0  0.16590  0.25150  0.51550  1.0000 -0.4754364458
