# DDEC6 charges by PACMAN v1.1 (https://github.com/mtap-research/PACMAN-charge/)
data_2008[In][dia]3[FSR]2
_chemical_formula_sum              "In4 H16 C48 S8 O32"
_cell_length_a       13.565
_cell_length_b       13.565
_cell_length_c       15.503
_cell_angle_alpha    90
_cell_angle_beta     90
_cell_angle_gamma    90

_symmetry_space_group_name_H-M    "P 1"
_symmetry_Int_Tables_number       1

loop_
  _symmetry_equiv_pos_as_xyz
  'x, y, z'

loop_
  _atom_site_type_symbol
  _atom_site_label
  _atom_site_symmetry_multiplicity
  _atom_site_fract_x
  _atom_site_fract_y
  _atom_site_fract_z
  _atom_site_occupancy
  _atom_site_charge
In  In1       1.0  0.42366  0.00000  0.25000  1.0000 1.329623102
In  In2       1.0  0.57634  0.00000  0.75000  1.0000 1.329623102
In  In3       1.0  0.00000  0.42366  0.50000  1.0000 1.329623102
In  In4       1.0  0.00000  0.57634  0.00000  1.0000 1.329623102
H   H1        1.0  0.15810  0.23840  0.31780  1.0000 0.1316616487
H   H2        1.0  0.84190  0.76160  0.81780  1.0000 0.1316616487
H   H3        1.0  0.76160  0.15810  0.56780  1.0000 0.1316616487
H   H4        1.0  0.23840  0.84190  0.06780  1.0000 0.1316616487
H   H5        1.0  0.84190  0.23840  0.68220  1.0000 0.1316616487
H   H6        1.0  0.15810  0.76160  0.18220  1.0000 0.1316616487
H   H7        1.0  0.23840  0.15810  0.43220  1.0000 0.1316616487
H   H8        1.0  0.76160  0.84190  0.93220  1.0000 0.1316616487
H   H9        1.0  0.07030  0.38340  0.26150  1.0000 0.1465031941
H   H10       1.0  0.92970  0.61660  0.76150  1.0000 0.1465031941
H   H11       1.0  0.61660  0.07030  0.51150  1.0000 0.1465031941
H   H12       1.0  0.38340  0.92970  0.01150  1.0000 0.1465031941
H   H13       1.0  0.92970  0.38340  0.73850  1.0000 0.1465031941
H   H14       1.0  0.07030  0.61660  0.23850  1.0000 0.1465031941
H   H15       1.0  0.38340  0.07030  0.48850  1.0000 0.1465031941
H   H16       1.0  0.61660  0.92970  0.98850  1.0000 0.1465031941
C   C1        1.0  0.23040  0.22550  0.20440  1.0000 -0.1268896882
C   C2        1.0  0.76960  0.77450  0.70440  1.0000 -0.1268896882
C   C3        1.0  0.77450  0.23040  0.45440  1.0000 -0.1268896882
C   C4        1.0  0.22550  0.76960  0.95440  1.0000 -0.1268896882
C   C5        1.0  0.76960  0.22550  0.79560  1.0000 -0.1268896882
C   C6        1.0  0.23040  0.77450  0.29560  1.0000 -0.1268896882
C   C7        1.0  0.22550  0.23040  0.54560  1.0000 -0.1268896882
C   C8        1.0  0.77450  0.76960  0.04560  1.0000 -0.1268896882
C   C9        1.0  0.16680  0.26350  0.26250  1.0000 -0.0818294521
C   C10       1.0  0.83320  0.73650  0.76250  1.0000 -0.0818294521
C   C11       1.0  0.73650  0.16680  0.51250  1.0000 -0.0818294521
C   C12       1.0  0.26350  0.83320  0.01250  1.0000 -0.0818294521
C   C13       1.0  0.83320  0.26350  0.73750  1.0000 -0.0818294521
C   C14       1.0  0.16680  0.73650  0.23750  1.0000 -0.0818294521
C   C15       1.0  0.26350  0.16680  0.48750  1.0000 -0.0818294521
C   C16       1.0  0.73650  0.83320  0.98750  1.0000 -0.0818294521
C   C17       1.0  0.11470  0.34620  0.22950  1.0000 -0.0921862565
C   C18       1.0  0.88530  0.65380  0.72950  1.0000 -0.0921862565
C   C19       1.0  0.65380  0.11470  0.47950  1.0000 -0.0921862565
C   C20       1.0  0.34620  0.88530  0.97950  1.0000 -0.0921862565
C   C21       1.0  0.88530  0.34620  0.77050  1.0000 -0.0921862565
C   C22       1.0  0.11470  0.65380  0.27050  1.0000 -0.0921862565
C   C23       1.0  0.34620  0.11470  0.52050  1.0000 -0.0921862565
C   C24       1.0  0.65380  0.88530  0.02050  1.0000 -0.0921862565
C   C25       1.0  0.13710  0.36450  0.14660  1.0000 -0.0921862565
C   C26       1.0  0.86290  0.63550  0.64660  1.0000 -0.0921862565
C   C27       1.0  0.63550  0.13710  0.39660  1.0000 -0.0921862565
C   C28       1.0  0.36450  0.86290  0.89660  1.0000 -0.0921862565
C   C29       1.0  0.86290  0.36450  0.85340  1.0000 -0.0921862565
C   C30       1.0  0.13710  0.63550  0.35340  1.0000 -0.0921862565
C   C31       1.0  0.36450  0.13710  0.60340  1.0000 -0.0921862565
C   C32       1.0  0.63550  0.86290  0.10340  1.0000 -0.0921862565
C   C33       1.0  0.29840  0.14390  0.21670  1.0000 0.5578812052
C   C34       1.0  0.70160  0.85610  0.71670  1.0000 0.5578812052
C   C35       1.0  0.85610  0.29840  0.46670  1.0000 0.5578812052
C   C36       1.0  0.14390  0.70160  0.96670  1.0000 0.5578812052
C   C37       1.0  0.70160  0.14390  0.78330  1.0000 0.5578812052
C   C38       1.0  0.29840  0.85610  0.28330  1.0000 0.5578812052
C   C39       1.0  0.14390  0.29840  0.53330  1.0000 0.5578812052
C   C40       1.0  0.85610  0.70160  0.03330  1.0000 0.5578812052
C   C41       1.0  0.09320  0.44300  0.09030  1.0000 0.5578812052
C   C42       1.0  0.90680  0.55700  0.59030  1.0000 0.5578812052
C   C43       1.0  0.55700  0.09320  0.34030  1.0000 0.5578812052
C   C44       1.0  0.44300  0.90680  0.84030  1.0000 0.5578812052
C   C45       1.0  0.90680  0.44300  0.90970  1.0000 0.5578812052
C   C46       1.0  0.09320  0.55700  0.40970  1.0000 0.5578812052
C   C47       1.0  0.44300  0.09320  0.65970  1.0000 0.5578812052
C   C48       1.0  0.55700  0.90680  0.15970  1.0000 0.5578812052
S   S1        1.0  0.22329  0.28493  0.10762  1.0000 0.3899330287
S   S2        1.0  0.77671  0.71507  0.60762  1.0000 0.3729881335
S   S3        1.0  0.71507  0.22329  0.35762  1.0000 0.3729881335
S   S4        1.0  0.28493  0.77671  0.85762  1.0000 0.3729881335
S   S5        1.0  0.77671  0.28493  0.89238  1.0000 0.3761782635
S   S6        1.0  0.22329  0.71507  0.39238  1.0000 0.3899330287
S   S7        1.0  0.28493  0.22329  0.64238  1.0000 0.3899330287
S   S8        1.0  0.71507  0.77671  0.14238  1.0000 0.3761782635
O   O1        1.0  0.30710  0.10630  0.29000  1.0000 -0.5171184551
O   O2        1.0  0.69290  0.89370  0.79000  1.0000 -0.5171184551
O   O3        1.0  0.89370  0.30710  0.54000  1.0000 -0.5171184551
O   O4        1.0  0.10630  0.69290  0.04000  1.0000 -0.5171184551
O   O5        1.0  0.69290  0.10630  0.71000  1.0000 -0.5171184551
O   O6        1.0  0.30710  0.89370  0.21000  1.0000 -0.5171184551
O   O7        1.0  0.10630  0.30710  0.46000  1.0000 -0.5171184551
O   O8        1.0  0.89370  0.69290  0.96000  1.0000 -0.5171184551
O   O9        1.0  0.35200  0.11390  0.15560  1.0000 -0.5095562325
O   O10       1.0  0.64800  0.88610  0.65560  1.0000 -0.5095562325
O   O11       1.0  0.88610  0.35200  0.40560  1.0000 -0.5095562325
O   O12       1.0  0.11390  0.64800  0.90560  1.0000 -0.5095562325
O   O13       1.0  0.64800  0.11390  0.84440  1.0000 -0.5095562325
O   O14       1.0  0.35200  0.88610  0.34440  1.0000 -0.5095562325
O   O15       1.0  0.11390  0.35200  0.59440  1.0000 -0.5095562325
O   O16       1.0  0.88610  0.64800  0.09440  1.0000 -0.5095562325
O   O17       1.0  0.02630  0.49780  0.12280  1.0000 -0.5095562325
O   O18       1.0  0.97370  0.50220  0.62280  1.0000 -0.5095562325
O   O19       1.0  0.50220  0.02630  0.37280  1.0000 -0.5095562325
O   O20       1.0  0.49780  0.97370  0.87280  1.0000 -0.5095562325
O   O21       1.0  0.97370  0.49780  0.87720  1.0000 -0.5095562325
O   O22       1.0  0.02630  0.50220  0.37720  1.0000 -0.5095562325
O   O23       1.0  0.49780  0.02630  0.62720  1.0000 -0.5095562325
O   O24       1.0  0.50220  0.97370  0.12720  1.0000 -0.5095562325
O   O25       1.0  0.12090  0.45260  0.01530  1.0000 -0.5095562325
O   O26       1.0  0.87910  0.54740  0.51530  1.0000 -0.5095562325
O   O27       1.0  0.54740  0.12090  0.26530  1.0000 -0.5095562325
O   O28       1.0  0.45260  0.87910  0.76530  1.0000 -0.5095562325
O   O29       1.0  0.87910  0.45260  0.98470  1.0000 -0.5095562325
O   O30       1.0  0.12090  0.54740  0.48470  1.0000 -0.5095562325
O   O31       1.0  0.45260  0.12090  0.73470  1.0000 -0.5095562325
O   O32       1.0  0.54740  0.87910  0.23470  1.0000 -0.5095562325
