# DDEC6 charges by PACMAN v1.1 (https://github.com/mtap-research/PACMAN-charge/)
data_2008[Zn][nan]3[FSR]4
_chemical_formula_sum              "Zn24 H144 C184 S8 N24 O88"
_cell_length_a       10.5482
_cell_length_b       23.1451
_cell_length_c       27.3976
_cell_angle_alpha    90
_cell_angle_beta     90
_cell_angle_gamma    90

_symmetry_space_group_name_H-M    "P 1"
_symmetry_Int_Tables_number       1

loop_
  _symmetry_equiv_pos_as_xyz
  'x, y, z'

loop_
  _atom_site_type_symbol
  _atom_site_label
  _atom_site_symmetry_multiplicity
  _atom_site_fract_x
  _atom_site_fract_y
  _atom_site_fract_z
  _atom_site_occupancy
  _atom_site_charge
Zn  Zn1       1.0  0.58679  0.80428  0.04145  1.0000 0.935473557
Zn  Zn2       1.0  0.08679  0.69572  0.95855  1.0000 0.935473557
Zn  Zn3       1.0  0.91321  0.30428  0.45855  1.0000 0.9347716527
Zn  Zn4       1.0  0.41321  0.19572  0.54145  1.0000 0.9347716527
Zn  Zn5       1.0  0.41321  0.19572  0.95855  1.0000 0.9347716527
Zn  Zn6       1.0  0.91321  0.30428  0.04145  1.0000 0.9347716527
Zn  Zn7       1.0  0.08679  0.69572  0.54145  1.0000 0.935473557
Zn  Zn8       1.0  0.58679  0.80428  0.45855  1.0000 0.935473557
Zn  Zn9       1.0  0.43758  0.73062  0.95848  1.0000 0.9157023287
Zn  Zn10      1.0  0.93758  0.76938  0.04152  1.0000 0.9157023287
Zn  Zn11      1.0  0.06242  0.23062  0.54152  1.0000 0.9157023287
Zn  Zn12      1.0  0.56242  0.26938  0.45848  1.0000 0.9117065744
Zn  Zn13      1.0  0.56242  0.26938  0.04152  1.0000 0.9117065744
Zn  Zn14      1.0  0.06242  0.23062  0.95848  1.0000 0.9157023287
Zn  Zn15      1.0  0.93758  0.76938  0.45848  1.0000 0.9157023287
Zn  Zn16      1.0  0.43758  0.73062  0.54152  1.0000 0.9157023287
Zn  Zn17      1.0  0.75709  0.77087  0.95589  1.0000 0.9117065744
Zn  Zn18      1.0  0.25709  0.72913  0.04411  1.0000 0.9117065744
Zn  Zn19      1.0  0.74291  0.27087  0.54411  1.0000 0.9117065744
Zn  Zn20      1.0  0.24291  0.22913  0.45589  1.0000 0.9117065744
Zn  Zn21      1.0  0.24291  0.22913  0.04411  1.0000 0.9117065744
Zn  Zn22      1.0  0.74291  0.27087  0.95589  1.0000 0.9117065744
Zn  Zn23      1.0  0.25709  0.72913  0.45589  1.0000 0.9117065744
Zn  Zn24      1.0  0.75709  0.77087  0.54411  1.0000 0.9117065744
H   H1        1.0  0.49500  0.70400  0.04900  1.0000 0.3905915575
H   H2        1.0  0.99500  0.79600  0.95100  1.0000 0.3905915575
H   H3        1.0  0.00500  0.20400  0.45100  1.0000 0.3905915575
H   H4        1.0  0.50500  0.29600  0.54900  1.0000 0.3905915575
H   H5        1.0  0.50500  0.29600  0.95100  1.0000 0.3905915575
H   H6        1.0  0.00500  0.20400  0.04900  1.0000 0.3905915575
H   H7        1.0  0.99500  0.79600  0.54900  1.0000 0.3905915575
H   H8        1.0  0.49500  0.70400  0.45100  1.0000 0.3905915575
H   H9        1.0  0.36200  0.86100  0.04400  1.0000 0.375250365
H   H10       1.0  0.86200  0.63900  0.95600  1.0000 0.3749547558
H   H11       1.0  0.13800  0.36100  0.45600  1.0000 0.3749547558
H   H12       1.0  0.63800  0.13900  0.54400  1.0000 0.3749547558
H   H13       1.0  0.63800  0.13900  0.95600  1.0000 0.3749547558
H   H14       1.0  0.13800  0.36100  0.04400  1.0000 0.3749547558
H   H15       1.0  0.86200  0.63900  0.54400  1.0000 0.375250365
H   H16       1.0  0.36200  0.86100  0.45600  1.0000 0.375250365
H   H17       1.0  0.46100  0.88300  0.01400  1.0000 0.3964098351
H   H18       1.0  0.96100  0.61700  0.98600  1.0000 0.3964098351
H   H19       1.0  0.03900  0.38300  0.48600  1.0000 0.3964098351
H   H20       1.0  0.53900  0.11700  0.51400  1.0000 0.3964098351
H   H21       1.0  0.53900  0.11700  0.98600  1.0000 0.3964098351
H   H22       1.0  0.03900  0.38300  0.01400  1.0000 0.3964098351
H   H23       1.0  0.96100  0.61700  0.51400  1.0000 0.3964098351
H   H24       1.0  0.46100  0.88300  0.48600  1.0000 0.3964098351
H   H25       1.0  0.95070  0.04380  0.91690  1.0000 0.128368847
H   H26       1.0  0.45070  0.45620  0.08310  1.0000 0.128368847
H   H27       1.0  0.54930  0.54380  0.58310  1.0000 0.128368847
H   H28       1.0  0.04930  0.95620  0.41690  1.0000 0.128368847
H   H29       1.0  0.04930  0.95620  0.08310  1.0000 0.128368847
H   H30       1.0  0.54930  0.54380  0.91690  1.0000 0.128368847
H   H31       1.0  0.45070  0.45620  0.41690  1.0000 0.128368847
H   H32       1.0  0.95070  0.04380  0.58310  1.0000 0.128368847
H   H33       1.0  0.72070  0.98200  0.05100  1.0000 0.1377364354
H   H34       1.0  0.22070  0.51800  0.94900  1.0000 0.1377364354
H   H35       1.0  0.77930  0.48200  0.44900  1.0000 0.1377364354
H   H36       1.0  0.27930  0.01800  0.55100  1.0000 0.1377364354
H   H37       1.0  0.27930  0.01800  0.94900  1.0000 0.1377364354
H   H38       1.0  0.77930  0.48200  0.05100  1.0000 0.1377364354
H   H39       1.0  0.22070  0.51800  0.55100  1.0000 0.1377364354
H   H40       1.0  0.72070  0.98200  0.44900  1.0000 0.1377364354
H   H41       1.0  0.43920  0.81240  0.87010  1.0000 0.128368847
H   H42       1.0  0.93920  0.68760  0.12990  1.0000 0.128368847
H   H43       1.0  0.06080  0.31240  0.62990  1.0000 0.128368847
H   H44       1.0  0.56080  0.18760  0.37010  1.0000 0.128368847
H   H45       1.0  0.56080  0.18760  0.12990  1.0000 0.128368847
H   H46       1.0  0.06080  0.31240  0.87010  1.0000 0.128368847
H   H47       1.0  0.93920  0.68760  0.37010  1.0000 0.128368847
H   H48       1.0  0.43920  0.81240  0.62990  1.0000 0.128368847
H   H49       1.0  0.79170  0.84710  0.87100  1.0000 0.128368847
H   H50       1.0  0.29170  0.65290  0.12900  1.0000 0.128368847
H   H51       1.0  0.70830  0.34710  0.62900  1.0000 0.128368847
H   H52       1.0  0.20830  0.15290  0.37100  1.0000 0.128368847
H   H53       1.0  0.20830  0.15290  0.12900  1.0000 0.128368847
H   H54       1.0  0.70830  0.34710  0.87100  1.0000 0.128368847
H   H55       1.0  0.29170  0.65290  0.37100  1.0000 0.128368847
H   H56       1.0  0.79170  0.84710  0.62900  1.0000 0.128368847
H   H57       1.0  0.90050  0.94730  0.92570  1.0000 0.128368847
H   H58       1.0  0.40050  0.55270  0.07430  1.0000 0.128368847
H   H59       1.0  0.59950  0.44730  0.57430  1.0000 0.128368847
H   H60       1.0  0.09950  0.05270  0.42570  1.0000 0.128368847
H   H61       1.0  0.09950  0.05270  0.07430  1.0000 0.128368847
H   H62       1.0  0.59950  0.44730  0.92570  1.0000 0.128368847
H   H63       1.0  0.40050  0.55270  0.42570  1.0000 0.128368847
H   H64       1.0  0.90050  0.94730  0.57430  1.0000 0.128368847
H   H65       1.0  0.58420  0.89130  0.12790  1.0000 0.128368847
H   H66       1.0  0.08420  0.60870  0.87210  1.0000 0.128368847
H   H67       1.0  0.91580  0.39130  0.37210  1.0000 0.128368847
H   H68       1.0  0.41580  0.10870  0.62790  1.0000 0.128368847
H   H69       1.0  0.41580  0.10870  0.87210  1.0000 0.128368847
H   H70       1.0  0.91580  0.39130  0.12790  1.0000 0.128368847
H   H71       1.0  0.08420  0.60870  0.62790  1.0000 0.128368847
H   H72       1.0  0.58420  0.89130  0.37210  1.0000 0.128368847
H   H73       1.0  0.41200  0.64460  0.87220  1.0000 0.1140376007
H   H74       1.0  0.91200  0.85540  0.12780  1.0000 0.1140376007
H   H75       1.0  0.08800  0.14460  0.62780  1.0000 0.1140376007
H   H76       1.0  0.58800  0.35540  0.37220  1.0000 0.1140376007
H   H77       1.0  0.58800  0.35540  0.12780  1.0000 0.1140376007
H   H78       1.0  0.08800  0.14460  0.87220  1.0000 0.1140376007
H   H79       1.0  0.91200  0.85540  0.37220  1.0000 0.1140376007
H   H80       1.0  0.41200  0.64460  0.62780  1.0000 0.1140376007
H   H81       1.0  0.40820  0.64130  0.78780  1.0000 0.128368847
H   H82       1.0  0.90820  0.85870  0.21220  1.0000 0.128368847
H   H83       1.0  0.09180  0.14130  0.71220  1.0000 0.128368847
H   H84       1.0  0.59180  0.35870  0.28780  1.0000 0.128368847
H   H85       1.0  0.59180  0.35870  0.21220  1.0000 0.128368847
H   H86       1.0  0.09180  0.14130  0.78780  1.0000 0.128368847
H   H87       1.0  0.90820  0.85870  0.28780  1.0000 0.128368847
H   H88       1.0  0.40820  0.64130  0.71220  1.0000 0.128368847
H   H89       1.0  0.60560  0.72080  0.21270  1.0000 0.128368847
H   H90       1.0  0.10560  0.77920  0.78730  1.0000 0.128368847
H   H91       1.0  0.89440  0.22080  0.28730  1.0000 0.128368847
H   H92       1.0  0.39440  0.27920  0.71270  1.0000 0.128368847
H   H93       1.0  0.39440  0.27920  0.78730  1.0000 0.128368847
H   H94       1.0  0.89440  0.22080  0.21270  1.0000 0.128368847
H   H95       1.0  0.10560  0.77920  0.71270  1.0000 0.128368847
H   H96       1.0  0.60560  0.72080  0.28730  1.0000 0.128368847
H   H97       1.0  0.44250  0.81400  0.78670  1.0000 0.128368847
H   H98       1.0  0.94250  0.68600  0.21330  1.0000 0.128368847
H   H99       1.0  0.05750  0.31400  0.71330  1.0000 0.128368847
H   H100      1.0  0.55750  0.18600  0.28670  1.0000 0.128368847
H   H101      1.0  0.55750  0.18600  0.21330  1.0000 0.128368847
H   H102      1.0  0.05750  0.31400  0.78670  1.0000 0.128368847
H   H103      1.0  0.94250  0.68600  0.28670  1.0000 0.128368847
H   H104      1.0  0.44250  0.81400  0.71330  1.0000 0.128368847
H   H105      1.0  0.74590  0.68030  0.87100  1.0000 0.1140376007
H   H106      1.0  0.24590  0.81970  0.12900  1.0000 0.1140376007
H   H107      1.0  0.75410  0.18030  0.62900  1.0000 0.1140376007
H   H108      1.0  0.25410  0.31970  0.37100  1.0000 0.1140376007
H   H109      1.0  0.25410  0.31970  0.12900  1.0000 0.1140376007
H   H110      1.0  0.75410  0.18030  0.87100  1.0000 0.1140376007
H   H111      1.0  0.24590  0.81970  0.37100  1.0000 0.1140376007
H   H112      1.0  0.74590  0.68030  0.62900  1.0000 0.1140376007
H   H113      1.0  0.57910  0.89490  0.21150  1.0000 0.128368847
H   H114      1.0  0.07910  0.60510  0.78850  1.0000 0.128368847
H   H115      1.0  0.92090  0.39490  0.28850  1.0000 0.128368847
H   H116      1.0  0.42090  0.10510  0.71150  1.0000 0.128368847
H   H117      1.0  0.42090  0.10510  0.78850  1.0000 0.128368847
H   H118      1.0  0.92090  0.39490  0.21150  1.0000 0.128368847
H   H119      1.0  0.07910  0.60510  0.71150  1.0000 0.128368847
H   H120      1.0  0.57910  0.89490  0.28850  1.0000 0.128368847
H   H121      1.0  0.60710  0.72280  0.12960  1.0000 0.1247177081
H   H122      1.0  0.10710  0.77720  0.87040  1.0000 0.1247177081
H   H123      1.0  0.89290  0.22280  0.37040  1.0000 0.1247177081
H   H124      1.0  0.39290  0.27720  0.62960  1.0000 0.1247177081
H   H125      1.0  0.39290  0.27720  0.87040  1.0000 0.1247177081
H   H126      1.0  0.89290  0.22280  0.12960  1.0000 0.1247177081
H   H127      1.0  0.10710  0.77720  0.62960  1.0000 0.1247177081
H   H128      1.0  0.60710  0.72280  0.37040  1.0000 0.1247177081
H   H129      1.0  0.79980  0.84870  0.78770  1.0000 0.128368847
H   H130      1.0  0.29980  0.65130  0.21230  1.0000 0.128368847
H   H131      1.0  0.70020  0.34870  0.71230  1.0000 0.128368847
H   H132      1.0  0.20020  0.15130  0.28770  1.0000 0.128368847
H   H133      1.0  0.20020  0.15130  0.21230  1.0000 0.128368847
H   H134      1.0  0.70020  0.34870  0.78770  1.0000 0.128368847
H   H135      1.0  0.29980  0.65130  0.28770  1.0000 0.128368847
H   H136      1.0  0.79980  0.84870  0.71230  1.0000 0.128368847
H   H137      1.0  0.74730  0.67790  0.78740  1.0000 0.128368847
H   H138      1.0  0.24730  0.82210  0.21260  1.0000 0.128368847
H   H139      1.0  0.75270  0.17790  0.71260  1.0000 0.128368847
H   H140      1.0  0.25270  0.32210  0.28740  1.0000 0.128368847
H   H141      1.0  0.25270  0.32210  0.21260  1.0000 0.128368847
H   H142      1.0  0.75270  0.17790  0.78740  1.0000 0.128368847
H   H143      1.0  0.24730  0.82210  0.28740  1.0000 0.128368847
H   H144      1.0  0.74730  0.67790  0.71260  1.0000 0.128368847
C   C1        1.0  0.88810  0.13530  0.96660  1.0000 0.5856792288
C   C2        1.0  0.38810  0.36470  0.03340  1.0000 0.5856792288
C   C3        1.0  0.61190  0.63530  0.53340  1.0000 0.5856792288
C   C4        1.0  0.11190  0.86470  0.46660  1.0000 0.5856792288
C   C5        1.0  0.11190  0.86470  0.03340  1.0000 0.5856792288
C   C6        1.0  0.61190  0.63530  0.96660  1.0000 0.5856792288
C   C7        1.0  0.38810  0.36470  0.46660  1.0000 0.5856792288
C   C8        1.0  0.88810  0.13530  0.53340  1.0000 0.5856792288
C   C9        1.0  0.80100  0.95540  0.98840  1.0000 -0.0113586873
C   C10       1.0  0.30100  0.54460  0.01160  1.0000 -0.0113586873
C   C11       1.0  0.69900  0.45540  0.51160  1.0000 -0.0113586873
C   C12       1.0  0.19900  0.04460  0.48840  1.0000 -0.0113586873
C   C13       1.0  0.19900  0.04460  0.01160  1.0000 -0.0113586873
C   C14       1.0  0.69900  0.45540  0.98840  1.0000 -0.0113586873
C   C15       1.0  0.30100  0.54460  0.48840  1.0000 -0.0113586873
C   C16       1.0  0.80100  0.95540  0.51160  1.0000 -0.0113586873
C   C17       1.0  0.79620  0.05290  0.01930  1.0000 -0.0983556575
C   C18       1.0  0.29620  0.44710  0.98070  1.0000 -0.0983556575
C   C19       1.0  0.70380  0.55290  0.48070  1.0000 -0.0983556575
C   C20       1.0  0.20380  0.94710  0.51930  1.0000 -0.0983556575
C   C21       1.0  0.20380  0.94710  0.98070  1.0000 -0.0983556575
C   C22       1.0  0.70380  0.55290  0.01930  1.0000 -0.0983556575
C   C23       1.0  0.29620  0.44710  0.51930  1.0000 -0.0983556575
C   C24       1.0  0.79620  0.05290  0.48070  1.0000 -0.0983556575
C   C25       1.0  0.59170  0.80790  0.22370  1.0000 0.0906583281
C   C26       1.0  0.09170  0.69210  0.77630  1.0000 0.0906583281
C   C27       1.0  0.90830  0.30790  0.27630  1.0000 0.0906583281
C   C28       1.0  0.40830  0.19210  0.72370  1.0000 0.0906583281
C   C29       1.0  0.40830  0.19210  0.77630  1.0000 0.0906583281
C   C30       1.0  0.90830  0.30790  0.22370  1.0000 0.0906583281
C   C31       1.0  0.09170  0.69210  0.72370  1.0000 0.0906583281
C   C32       1.0  0.59170  0.80790  0.27630  1.0000 0.0906583281
C   C33       1.0  0.86060  0.07270  0.97730  1.0000 -0.0197035464
C   C34       1.0  0.36060  0.42730  0.02270  1.0000 -0.0197035464
C   C35       1.0  0.63940  0.57270  0.52270  1.0000 -0.0197035464
C   C36       1.0  0.13940  0.92730  0.47730  1.0000 -0.0197035464
C   C37       1.0  0.13940  0.92730  0.02270  1.0000 -0.0197035464
C   C38       1.0  0.63940  0.57270  0.97730  1.0000 -0.0197035464
C   C39       1.0  0.36060  0.42730  0.47730  1.0000 -0.0197035464
C   C40       1.0  0.86060  0.07270  0.52270  1.0000 -0.0197035464
C   C41       1.0  0.77050  0.76340  0.77680  1.0000 0.1005235383
C   C42       1.0  0.27050  0.73660  0.22320  1.0000 0.1005235383
C   C43       1.0  0.72950  0.26340  0.72320  1.0000 0.1005235383
C   C44       1.0  0.22950  0.23660  0.27680  1.0000 0.1005235383
C   C45       1.0  0.22950  0.23660  0.22320  1.0000 0.1005235383
C   C46       1.0  0.72950  0.26340  0.77680  1.0000 0.1005235383
C   C47       1.0  0.27050  0.73660  0.27680  1.0000 0.1005235383
C   C48       1.0  0.77050  0.76340  0.72320  1.0000 0.1005235383
C   C49       1.0  0.42460  0.72730  0.77660  1.0000 0.0906583281
C   C50       1.0  0.92460  0.77270  0.22340  1.0000 0.0906583281
C   C51       1.0  0.07540  0.22730  0.72340  1.0000 0.0906583281
C   C52       1.0  0.57540  0.27270  0.27660  1.0000 0.0906583281
C   C53       1.0  0.57540  0.27270  0.22340  1.0000 0.0906583281
C   C54       1.0  0.07540  0.22730  0.77660  1.0000 0.0906583281
C   C55       1.0  0.92460  0.77270  0.27660  1.0000 0.0906583281
C   C56       1.0  0.42460  0.72730  0.72340  1.0000 0.0906583281
C   C57       1.0  0.75900  0.89270  0.99250  1.0000 0.5962087469
C   C58       1.0  0.25900  0.60730  0.00750  1.0000 0.5962087469
C   C59       1.0  0.74100  0.39270  0.50750  1.0000 0.5962087469
C   C60       1.0  0.24100  0.10730  0.49250  1.0000 0.5962087469
C   C61       1.0  0.24100  0.10730  0.00750  1.0000 0.5962087469
C   C62       1.0  0.74100  0.39270  0.99250  1.0000 0.5962087469
C   C63       1.0  0.25900  0.60730  0.49250  1.0000 0.5962087469
C   C64       1.0  0.75900  0.89270  0.50750  1.0000 0.5962087469
C   C65       1.0  0.90180  0.03190  0.94370  1.0000 -0.1099503531
C   C66       1.0  0.40180  0.46810  0.05630  1.0000 -0.1099503531
C   C67       1.0  0.59820  0.53190  0.55630  1.0000 -0.1099503531
C   C68       1.0  0.09820  0.96810  0.44370  1.0000 -0.1099503531
C   C69       1.0  0.09820  0.96810  0.05630  1.0000 -0.1099503531
C   C70       1.0  0.59820  0.53190  0.94370  1.0000 -0.1099503531
C   C71       1.0  0.40180  0.46810  0.44370  1.0000 -0.1099503531
C   C72       1.0  0.90180  0.03190  0.55630  1.0000 -0.1099503531
C   C73       1.0  0.76600  0.99480  0.02350  1.0000 -0.0983556575
C   C74       1.0  0.26600  0.50520  0.97650  1.0000 -0.0983556575
C   C75       1.0  0.73400  0.49480  0.47650  1.0000 -0.0983556575
C   C76       1.0  0.23400  0.00520  0.52350  1.0000 -0.0983556575
C   C77       1.0  0.23400  0.00520  0.97650  1.0000 -0.0983556575
C   C78       1.0  0.73400  0.49480  0.02350  1.0000 -0.0983556575
C   C79       1.0  0.26600  0.50520  0.52350  1.0000 -0.0983556575
C   C80       1.0  0.76600  0.99480  0.47650  1.0000 -0.0983556575
C   C81       1.0  0.43480  0.77710  0.85330  1.0000 0.1005235383
C   C82       1.0  0.93480  0.72290  0.14670  1.0000 0.1005235383
C   C83       1.0  0.06520  0.27710  0.64670  1.0000 0.1005235383
C   C84       1.0  0.56520  0.22290  0.35330  1.0000 0.1005235383
C   C85       1.0  0.56520  0.22290  0.14670  1.0000 0.1005235383
C   C86       1.0  0.06520  0.27710  0.85330  1.0000 0.1005235383
C   C87       1.0  0.93480  0.72290  0.35330  1.0000 0.1005235383
C   C88       1.0  0.43480  0.77710  0.64670  1.0000 0.1005235383
C   C89       1.0  0.78110  0.81220  0.85400  1.0000 0.1005235383
C   C90       1.0  0.28110  0.68780  0.14600  1.0000 0.1005235383
C   C91       1.0  0.71890  0.31220  0.64600  1.0000 0.1005235383
C   C92       1.0  0.21890  0.18780  0.35400  1.0000 0.1005235383
C   C93       1.0  0.21890  0.18780  0.14600  1.0000 0.1005235383
C   C94       1.0  0.71890  0.31220  0.85400  1.0000 0.1005235383
C   C95       1.0  0.28110  0.68780  0.35400  1.0000 0.1005235383
C   C96       1.0  0.78110  0.81220  0.64600  1.0000 0.1005235383
C   C97       1.0  0.87210  0.97410  0.94900  1.0000 -0.0792563824
C   C98       1.0  0.37210  0.52590  0.05100  1.0000 -0.0792563824
C   C99       1.0  0.62790  0.47410  0.55100  1.0000 -0.0792563824
C   C100      1.0  0.12790  0.02590  0.44900  1.0000 -0.0792563824
C   C101      1.0  0.12790  0.02590  0.05100  1.0000 -0.0792563824
C   C102      1.0  0.62790  0.47410  0.94900  1.0000 -0.0792563824
C   C103      1.0  0.37210  0.52590  0.44900  1.0000 -0.0792563824
C   C104      1.0  0.87210  0.97410  0.55100  1.0000 -0.0792563824
C   C105      1.0  0.58800  0.85640  0.14530  1.0000 0.0906583281
C   C106      1.0  0.08800  0.64360  0.85470  1.0000 0.0906583281
C   C107      1.0  0.91200  0.35640  0.35470  1.0000 0.0906583281
C   C108      1.0  0.41200  0.14360  0.64530  1.0000 0.0906583281
C   C109      1.0  0.41200  0.14360  0.85470  1.0000 0.0906583281
C   C110      1.0  0.91200  0.35640  0.14530  1.0000 0.0906583281
C   C111      1.0  0.08800  0.64360  0.64530  1.0000 0.0906583281
C   C112      1.0  0.58800  0.85640  0.35470  1.0000 0.0906583281
C   C113      1.0  0.41820  0.67950  0.85480  1.0000 0.1005235383
C   C114      1.0  0.91820  0.82050  0.14520  1.0000 0.1005235383
C   C115      1.0  0.08180  0.17950  0.64520  1.0000 0.1005235383
C   C116      1.0  0.58180  0.32050  0.35480  1.0000 0.1005235383
C   C117      1.0  0.58180  0.32050  0.14520  1.0000 0.1005235383
C   C118      1.0  0.08180  0.17950  0.85480  1.0000 0.1005235383
C   C119      1.0  0.91820  0.82050  0.35480  1.0000 0.1005235383
C   C120      1.0  0.41820  0.67950  0.64520  1.0000 0.1005235383
C   C121      1.0  0.41580  0.67710  0.80370  1.0000 -0.2210885441
C   C122      1.0  0.91580  0.82290  0.19630  1.0000 -0.2210885441
C   C123      1.0  0.08420  0.17710  0.69630  1.0000 -0.2210885441
C   C124      1.0  0.58420  0.32290  0.30370  1.0000 -0.2210885441
C   C125      1.0  0.58420  0.32290  0.19630  1.0000 -0.2210885441
C   C126      1.0  0.08420  0.17710  0.80370  1.0000 -0.2210885441
C   C127      1.0  0.91580  0.82290  0.30370  1.0000 -0.2210885441
C   C128      1.0  0.41580  0.67710  0.69630  1.0000 -0.2210885441
C   C129      1.0  0.60050  0.75650  0.19650  1.0000 -0.2009716543
C   C130      1.0  0.10050  0.74350  0.80350  1.0000 -0.2009716543
C   C131      1.0  0.89950  0.25650  0.30350  1.0000 -0.2009716543
C   C132      1.0  0.39950  0.24350  0.69650  1.0000 -0.2009716543
C   C133      1.0  0.39950  0.24350  0.80350  1.0000 -0.2009716543
C   C134      1.0  0.89950  0.25650  0.19650  1.0000 -0.2009716543
C   C135      1.0  0.10050  0.74350  0.69650  1.0000 -0.2009716543
C   C136      1.0  0.60050  0.75650  0.30350  1.0000 -0.2009716543
C   C137      1.0  0.43510  0.77850  0.80310  1.0000 -0.2009716543
C   C138      1.0  0.93510  0.72150  0.19690  1.0000 -0.2009716543
C   C139      1.0  0.06490  0.27850  0.69690  1.0000 -0.2009716543
C   C140      1.0  0.56490  0.22150  0.30310  1.0000 -0.2009716543
C   C141      1.0  0.56490  0.22150  0.19690  1.0000 -0.2009716543
C   C142      1.0  0.06490  0.27850  0.80310  1.0000 -0.2009716543
C   C143      1.0  0.93510  0.72150  0.30310  1.0000 -0.2009716543
C   C144      1.0  0.43510  0.77850  0.69690  1.0000 -0.2009716543
C   C145      1.0  0.75380  0.71530  0.85380  1.0000 0.0906583281
C   C146      1.0  0.25380  0.78470  0.14620  1.0000 0.0906583281
C   C147      1.0  0.74620  0.21530  0.64620  1.0000 0.0906583281
C   C148      1.0  0.24620  0.28470  0.35380  1.0000 0.0906583281
C   C149      1.0  0.24620  0.28470  0.14620  1.0000 0.0906583281
C   C150      1.0  0.74620  0.21530  0.85380  1.0000 0.0906583281
C   C151      1.0  0.25380  0.78470  0.35380  1.0000 0.0906583281
C   C152      1.0  0.75380  0.71530  0.64620  1.0000 0.0906583281
C   C153      1.0  0.58530  0.85890  0.19570  1.0000 -0.2080079733
C   C154      1.0  0.08530  0.64110  0.80430  1.0000 -0.2080079733
C   C155      1.0  0.91470  0.35890  0.30430  1.0000 -0.2080079733
C   C156      1.0  0.41470  0.14110  0.69570  1.0000 -0.2080079733
C   C157      1.0  0.41470  0.14110  0.80430  1.0000 -0.2080079733
C   C158      1.0  0.91470  0.35890  0.19570  1.0000 -0.2080079733
C   C159      1.0  0.08530  0.64110  0.69570  1.0000 -0.2080079733
C   C160      1.0  0.58530  0.85890  0.30430  1.0000 -0.2080079733
C   C161      1.0  0.60170  0.75810  0.14640  1.0000 0.1005235383
C   C162      1.0  0.10170  0.74190  0.85360  1.0000 0.1005235383
C   C163      1.0  0.89830  0.25810  0.35360  1.0000 0.1005235383
C   C164      1.0  0.39830  0.24190  0.64640  1.0000 0.1005235383
C   C165      1.0  0.39830  0.24190  0.85360  1.0000 0.1005235383
C   C166      1.0  0.89830  0.25810  0.14640  1.0000 0.1005235383
C   C167      1.0  0.10170  0.74190  0.64640  1.0000 0.1005235383
C   C168      1.0  0.60170  0.75810  0.35360  1.0000 0.1005235383
C   C169      1.0  0.78590  0.81350  0.80380  1.0000 -0.2009716543
C   C170      1.0  0.28590  0.68650  0.19620  1.0000 -0.2009716543
C   C171      1.0  0.71410  0.31350  0.69620  1.0000 -0.2009716543
C   C172      1.0  0.21410  0.18650  0.30380  1.0000 -0.2009716543
C   C173      1.0  0.21410  0.18650  0.19620  1.0000 -0.2009716543
C   C174      1.0  0.71410  0.31350  0.80380  1.0000 -0.2009716543
C   C175      1.0  0.28590  0.68650  0.30380  1.0000 -0.2009716543
C   C176      1.0  0.78590  0.81350  0.69620  1.0000 -0.2009716543
C   C177      1.0  0.75590  0.71350  0.80360  1.0000 -0.2009716543
C   C178      1.0  0.25590  0.78650  0.19640  1.0000 -0.2009716543
C   C179      1.0  0.74410  0.21350  0.69640  1.0000 -0.2009716543
C   C180      1.0  0.24410  0.28650  0.30360  1.0000 -0.2009716543
C   C181      1.0  0.24410  0.28650  0.19640  1.0000 -0.2009716543
C   C182      1.0  0.74410  0.21350  0.80360  1.0000 -0.2009716543
C   C183      1.0  0.25590  0.78650  0.30360  1.0000 -0.2009716543
C   C184      1.0  0.75590  0.71350  0.69640  1.0000 -0.2009716543
S   S1        1.0  0.75280  0.09990  0.06768  1.0000 1.1545658664
S   S2        1.0  0.25280  0.40010  0.93232  1.0000 1.1556917982
S   S3        1.0  0.74720  0.59990  0.43232  1.0000 1.1556917982
S   S4        1.0  0.24720  0.90010  0.56768  1.0000 1.1556917982
S   S5        1.0  0.24720  0.90010  0.93232  1.0000 1.1556917982
S   S6        1.0  0.74720  0.59990  0.06768  1.0000 1.1556917982
S   S7        1.0  0.25280  0.40010  0.56768  1.0000 1.1556917982
S   S8        1.0  0.75280  0.09990  0.43232  1.0000 1.1545658664
N   N1        1.0  0.76250  0.76460  0.87940  1.0000 -0.2009716543
N   N2        1.0  0.26250  0.73540  0.12060  1.0000 -0.2009716543
N   N3        1.0  0.73750  0.26460  0.62060  1.0000 -0.2009716543
N   N4        1.0  0.23750  0.23540  0.37940  1.0000 -0.2009716543
N   N5        1.0  0.23750  0.23540  0.12060  1.0000 -0.2009716543
N   N6        1.0  0.73750  0.26460  0.87940  1.0000 -0.2009716543
N   N7        1.0  0.26250  0.73540  0.37940  1.0000 -0.2009716543
N   N8        1.0  0.76250  0.76460  0.62060  1.0000 -0.2009716543
N   N9        1.0  0.59570  0.80680  0.11960  1.0000 -0.2210885441
N   N10       1.0  0.09570  0.69320  0.88040  1.0000 -0.2210885441
N   N11       1.0  0.90430  0.30680  0.38040  1.0000 -0.2210885441
N   N12       1.0  0.40430  0.19320  0.61960  1.0000 -0.2210885441
N   N13       1.0  0.40430  0.19320  0.88040  1.0000 -0.2210885441
N   N14       1.0  0.90430  0.30680  0.11960  1.0000 -0.2210885441
N   N15       1.0  0.09570  0.69320  0.61960  1.0000 -0.2210885441
N   N16       1.0  0.59570  0.80680  0.38040  1.0000 -0.2210885441
N   N17       1.0  0.42850  0.72810  0.87990  1.0000 -0.2080079733
N   N18       1.0  0.92850  0.77190  0.12010  1.0000 -0.2080079733
N   N19       1.0  0.07150  0.22810  0.62010  1.0000 -0.2080079733
N   N20       1.0  0.57150  0.27190  0.37990  1.0000 -0.2080079733
N   N21       1.0  0.57150  0.27190  0.12010  1.0000 -0.2080079733
N   N22       1.0  0.07150  0.22810  0.87990  1.0000 -0.2080079733
N   N23       1.0  0.92850  0.77190  0.37990  1.0000 -0.2080079733
N   N24       1.0  0.42850  0.72810  0.62010  1.0000 -0.2080079733
O   O1        1.0  0.56800  0.79180  0.96207  1.0000 -0.7230945198
O   O2        1.0  0.06800  0.70820  0.03793  1.0000 -0.7230945198
O   O3        1.0  0.93200  0.29180  0.53793  1.0000 -0.7230945198
O   O4        1.0  0.43200  0.20820  0.46207  1.0000 -0.7230945198
O   O5        1.0  0.43200  0.20820  0.03793  1.0000 -0.7230945198
O   O6        1.0  0.93200  0.29180  0.96207  1.0000 -0.7230945198
O   O7        1.0  0.06800  0.70820  0.46207  1.0000 -0.7230945198
O   O8        1.0  0.56800  0.79180  0.53793  1.0000 -0.7230945198
O   O9        1.0  0.75370  0.75670  0.03091  1.0000 -0.7381328984
O   O10       1.0  0.25370  0.74330  0.96909  1.0000 -0.7381328984
O   O11       1.0  0.74630  0.25670  0.46909  1.0000 -0.7381328984
O   O12       1.0  0.24630  0.24330  0.53091  1.0000 -0.7381328984
O   O13       1.0  0.24630  0.24330  0.96909  1.0000 -0.7381328984
O   O14       1.0  0.74630  0.25670  0.03091  1.0000 -0.7381328984
O   O15       1.0  0.25370  0.74330  0.53091  1.0000 -0.7381328984
O   O16       1.0  0.75370  0.75670  0.46909  1.0000 -0.7381328984
O   O17       1.0  0.79030  0.86020  0.95747  1.0000 -0.5244493528
O   O18       1.0  0.29030  0.63980  0.04253  1.0000 -0.5244493528
O   O19       1.0  0.70970  0.36020  0.54253  1.0000 -0.5244493528
O   O20       1.0  0.20970  0.13980  0.45747  1.0000 -0.5244493528
O   O21       1.0  0.20970  0.13980  0.04253  1.0000 -0.5244493528
O   O22       1.0  0.70970  0.36020  0.95747  1.0000 -0.5244493528
O   O23       1.0  0.29030  0.63980  0.45747  1.0000 -0.5244493528
O   O24       1.0  0.79030  0.86020  0.54253  1.0000 -0.5244493528
O   O25       1.0  0.00310  0.14860  0.96273  1.0000 -0.5127091451
O   O26       1.0  0.50310  0.35140  0.03727  1.0000 -0.5127091451
O   O27       1.0  0.49690  0.64860  0.53727  1.0000 -0.5127091451
O   O28       1.0  0.99690  0.85140  0.46273  1.0000 -0.5127091451
O   O29       1.0  0.99690  0.85140  0.03727  1.0000 -0.5127091451
O   O30       1.0  0.49690  0.64860  0.96273  1.0000 -0.5127091451
O   O31       1.0  0.50310  0.35140  0.46273  1.0000 -0.5127091451
O   O32       1.0  0.00310  0.14860  0.53727  1.0000 -0.5127091451
O   O33       1.0  0.79740  0.16880  0.95934  1.0000 -0.5127091451
O   O34       1.0  0.29740  0.33120  0.04066  1.0000 -0.5127091451
O   O35       1.0  0.70260  0.66880  0.54066  1.0000 -0.5127091451
O   O36       1.0  0.20260  0.83120  0.45934  1.0000 -0.5127091451
O   O37       1.0  0.20260  0.83120  0.04066  1.0000 -0.5127091451
O   O38       1.0  0.70260  0.66880  0.95934  1.0000 -0.5127091451
O   O39       1.0  0.29740  0.33120  0.45934  1.0000 -0.5127091451
O   O40       1.0  0.79740  0.16880  0.54066  1.0000 -0.5127091451
O   O41       1.0  0.69610  0.87910  0.02983  1.0000 -0.5244493528
O   O42       1.0  0.19610  0.62090  0.97017  1.0000 -0.5244493528
O   O43       1.0  0.80390  0.37910  0.47017  1.0000 -0.5244493528
O   O44       1.0  0.30390  0.12090  0.52983  1.0000 -0.5244493528
O   O45       1.0  0.30390  0.12090  0.97017  1.0000 -0.5244493528
O   O46       1.0  0.80390  0.37910  0.02983  1.0000 -0.5244493528
O   O47       1.0  0.19610  0.62090  0.52983  1.0000 -0.5244493528
O   O48       1.0  0.69610  0.87910  0.47017  1.0000 -0.5244493528
O   O49       1.0  0.45210  0.73880  0.03840  1.0000 -0.7851327105
O   O50       1.0  0.95210  0.76120  0.96160  1.0000 -0.7851327105
O   O51       1.0  0.04790  0.23880  0.46160  1.0000 -0.784374003
O   O52       1.0  0.54790  0.26120  0.53840  1.0000 -0.784374003
O   O53       1.0  0.54790  0.26120  0.96160  1.0000 -0.784374003
O   O54       1.0  0.04790  0.23880  0.03840  1.0000 -0.784374003
O   O55       1.0  0.95210  0.76120  0.53840  1.0000 -0.7851327105
O   O56       1.0  0.45210  0.73880  0.46160  1.0000 -0.7851327105
O   O57       1.0  0.44170  0.86970  0.04480  1.0000 -0.6770277067
O   O58       1.0  0.94170  0.63030  0.95520  1.0000 -0.6770277067
O   O59       1.0  0.05830  0.36970  0.45520  1.0000 -0.6770277067
O   O60       1.0  0.55830  0.13030  0.54480  1.0000 -0.6770277067
O   O61       1.0  0.55830  0.13030  0.95520  1.0000 -0.6770277067
O   O62       1.0  0.05830  0.36970  0.04480  1.0000 -0.6770277067
O   O63       1.0  0.94170  0.63030  0.54480  1.0000 -0.6770277067
O   O64       1.0  0.44170  0.86970  0.45520  1.0000 -0.6770277067
O   O65       1.0  0.75490  0.06440  0.11150  1.0000 -0.6216037913
O   O66       1.0  0.25490  0.43560  0.88850  1.0000 -0.6216037913
O   O67       1.0  0.74510  0.56440  0.38850  1.0000 -0.6216037913
O   O68       1.0  0.24510  0.93560  0.61150  1.0000 -0.6216037913
O   O69       1.0  0.24510  0.93560  0.88850  1.0000 -0.6216037913
O   O70       1.0  0.74510  0.56440  0.11150  1.0000 -0.6216037913
O   O71       1.0  0.25490  0.43560  0.61150  1.0000 -0.6216037913
O   O72       1.0  0.75490  0.06440  0.38850  1.0000 -0.6216037913
O   O73       1.0  0.62510  0.12050  0.05720  1.0000 -0.5529100342
O   O74       1.0  0.12510  0.37950  0.94280  1.0000 -0.5529100342
O   O75       1.0  0.87490  0.62050  0.44280  1.0000 -0.5529100342
O   O76       1.0  0.37490  0.87950  0.55720  1.0000 -0.5529100342
O   O77       1.0  0.37490  0.87950  0.94280  1.0000 -0.5529100342
O   O78       1.0  0.87490  0.62050  0.05720  1.0000 -0.5529100342
O   O79       1.0  0.12510  0.37950  0.55720  1.0000 -0.5529100342
O   O80       1.0  0.62510  0.12050  0.44280  1.0000 -0.5529100342
O   O81       1.0  0.84560  0.14570  0.06840  1.0000 -0.5768646343
O   O82       1.0  0.34560  0.35430  0.93160  1.0000 -0.5768646343
O   O83       1.0  0.65440  0.64570  0.43160  1.0000 -0.5768646343
O   O84       1.0  0.15440  0.85430  0.56840  1.0000 -0.5768646343
O   O85       1.0  0.15440  0.85430  0.93160  1.0000 -0.5768646343
O   O86       1.0  0.65440  0.64570  0.06840  1.0000 -0.5768646343
O   O87       1.0  0.34560  0.35430  0.56840  1.0000 -0.5768646343
O   O88       1.0  0.84560  0.14570  0.43160  1.0000 -0.5768646343
