# DDEC6 charges by PACMAN v1.1 (https://github.com/mtap-research/PACMAN-charge/)
data_2008[U][fsc]3[FSR]1
_chemical_formula_sum              "U4 H16 C16 O28"
_cell_length_a       6.6059
_cell_length_b       9.8638
_cell_length_c       13.187
_cell_angle_alpha    79.317
_cell_angle_beta     86.349
_cell_angle_gamma    83.794

_symmetry_space_group_name_H-M    "P 1"
_symmetry_Int_Tables_number       1

loop_
  _symmetry_equiv_pos_as_xyz
  'x, y, z'

loop_
  _atom_site_type_symbol
  _atom_site_label
  _atom_site_symmetry_multiplicity
  _atom_site_fract_x
  _atom_site_fract_y
  _atom_site_fract_z
  _atom_site_occupancy
  _atom_site_charge
U   U1        1.0  0.38316  0.61360  0.80652  1.0000 2.4556961453
U   U2        1.0  0.61684  0.38640  0.19348  1.0000 2.4556961453
U   U3        1.0  0.05124  0.16834  0.74522  1.0000 2.4354898131
U   U4        1.0  0.94876  0.83166  0.25478  1.0000 2.4334212935
H   H1        1.0  0.03380  0.81900  0.80040  1.0000 0.3484665549
H   H2        1.0  0.96620  0.18100  0.19960  1.0000 0.3484665549
H   H3        1.0  0.99520  0.76530  0.72040  1.0000 0.3664126939
H   H4        1.0  0.00480  0.23470  0.27960  1.0000 0.3664126939
H   H5        1.0  0.76800  0.53890  0.93080  1.0000 0.4436645604
H   H6        1.0  0.23200  0.46110  0.06920  1.0000 0.4436645604
H   H7        1.0  0.83110  0.64030  0.83630  1.0000 0.4091521895
H   H8        1.0  0.16890  0.35970  0.16370  1.0000 0.4091521895
H   H9        1.0  0.66020  0.60200  0.55180  1.0000 0.1404460863
H   H10       1.0  0.33980  0.39800  0.44820  1.0000 0.1404460863
H   H11       1.0  0.31940  0.64050  0.53110  1.0000 0.1404460863
H   H12       1.0  0.68060  0.35950  0.46890  1.0000 0.1404460863
H   H13       1.0  0.22700  0.03550  0.02380  1.0000 0.1283537245
H   H14       1.0  0.77300  0.96450  0.97620  1.0000 0.1283537245
H   H15       1.0  0.45640  0.18170  0.94840  1.0000 0.1404460863
H   H16       1.0  0.54360  0.81830  0.05160  1.0000 0.1404460863
C   C1        1.0  0.67160  0.41720  0.65580  1.0000 0.6676820016
C   C2        1.0  0.32840  0.58280  0.34420  1.0000 0.6676820016
C   C3        1.0  0.60080  0.51370  0.55870  1.0000 -0.1600219959
C   C4        1.0  0.39920  0.48630  0.44130  1.0000 -0.1600219959
C   C5        1.0  0.36610  0.54130  0.54250  1.0000 -0.1494787936
C   C6        1.0  0.63390  0.45870  0.45750  1.0000 -0.1494787936
C   C7        1.0  0.24130  0.45890  0.62790  1.0000 0.6511794722
C   C8        1.0  0.75870  0.54110  0.37210  1.0000 0.6511794722
C   C9        1.0  0.25960  0.89990  0.92040  1.0000 0.6620589888
C   C10       1.0  0.74040  0.10010  0.07960  1.0000 0.6620589888
C   C11       1.0  0.33880  0.98640  0.98840  1.0000 -0.1600219959
C   C12       1.0  0.66120  0.01360  0.01160  1.0000 -0.1494787936
C   C13       1.0  0.49780  0.08820  0.93460  1.0000 -0.1688692176
C   C14       1.0  0.50220  0.91180  0.06540  1.0000 -0.1688692176
C   C15       1.0  0.55220  0.09480  0.82230  1.0000 0.6788328087
C   C16       1.0  0.44780  0.90520  0.17770  1.0000 0.6788328087
O   O1        1.0  0.46740  0.73450  0.70180  1.0000 -0.6795138919
O   O2        1.0  0.53260  0.26550  0.29820  1.0000 -0.6795138919
O   O3        1.0  0.30430  0.49530  0.91610  1.0000 -0.6795138919
O   O4        1.0  0.69570  0.50470  0.08390  1.0000 -0.6795138919
O   O5        1.0  0.07600  0.06760  0.64610  1.0000 -0.6396306881
O   O6        1.0  0.92400  0.93240  0.35390  1.0000 -0.6396306881
O   O7        1.0  0.03230  0.26100  0.84690  1.0000 -0.6623759174
O   O8        1.0  0.96770  0.73900  0.15310  1.0000 -0.6623759174
O   O9        1.0  0.59320  0.43730  0.74250  1.0000 -0.6396306881
O   O10       1.0  0.40680  0.56270  0.25750  1.0000 -0.6396306881
O   O11       1.0  0.80580  0.32090  0.64500  1.0000 -0.5749387944
O   O12       1.0  0.19420  0.67910  0.35500  1.0000 -0.5749387944
O   O13       1.0  0.18250  0.51430  0.70460  1.0000 -0.6396306881
O   O14       1.0  0.81750  0.48570  0.29540  1.0000 -0.6396306881
O   O15       1.0  0.21480  0.33820  0.62110  1.0000 -0.5511391663
O   O16       1.0  0.78520  0.66180  0.37890  1.0000 -0.5511391663
O   O17       1.0  0.34470  0.78190  0.91600  1.0000 -0.5922637188
O   O18       1.0  0.65530  0.21810  0.08400  1.0000 -0.5922637188
O   O19       1.0  0.10590  0.95370  0.86790  1.0000 -0.6396306881
O   O20       1.0  0.89410  0.04630  0.13210  1.0000 -0.6396306881
O   O21       1.0  0.41230  0.11250  0.75860  1.0000 -0.6065002286
O   O22       1.0  0.58770  0.88750  0.24140  1.0000 -0.6019472285
O   O23       1.0  0.73640  0.07730  0.79150  1.0000 -0.6019472285
O   O24       1.0  0.26360  0.92270  0.20850  1.0000 -0.6019472285
O   O25       1.0  0.03510  0.73900  0.78140  1.0000 -0.7076782787
O   O26       1.0  0.96490  0.26100  0.21860  1.0000 -0.7076782787
O   O27       1.0  0.70940  0.61280  0.87690  1.0000 -0.8220551813
O   O28       1.0  0.29060  0.38720  0.12310  1.0000 -0.8220551813
