# DDEC6 charges by PACMAN v1.1 (https://github.com/mtap-research/PACMAN-charge/)
data_2008[Gd][nan]3[FSR]2
_chemical_formula_sum              "Gd4 H48 C48 N12 O40"
_cell_length_a       7.644
_cell_length_b       22.262
_cell_length_c       11.148
_cell_angle_alpha    90
_cell_angle_beta     98.828
_cell_angle_gamma    90

_symmetry_space_group_name_H-M    "P 1"
_symmetry_Int_Tables_number       1

loop_
  _symmetry_equiv_pos_as_xyz
  'x, y, z'

loop_
  _atom_site_type_symbol
  _atom_site_label
  _atom_site_symmetry_multiplicity
  _atom_site_fract_x
  _atom_site_fract_y
  _atom_site_fract_z
  _atom_site_occupancy
  _atom_site_charge
Gd  Gd1       1.0  0.39489  0.22118  0.73367  1.0000 2.0044006472
Gd  Gd2       1.0  0.10511  0.72118  0.26633  1.0000 2.0044006472
Gd  Gd3       1.0  0.60511  0.77882  0.26633  1.0000 2.0044006472
Gd  Gd4       1.0  0.89489  0.27882  0.73367  1.0000 2.0044006472
H   H1        1.0  0.59540  0.46440  0.87740  1.0000 0.1193262673
H   H2        1.0  0.90460  0.96440  0.12260  1.0000 0.1193262673
H   H3        1.0  0.40460  0.53560  0.12260  1.0000 0.1147711044
H   H4        1.0  0.09540  0.03560  0.87740  1.0000 0.1147711044
H   H5        1.0  0.72930  0.46160  0.78410  1.0000 0.1193262673
H   H6        1.0  0.77070  0.96160  0.21590  1.0000 0.1193262673
H   H7        1.0  0.27070  0.53840  0.21590  1.0000 0.1193262673
H   H8        1.0  0.22930  0.03840  0.78410  1.0000 0.1193262673
H   H9        1.0  0.47810  0.44780  0.62730  1.0000 0.147638849
H   H10       1.0  0.02190  0.94780  0.37270  1.0000 0.147638849
H   H11       1.0  0.52190  0.55220  0.37270  1.0000 0.147638849
H   H12       1.0  0.97810  0.05220  0.62730  1.0000 0.147638849
H   H13       1.0  0.36250  0.43950  0.73110  1.0000 0.1578511877
H   H14       1.0  0.13750  0.93950  0.26890  1.0000 0.1578511877
H   H15       1.0  0.63750  0.56050  0.26890  1.0000 0.1578511877
H   H16       1.0  0.86250  0.06050  0.73110  1.0000 0.1578511877
H   H17       1.0  0.69610  0.62540  0.48350  1.0000 0.1193262673
H   H18       1.0  0.80390  0.12540  0.51650  1.0000 0.1193262673
H   H19       1.0  0.30390  0.37460  0.51650  1.0000 0.1193262673
H   H20       1.0  0.19610  0.87460  0.48350  1.0000 0.1193262673
H   H21       1.0  0.58870  0.68220  0.51600  1.0000 0.1287676757
H   H22       1.0  0.91130  0.18220  0.48400  1.0000 0.1287676757
H   H23       1.0  0.41130  0.31780  0.48400  1.0000 0.1287676757
H   H24       1.0  0.08870  0.81780  0.51600  1.0000 0.1287676757
H   H25       1.0  0.90180  0.66020  0.62860  1.0000 0.1578511877
H   H26       1.0  0.59820  0.16020  0.37140  1.0000 0.1578511877
H   H27       1.0  0.09820  0.33980  0.37140  1.0000 0.1578511877
H   H28       1.0  0.40180  0.83980  0.62860  1.0000 0.1578511877
H   H29       1.0  0.79690  0.72020  0.60980  1.0000 0.1578511877
H   H30       1.0  0.70310  0.22020  0.39020  1.0000 0.1578511877
H   H31       1.0  0.20310  0.27980  0.39020  1.0000 0.1578511877
H   H32       1.0  0.29690  0.77980  0.60980  1.0000 0.1578511877
H   H33       1.0  0.23160  0.63330  0.88540  1.0000 0.1193262673
H   H34       1.0  0.26840  0.13330  0.11460  1.0000 0.1193262673
H   H35       1.0  0.76840  0.36670  0.11460  1.0000 0.1193262673
H   H36       1.0  0.73160  0.86670  0.88540  1.0000 0.1193262673
H   H37       1.0  0.24960  0.68750  0.79820  1.0000 0.1193262673
H   H38       1.0  0.25040  0.18750  0.20180  1.0000 0.1193262673
H   H39       1.0  0.75040  0.31250  0.20180  1.0000 0.1193262673
H   H40       1.0  0.74960  0.81250  0.79820  1.0000 0.1193262673
H   H41       1.0  0.43730  0.73610  0.93480  1.0000 0.1578511877
H   H42       1.0  0.06270  0.23610  0.06520  1.0000 0.1578511877
H   H43       1.0  0.56270  0.26390  0.06520  1.0000 0.1578511877
H   H44       1.0  0.93730  0.76390  0.93480  1.0000 0.1578511877
H   H45       1.0  0.50140  0.67750  0.00560  1.0000 0.1578511877
H   H46       1.0  0.99860  0.17750  0.99440  1.0000 0.1578511877
H   H47       1.0  0.49860  0.32250  0.99440  1.0000 0.1578511877
H   H48       1.0  0.00140  0.82250  0.00560  1.0000 0.1578511877
C   C1        1.0  0.46090  0.56680  0.82620  1.0000 0.5404661363
C   C2        1.0  0.03910  0.06680  0.17380  1.0000 0.5404661363
C   C3        1.0  0.53910  0.43320  0.17380  1.0000 0.5404661363
C   C4        1.0  0.96090  0.93320  0.82620  1.0000 0.5404661363
C   C5        1.0  0.67700  0.56230  0.68900  1.0000 0.5468996233
C   C6        1.0  0.82300  0.06230  0.31100  1.0000 0.5468996233
C   C7        1.0  0.32300  0.43770  0.31100  1.0000 0.5468996233
C   C8        1.0  0.17700  0.93770  0.68900  1.0000 0.5468996233
C   C9        1.0  0.54400  0.65810  0.73500  1.0000 0.5404661363
C   C10       1.0  0.95600  0.15810  0.26500  1.0000 0.5404661363
C   C11       1.0  0.45600  0.34190  0.26500  1.0000 0.5404661363
C   C12       1.0  0.04400  0.84190  0.73500  1.0000 0.5404661363
C   C13       1.0  0.60950  0.47260  0.79400  1.0000 -0.0290828939
C   C14       1.0  0.89050  0.97260  0.20600  1.0000 -0.0290828939
C   C15       1.0  0.39050  0.52740  0.20600  1.0000 -0.0290828939
C   C16       1.0  0.10950  0.02740  0.79400  1.0000 -0.0290828939
C   C17       1.0  0.48050  0.43460  0.71050  1.0000 -0.3501397604
C   C18       1.0  0.01950  0.93460  0.28950  1.0000 -0.3501397604
C   C19       1.0  0.51950  0.56540  0.28950  1.0000 -0.3501397604
C   C20       1.0  0.98050  0.06540  0.71050  1.0000 -0.3501397604
C   C21       1.0  0.53300  0.36910  0.72140  1.0000 0.683510459
C   C22       1.0  0.96700  0.86910  0.27860  1.0000 0.683510459
C   C23       1.0  0.46700  0.63090  0.27860  1.0000 0.683510459
C   C24       1.0  0.03300  0.13090  0.72140  1.0000 0.683510459
C   C25       1.0  0.68700  0.65570  0.54460  1.0000 -0.0699903173
C   C26       1.0  0.81300  0.15570  0.45540  1.0000 -0.0699903173
C   C27       1.0  0.31300  0.34430  0.45540  1.0000 -0.0699903173
C   C28       1.0  0.18700  0.84430  0.54460  1.0000 -0.0699903173
C   C29       1.0  0.82500  0.68370  0.56900  1.0000 -0.2574723
C   C30       1.0  0.67500  0.18370  0.43100  1.0000 -0.2574723
C   C31       1.0  0.17500  0.31630  0.43100  1.0000 -0.2574723
C   C32       1.0  0.32500  0.81630  0.56900  1.0000 -0.2574723
C   C33       1.0  0.93240  0.70200  0.47420  1.0000 0.6505328184
C   C34       1.0  0.56760  0.20200  0.52580  1.0000 0.6505328184
C   C35       1.0  0.06760  0.29800  0.52580  1.0000 0.6505328184
C   C36       1.0  0.43240  0.79800  0.47420  1.0000 0.6505328184
C   C37       1.0  0.31500  0.66130  0.85870  1.0000 -0.0114022121
C   C38       1.0  0.18500  0.16130  0.14130  1.0000 -0.0114022121
C   C39       1.0  0.68500  0.33870  0.14130  1.0000 -0.0114022121
C   C40       1.0  0.81500  0.83870  0.85870  1.0000 -0.0114022121
C   C41       1.0  0.39760  0.69850  0.96510  1.0000 -0.3665078515
C   C42       1.0  0.10240  0.19850  0.03490  1.0000 -0.3665078515
C   C43       1.0  0.60240  0.30150  0.03490  1.0000 -0.3665078515
C   C44       1.0  0.89760  0.80150  0.96510  1.0000 -0.3665078515
C   C45       1.0  0.27970  0.71210  0.05630  1.0000 0.6505328184
C   C46       1.0  0.22030  0.21210  0.94370  1.0000 0.6505328184
C   C47       1.0  0.72030  0.28790  0.94370  1.0000 0.6505328184
C   C48       1.0  0.77970  0.78790  0.05630  1.0000 0.6505328184
N   N1        1.0  0.58380  0.53650  0.76990  1.0000 -0.2407822097
N   N2        1.0  0.91620  0.03650  0.23010  1.0000 -0.2407822097
N   N3        1.0  0.41620  0.46350  0.23010  1.0000 -0.2407822097
N   N4        1.0  0.08380  0.96350  0.76990  1.0000 -0.2407822097
N   N5        1.0  0.66300  0.62370  0.68100  1.0000 -0.3860667581
N   N6        1.0  0.83700  0.12370  0.31900  1.0000 -0.3860667581
N   N7        1.0  0.33700  0.37630  0.31900  1.0000 -0.3860667581
N   N8        1.0  0.16300  0.87630  0.68100  1.0000 -0.3860667581
N   N9        1.0  0.44640  0.62770  0.80340  1.0000 -0.2407822097
N   N10       1.0  0.05360  0.12770  0.19660  1.0000 -0.2407822097
N   N11       1.0  0.55360  0.37230  0.19660  1.0000 -0.2349317605
N   N12       1.0  0.94640  0.87230  0.80340  1.0000 -0.2349317605
O   O1        1.0  0.54000  0.71230  0.72420  1.0000 -0.4724301631
O   O2        1.0  0.96000  0.21230  0.27580  1.0000 -0.4724301631
O   O3        1.0  0.46000  0.28770  0.27580  1.0000 -0.4724301631
O   O4        1.0  0.04000  0.78770  0.72420  1.0000 -0.4724301631
O   O5        1.0  0.37320  0.54130  0.89040  1.0000 -0.4544613296
O   O6        1.0  0.12680  0.04130  0.10960  1.0000 -0.4554345245
O   O7        1.0  0.62680  0.45870  0.10960  1.0000 -0.4544613296
O   O8        1.0  0.87320  0.95870  0.89040  1.0000 -0.4544613296
O   O9        1.0  0.77100  0.53360  0.63300  1.0000 -0.4544613296
O   O10       1.0  0.72900  0.03360  0.36700  1.0000 -0.4544613296
O   O11       1.0  0.22900  0.46640  0.36700  1.0000 -0.4554345245
O   O12       1.0  0.27100  0.96640  0.63300  1.0000 -0.4544613296
O   O13       1.0  0.41630  0.33100  0.73920  1.0000 -0.6125243539
O   O14       1.0  0.08370  0.83100  0.26080  1.0000 -0.6125243539
O   O15       1.0  0.58370  0.66900  0.26080  1.0000 -0.6125243539
O   O16       1.0  0.91630  0.16900  0.73920  1.0000 -0.6125243539
O   O17       1.0  0.68790  0.35660  0.70890  1.0000 -0.6191099817
O   O18       1.0  0.81210  0.85660  0.29110  1.0000 -0.6191099817
O   O19       1.0  0.31210  0.64340  0.29110  1.0000 -0.6191099817
O   O20       1.0  0.18790  0.14340  0.70890  1.0000 -0.6191099817
O   O21       1.0  0.08630  0.68420  0.47720  1.0000 -0.5325317616
O   O22       1.0  0.41370  0.18420  0.52280  1.0000 -0.5325317616
O   O23       1.0  0.91370  0.31580  0.52280  1.0000 -0.5325317616
O   O24       1.0  0.58630  0.81580  0.47720  1.0000 -0.5325317616
O   O25       1.0  0.86480  0.73690  0.38960  1.0000 -0.6917255008
O   O26       1.0  0.63520  0.23690  0.61040  1.0000 -0.6917255008
O   O27       1.0  0.13520  0.26310  0.61040  1.0000 -0.6917255008
O   O28       1.0  0.36480  0.76310  0.38960  1.0000 -0.6917255008
O   O29       1.0  0.33030  0.75160  0.13890  1.0000 -0.7087049717
O   O30       1.0  0.16970  0.25160  0.86110  1.0000 -0.7087049717
O   O31       1.0  0.66970  0.24840  0.86110  1.0000 -0.7087049717
O   O32       1.0  0.83030  0.74840  0.13890  1.0000 -0.7087049717
O   O33       1.0  0.13710  0.68560  0.05770  1.0000 -0.5403053695
O   O34       1.0  0.36290  0.18560  0.94230  1.0000 -0.5403053695
O   O35       1.0  0.86290  0.31440  0.94230  1.0000 -0.5403053695
O   O36       1.0  0.63710  0.81440  0.05770  1.0000 -0.5403053695
O   O37       1.0  0.57870  0.13170  0.76120  1.0000 -0.2407822097
O   O38       1.0  0.92130  0.63170  0.23880  1.0000 -0.2407822097
O   O39       1.0  0.42130  0.86830  0.23880  1.0000 -0.2407822097
O   O40       1.0  0.07870  0.36830  0.76120  1.0000 -0.2407822097
