# DDEC6 charges by PACMAN v1.1 (https://github.com/mtap-research/PACMAN-charge/)
data_2008[Tm][rtl]3[FSR]1
_chemical_formula_sum              "Tm4 H64 C48 N4 O32"
_cell_length_a       9.543
_cell_length_b       13.8215
_cell_length_c       17.5465
_cell_angle_alpha    90
_cell_angle_beta     119.494
_cell_angle_gamma    90

_symmetry_space_group_name_H-M    "P 1"
_symmetry_Int_Tables_number       1

loop_
  _symmetry_equiv_pos_as_xyz
  'x, y, z'

loop_
  _atom_site_type_symbol
  _atom_site_label
  _atom_site_symmetry_multiplicity
  _atom_site_fract_x
  _atom_site_fract_y
  _atom_site_fract_z
  _atom_site_occupancy
  _atom_site_charge
Tm  Tm1       1.0  0.62879  0.88863  0.08556  1.0000 1.9698483159
Tm  Tm2       1.0  0.37121  0.38863  0.41444  1.0000 1.9698483159
Tm  Tm3       1.0  0.37121  0.11137  0.91444  1.0000 1.9698483159
Tm  Tm4       1.0  0.62879  0.61137  0.58556  1.0000 1.9698483159
H   H1        1.0  0.15230  0.09160  0.25990  1.0000 0.1009365988
H   H2        1.0  0.84770  0.59160  0.24010  1.0000 0.1009365988
H   H3        1.0  0.84770  0.90840  0.74010  1.0000 0.1009365988
H   H4        1.0  0.15230  0.40840  0.75990  1.0000 0.1009365988
H   H5        1.0  0.01060  0.16350  0.20370  1.0000 0.1213336025
H   H6        1.0  0.98940  0.66350  0.29630  1.0000 0.1213336025
H   H7        1.0  0.98940  0.83650  0.79630  1.0000 0.1213336025
H   H8        1.0  0.01060  0.33650  0.70370  1.0000 0.1213336025
H   H9        1.0  0.98200  0.09700  0.07510  1.0000 0.1112980855
H   H10       1.0  0.01800  0.59700  0.42490  1.0000 0.1112980855
H   H11       1.0  0.01800  0.90300  0.92490  1.0000 0.1112980855
H   H12       1.0  0.98200  0.40300  0.57510  1.0000 0.1112980855
H   H13       1.0  0.12320  0.96250  0.07110  1.0000 0.1112980855
H   H14       1.0  0.87680  0.46250  0.42890  1.0000 0.1112980855
H   H15       1.0  0.87680  0.03750  0.92890  1.0000 0.1112980855
H   H16       1.0  0.12320  0.53750  0.57110  1.0000 0.1112980855
H   H17       1.0  0.22680  0.96350  0.17360  1.0000 0.1112980855
H   H18       1.0  0.77320  0.46350  0.32640  1.0000 0.1112980855
H   H19       1.0  0.77320  0.03650  0.82640  1.0000 0.1112980855
H   H20       1.0  0.22680  0.53650  0.67360  1.0000 0.1112980855
H   H21       1.0  0.22590  0.11190  0.06330  1.0000 0.1213336025
H   H22       1.0  0.77410  0.61190  0.43670  1.0000 0.1213336025
H   H23       1.0  0.77410  0.88810  0.93670  1.0000 0.1213336025
H   H24       1.0  0.22590  0.38810  0.56330  1.0000 0.1213336025
H   H25       1.0  0.41700  0.10620  0.24780  1.0000 0.1112980855
H   H26       1.0  0.58300  0.60620  0.25220  1.0000 0.1112980855
H   H27       1.0  0.58300  0.89380  0.75220  1.0000 0.1112980855
H   H28       1.0  0.41700  0.39380  0.74780  1.0000 0.1112980855
H   H29       1.0  0.42530  0.18820  0.18830  1.0000 0.1112980855
H   H30       1.0  0.57470  0.68820  0.31170  1.0000 0.1112980855
H   H31       1.0  0.57470  0.81180  0.81170  1.0000 0.1112980855
H   H32       1.0  0.42530  0.31180  0.68830  1.0000 0.1112980855
H   H33       1.0  0.16050  0.23510  0.14540  1.0000 0.1009365988
H   H34       1.0  0.83950  0.73510  0.35460  1.0000 0.1009365988
H   H35       1.0  0.83950  0.76490  0.85460  1.0000 0.1009365988
H   H36       1.0  0.16050  0.26490  0.64540  1.0000 0.1009365988
H   H37       1.0  0.48420  0.68300  0.98240  1.0000 0.1213336025
H   H38       1.0  0.51580  0.18300  0.51760  1.0000 0.1213336025
H   H39       1.0  0.51580  0.31700  0.01760  1.0000 0.1213336025
H   H40       1.0  0.48420  0.81700  0.48240  1.0000 0.1213336025
H   H41       1.0  0.81960  0.66290  0.96620  1.0000 0.1397513558
H   H42       1.0  0.18040  0.16290  0.53380  1.0000 0.1397513558
H   H43       1.0  0.18040  0.33710  0.03380  1.0000 0.1397513558
H   H44       1.0  0.81960  0.83710  0.46620  1.0000 0.1397513558
H   H45       1.0  0.80840  0.54970  0.96310  1.0000 0.1397513558
H   H46       1.0  0.19160  0.04970  0.53690  1.0000 0.1397513558
H   H47       1.0  0.19160  0.45030  0.03690  1.0000 0.1397513558
H   H48       1.0  0.80840  0.95030  0.46310  1.0000 0.1397513558
H   H49       1.0  0.72510  0.60950  0.87600  1.0000 0.1475347613
H   H50       1.0  0.27490  0.10950  0.62400  1.0000 0.1475347613
H   H51       1.0  0.27490  0.39050  0.12400  1.0000 0.1475347613
H   H52       1.0  0.72510  0.89050  0.37600  1.0000 0.1475347613
H   H53       1.0  0.40460  0.54270  0.90510  1.0000 0.1306904757
H   H54       1.0  0.59540  0.04270  0.59490  1.0000 0.1306904757
H   H55       1.0  0.59540  0.45730  0.09490  1.0000 0.1306904757
H   H56       1.0  0.40460  0.95730  0.40510  1.0000 0.1306904757
H   H57       1.0  0.46850  0.53460  0.83840  1.0000 0.1475347613
H   H58       1.0  0.53150  0.03460  0.66160  1.0000 0.1475347613
H   H59       1.0  0.53150  0.46540  0.16160  1.0000 0.1475347613
H   H60       1.0  0.46850  0.96540  0.33840  1.0000 0.1475347613
H   H61       1.0  0.55090  0.47500  0.92560  1.0000 0.1306904757
H   H62       1.0  0.44910  0.97500  0.57440  1.0000 0.1306904757
H   H63       1.0  0.44910  0.52500  0.07440  1.0000 0.1306904757
H   H64       1.0  0.55090  0.02500  0.42560  1.0000 0.1306904757
C   C1        1.0  0.09900  0.12720  0.20520  1.0000 -0.1964445042
C   C2        1.0  0.90100  0.62720  0.29480  1.0000 -0.1964445042
C   C3        1.0  0.90100  0.87280  0.79480  1.0000 -0.1964445042
C   C4        1.0  0.09900  0.37280  0.70520  1.0000 -0.1964445042
C   C5        1.0  0.03410  0.05650  0.12770  1.0000 -0.1124870202
C   C6        1.0  0.96590  0.55650  0.37230  1.0000 -0.1124870202
C   C7        1.0  0.96590  0.94350  0.87230  1.0000 -0.1124870202
C   C8        1.0  0.03410  0.44350  0.62770  1.0000 -0.1124870202
C   C9        1.0  0.16910  0.00410  0.12230  1.0000 -0.1846858936
C   C10       1.0  0.83090  0.50410  0.37770  1.0000 -0.1846858936
C   C11       1.0  0.83090  0.99590  0.87770  1.0000 -0.1846858936
C   C12       1.0  0.16910  0.49590  0.62230  1.0000 -0.1846858936
C   C13       1.0  0.28540  0.07350  0.11680  1.0000 -0.1254969801
C   C14       1.0  0.71460  0.57350  0.38320  1.0000 -0.1254969801
C   C15       1.0  0.71460  0.92650  0.88320  1.0000 -0.1254969801
C   C16       1.0  0.28540  0.42650  0.61680  1.0000 -0.1254969801
C   C17       1.0  0.35420  0.14240  0.19410  1.0000 -0.1964445042
C   C18       1.0  0.64580  0.64240  0.30590  1.0000 -0.1964445042
C   C19       1.0  0.64580  0.85760  0.80590  1.0000 -0.1964445042
C   C20       1.0  0.35420  0.35760  0.69410  1.0000 -0.1964445042
C   C21       1.0  0.21950  0.19720  0.19930  1.0000 -0.1036725382
C   C22       1.0  0.78050  0.69720  0.30070  1.0000 -0.1036725382
C   C23       1.0  0.78050  0.80280  0.80070  1.0000 -0.1036725382
C   C24       1.0  0.21950  0.30280  0.69930  1.0000 -0.1036725382
C   C25       1.0  0.90390  0.99150  0.12280  1.0000 0.5577704717
C   C26       1.0  0.09610  0.49150  0.37720  1.0000 0.5577704717
C   C27       1.0  0.09610  0.00850  0.87720  1.0000 0.5577704717
C   C28       1.0  0.90390  0.50850  0.62280  1.0000 0.5577704717
C   C29       1.0  0.41870  0.02030  0.11110  1.0000 0.6099301388
C   C30       1.0  0.58130  0.52030  0.38890  1.0000 0.6099301388
C   C31       1.0  0.58130  0.97970  0.88890  1.0000 0.6099301388
C   C32       1.0  0.41870  0.47970  0.61110  1.0000 0.6099301388
C   C33       1.0  0.27960  0.26660  0.27630  1.0000 0.5577704717
C   C34       1.0  0.72040  0.76660  0.22370  1.0000 0.5577704717
C   C35       1.0  0.72040  0.73340  0.72370  1.0000 0.5577704717
C   C36       1.0  0.27960  0.23340  0.77630  1.0000 0.5577704717
C   C37       1.0  0.58100  0.68440  0.98200  1.0000 0.299445275
C   C38       1.0  0.41900  0.18440  0.51800  1.0000 0.299445275
C   C39       1.0  0.41900  0.31560  0.01800  1.0000 0.299445275
C   C40       1.0  0.58100  0.81560  0.48200  1.0000 0.299445275
C   C41       1.0  0.75200  0.60900  0.93600  1.0000 -0.2976626645
C   C42       1.0  0.24800  0.10900  0.56400  1.0000 -0.2976626645
C   C43       1.0  0.24800  0.39100  0.06400  1.0000 -0.2976626645
C   C44       1.0  0.75200  0.89100  0.43600  1.0000 -0.2976626645
C   C45       1.0  0.49900  0.53500  0.89900  1.0000 -0.3363237272
C   C46       1.0  0.50100  0.03500  0.60100  1.0000 -0.3363237272
C   C47       1.0  0.50100  0.46500  0.10100  1.0000 -0.3363237272
C   C48       1.0  0.49900  0.96500  0.39900  1.0000 -0.3363237272
N   N1        1.0  0.60730  0.61370  0.94230  1.0000 0.0182625136
N   N2        1.0  0.39270  0.11370  0.55770  1.0000 0.0182625136
N   N3        1.0  0.39270  0.38630  0.05770  1.0000 0.0182625136
N   N4        1.0  0.60730  0.88630  0.44230  1.0000 0.0182625136
O   O1        1.0  0.36470  0.83590  0.99080  1.0000 -0.386440902
O   O2        1.0  0.63530  0.33590  0.50920  1.0000 -0.386440902
O   O3        1.0  0.63530  0.16410  0.00920  1.0000 -0.3847191821
O   O4        1.0  0.36470  0.66410  0.49080  1.0000 -0.386440902
O   O5        1.0  0.79410  0.02840  0.13470  1.0000 -0.5582894947
O   O6        1.0  0.20590  0.52840  0.36530  1.0000 -0.5582894947
O   O7        1.0  0.20590  0.97160  0.86530  1.0000 -0.5582894947
O   O8        1.0  0.79410  0.47160  0.63470  1.0000 -0.5582894947
O   O9        1.0  0.89500  0.90470  0.10140  1.0000 -0.5964186977
O   O10       1.0  0.10500  0.40470  0.39860  1.0000 -0.5964186977
O   O11       1.0  0.10500  0.09530  0.89860  1.0000 -0.5964186977
O   O12       1.0  0.89500  0.59530  0.60140  1.0000 -0.5964186977
O   O13       1.0  0.19050  0.33690  0.26990  1.0000 -0.610076804
O   O14       1.0  0.80950  0.83690  0.23010  1.0000 -0.610076804
O   O15       1.0  0.80950  0.66310  0.73010  1.0000 -0.610076804
O   O16       1.0  0.19050  0.16310  0.76990  1.0000 -0.610076804
O   O17       1.0  0.41060  0.25280  0.34370  1.0000 -0.5789159129
O   O18       1.0  0.58940  0.75280  0.15630  1.0000 -0.5789159129
O   O19       1.0  0.58940  0.74720  0.65630  1.0000 -0.5789159129
O   O20       1.0  0.41060  0.24720  0.84370  1.0000 -0.5789159129
O   O21       1.0  0.50150  0.95640  0.16380  1.0000 -0.5582894947
O   O22       1.0  0.49850  0.45640  0.33620  1.0000 -0.5582894947
O   O23       1.0  0.49850  0.04360  0.83620  1.0000 -0.5582894947
O   O24       1.0  0.50150  0.54360  0.66380  1.0000 -0.5582894947
O   O25       1.0  0.44140  0.03850  0.04720  1.0000 -0.6528704951
O   O26       1.0  0.55860  0.53850  0.45280  1.0000 -0.6528704951
O   O27       1.0  0.55860  0.96150  0.95280  1.0000 -0.6528704951
O   O28       1.0  0.44140  0.46150  0.54720  1.0000 -0.6528704951
O   O29       1.0  0.66850  0.75130  0.01820  1.0000 -0.4772556017
O   O30       1.0  0.33150  0.25130  0.48180  1.0000 -0.4772556017
O   O31       1.0  0.33150  0.24870  0.98180  1.0000 -0.4772556017
O   O32       1.0  0.66850  0.74870  0.51820  1.0000 -0.4772556017
