# DDEC6 charges by PACMAN v1.1 (https://github.com/mtap-research/PACMAN-charge/)
data_2008[Cd][rho]3[FSR]1
_chemical_formula_sum              "Cd24 H144 C240 N96 O96"
_cell_length_a       26.1315
_cell_length_b       26.1315
_cell_length_c       26.1315
_cell_angle_alpha    109.471
_cell_angle_beta     109.471
_cell_angle_gamma    109.471

_symmetry_space_group_name_H-M    "P 1"
_symmetry_Int_Tables_number       1

loop_
  _symmetry_equiv_pos_as_xyz
  'x, y, z'

loop_
  _atom_site_type_symbol
  _atom_site_label
  _atom_site_symmetry_multiplicity
  _atom_site_fract_x
  _atom_site_fract_y
  _atom_site_fract_z
  _atom_site_occupancy
  _atom_site_charge
Cd  Cd1       1.0  0.64513  0.50000  0.35487  1.0000 0.8315263116
Cd  Cd2       1.0  0.35487  0.64513  0.50000  1.0000 0.8315263116
Cd  Cd3       1.0  0.50000  0.35487  0.64513  1.0000 0.8315263116
Cd  Cd4       1.0  0.70974  0.85487  0.35487  1.0000 0.8315263116
Cd  Cd5       1.0  0.29026  0.64513  0.14513  1.0000 0.8315263116
Cd  Cd6       1.0  0.50000  0.14513  0.85487  1.0000 0.8315263116
Cd  Cd7       1.0  0.14513  0.85487  0.50000  1.0000 0.8315263116
Cd  Cd8       1.0  0.64513  0.14513  0.29026  1.0000 0.8315263116
Cd  Cd9       1.0  0.85487  0.35487  0.70974  1.0000 0.8315263116
Cd  Cd10      1.0  0.14513  0.29026  0.64513  1.0000 0.8315263116
Cd  Cd11      1.0  0.85487  0.50000  0.14513  1.0000 0.8315263116
Cd  Cd12      1.0  0.35487  0.70974  0.85487  1.0000 0.8315263116
Cd  Cd13      1.0  0.35487  0.50000  0.64513  1.0000 0.8315263116
Cd  Cd14      1.0  0.64513  0.35487  0.50000  1.0000 0.8315263116
Cd  Cd15      1.0  0.50000  0.64513  0.35487  1.0000 0.8315263116
Cd  Cd16      1.0  0.29026  0.14513  0.64513  1.0000 0.8315263116
Cd  Cd17      1.0  0.70974  0.35487  0.85487  1.0000 0.8315263116
Cd  Cd18      1.0  0.50000  0.85487  0.14513  1.0000 0.8315263116
Cd  Cd19      1.0  0.85487  0.14513  0.50000  1.0000 0.8315263116
Cd  Cd20      1.0  0.35487  0.85487  0.70974  1.0000 0.8315263116
Cd  Cd21      1.0  0.14513  0.64513  0.29026  1.0000 0.8315263116
Cd  Cd22      1.0  0.85487  0.70974  0.35487  1.0000 0.8315263116
Cd  Cd23      1.0  0.14513  0.50000  0.85487  1.0000 0.8315263116
Cd  Cd24      1.0  0.64513  0.29026  0.14513  1.0000 0.8315263116
H   H1        1.0  0.78310  0.50130  0.41440  1.0000 0.1230358742
H   H2        1.0  0.41440  0.78310  0.50130  1.0000 0.1230358742
H   H3        1.0  0.50130  0.41440  0.78310  1.0000 0.1230358742
H   H4        1.0  0.63130  0.91310  0.41440  1.0000 0.1230358742
H   H5        1.0  0.36870  0.78310  0.28180  1.0000 0.1230358742
H   H6        1.0  0.50130  0.08690  0.71820  1.0000 0.1230358742
H   H7        1.0  0.08690  0.71820  0.50130  1.0000 0.1230358742
H   H8        1.0  0.78310  0.28180  0.36870  1.0000 0.1230358742
H   H9        1.0  0.91310  0.41440  0.63130  1.0000 0.1230358742
H   H10       1.0  0.28180  0.36870  0.78310  1.0000 0.1230358742
H   H11       1.0  0.71820  0.50130  0.08690  1.0000 0.1230358742
H   H12       1.0  0.41440  0.63130  0.91310  1.0000 0.1230358742
H   H13       1.0  0.08690  0.36870  0.58560  1.0000 0.1230358742
H   H14       1.0  0.91310  0.49870  0.28180  1.0000 0.1230358742
H   H15       1.0  0.21690  0.63130  0.71820  1.0000 0.1230358742
H   H16       1.0  0.58560  0.08690  0.36870  1.0000 0.1230358742
H   H17       1.0  0.28180  0.91310  0.49870  1.0000 0.1230358742
H   H18       1.0  0.71820  0.21690  0.63130  1.0000 0.1230358742
H   H19       1.0  0.36870  0.58560  0.08690  1.0000 0.1230358742
H   H20       1.0  0.49870  0.28180  0.91310  1.0000 0.1230358742
H   H21       1.0  0.63130  0.71820  0.21690  1.0000 0.1230358742
H   H22       1.0  0.49870  0.21690  0.58560  1.0000 0.1230358742
H   H23       1.0  0.21690  0.58560  0.49870  1.0000 0.1230358742
H   H24       1.0  0.58560  0.49870  0.21690  1.0000 0.1230358742
H   H25       1.0  0.21690  0.49870  0.58560  1.0000 0.1230358742
H   H26       1.0  0.58560  0.21690  0.49870  1.0000 0.1230358742
H   H27       1.0  0.49870  0.58560  0.21690  1.0000 0.1230358742
H   H28       1.0  0.36870  0.08690  0.58560  1.0000 0.1230358742
H   H29       1.0  0.63130  0.21690  0.71820  1.0000 0.1230358742
H   H30       1.0  0.49870  0.91310  0.28180  1.0000 0.1230358742
H   H31       1.0  0.91310  0.28180  0.49870  1.0000 0.1230358742
H   H32       1.0  0.21690  0.71820  0.63130  1.0000 0.1230358742
H   H33       1.0  0.08690  0.58560  0.36870  1.0000 0.1230358742
H   H34       1.0  0.71820  0.63130  0.21690  1.0000 0.1230358742
H   H35       1.0  0.28180  0.49870  0.91310  1.0000 0.1230358742
H   H36       1.0  0.58560  0.36870  0.08690  1.0000 0.1230358742
H   H37       1.0  0.91310  0.63130  0.41440  1.0000 0.1230358742
H   H38       1.0  0.08690  0.50130  0.71820  1.0000 0.1230358742
H   H39       1.0  0.78310  0.36870  0.28180  1.0000 0.1230358742
H   H40       1.0  0.41440  0.91310  0.63130  1.0000 0.1230358742
H   H41       1.0  0.71820  0.08690  0.50130  1.0000 0.1230358742
H   H42       1.0  0.28180  0.78310  0.36870  1.0000 0.1230358742
H   H43       1.0  0.63130  0.41440  0.91310  1.0000 0.1230358742
H   H44       1.0  0.50130  0.71820  0.08690  1.0000 0.1230358742
H   H45       1.0  0.36870  0.28180  0.78310  1.0000 0.1230358742
H   H46       1.0  0.50130  0.78310  0.41440  1.0000 0.1230358742
H   H47       1.0  0.78310  0.41440  0.50130  1.0000 0.1230358742
H   H48       1.0  0.41440  0.50130  0.78310  1.0000 0.1230358742
H   H49       1.0  0.83520  0.45080  0.38440  1.0000 0.128022842
H   H50       1.0  0.38440  0.83520  0.45080  1.0000 0.128022842
H   H51       1.0  0.45080  0.38440  0.83520  1.0000 0.128022842
H   H52       1.0  0.54920  0.93360  0.38440  1.0000 0.128022842
H   H53       1.0  0.45080  0.83520  0.38440  1.0000 0.128022842
H   H54       1.0  0.45080  0.06640  0.61560  1.0000 0.128022842
H   H55       1.0  0.06640  0.61560  0.45080  1.0000 0.128022842
H   H56       1.0  0.83520  0.38440  0.45080  1.0000 0.128022842
H   H57       1.0  0.93360  0.38440  0.54920  1.0000 0.128022842
H   H58       1.0  0.38440  0.45080  0.83520  1.0000 0.128022842
H   H59       1.0  0.61560  0.45080  0.06640  1.0000 0.128022842
H   H60       1.0  0.38440  0.54920  0.93360  1.0000 0.128022842
H   H61       1.0  0.06640  0.45080  0.61560  1.0000 0.128022842
H   H62       1.0  0.93360  0.54920  0.38440  1.0000 0.128022842
H   H63       1.0  0.16480  0.54920  0.61560  1.0000 0.128022842
H   H64       1.0  0.61560  0.06640  0.45080  1.0000 0.128022842
H   H65       1.0  0.38440  0.93360  0.54920  1.0000 0.128022842
H   H66       1.0  0.61560  0.16480  0.54920  1.0000 0.128022842
H   H67       1.0  0.45080  0.61560  0.06640  1.0000 0.128022842
H   H68       1.0  0.54920  0.38440  0.93360  1.0000 0.128022842
H   H69       1.0  0.54920  0.61560  0.16480  1.0000 0.128022842
H   H70       1.0  0.54920  0.16480  0.61560  1.0000 0.128022842
H   H71       1.0  0.16480  0.61560  0.54920  1.0000 0.128022842
H   H72       1.0  0.61560  0.54920  0.16480  1.0000 0.128022842
H   H73       1.0  0.71690  0.62260  0.49990  1.0000 0.1230358742
H   H74       1.0  0.49990  0.71690  0.62260  1.0000 0.1230358742
H   H75       1.0  0.62260  0.49990  0.71690  1.0000 0.1230358742
H   H76       1.0  0.78300  0.87730  0.49990  1.0000 0.1230358742
H   H77       1.0  0.21700  0.71690  0.09430  1.0000 0.1230358742
H   H78       1.0  0.62260  0.12270  0.90570  1.0000 0.1230358742
H   H79       1.0  0.12270  0.90570  0.62260  1.0000 0.1230358742
H   H80       1.0  0.71690  0.09430  0.21700  1.0000 0.1230358742
H   H81       1.0  0.87730  0.49990  0.78300  1.0000 0.1230358742
H   H82       1.0  0.09430  0.21700  0.71690  1.0000 0.1230358742
H   H83       1.0  0.90570  0.62260  0.12270  1.0000 0.1230358742
H   H84       1.0  0.49990  0.78300  0.87730  1.0000 0.1230358742
H   H85       1.0  0.12270  0.21700  0.50010  1.0000 0.1230358742
H   H86       1.0  0.87730  0.37740  0.09430  1.0000 0.1230358742
H   H87       1.0  0.28310  0.78300  0.90570  1.0000 0.1230358742
H   H88       1.0  0.50010  0.12270  0.21700  1.0000 0.1230358742
H   H89       1.0  0.09430  0.87730  0.37740  1.0000 0.1230358742
H   H90       1.0  0.90570  0.28310  0.78300  1.0000 0.1230358742
H   H91       1.0  0.21700  0.50010  0.12270  1.0000 0.1230358742
H   H92       1.0  0.37740  0.09430  0.87730  1.0000 0.1230358742
H   H93       1.0  0.78300  0.90570  0.28310  1.0000 0.1230358742
H   H94       1.0  0.37740  0.28310  0.50010  1.0000 0.1230358742
H   H95       1.0  0.28310  0.50010  0.37740  1.0000 0.1230358742
H   H96       1.0  0.50010  0.37740  0.28310  1.0000 0.1230358742
H   H97       1.0  0.28310  0.37740  0.50010  1.0000 0.1230358742
H   H98       1.0  0.50010  0.28310  0.37740  1.0000 0.1230358742
H   H99       1.0  0.37740  0.50010  0.28310  1.0000 0.1230358742
H   H100      1.0  0.21700  0.12270  0.50010  1.0000 0.1230358742
H   H101      1.0  0.78300  0.28310  0.90570  1.0000 0.1230358742
H   H102      1.0  0.37740  0.87730  0.09430  1.0000 0.1230358742
H   H103      1.0  0.87730  0.09430  0.37740  1.0000 0.1230358742
H   H104      1.0  0.28310  0.90570  0.78300  1.0000 0.1230358742
H   H105      1.0  0.12270  0.50010  0.21700  1.0000 0.1230358742
H   H106      1.0  0.90570  0.78300  0.28310  1.0000 0.1230358742
H   H107      1.0  0.09430  0.37740  0.87730  1.0000 0.1230358742
H   H108      1.0  0.50010  0.21700  0.12270  1.0000 0.1230358742
H   H109      1.0  0.87730  0.78300  0.49990  1.0000 0.1230358742
H   H110      1.0  0.12270  0.62260  0.90570  1.0000 0.1230358742
H   H111      1.0  0.71690  0.21700  0.09430  1.0000 0.1230358742
H   H112      1.0  0.49990  0.87730  0.78300  1.0000 0.1230358742
H   H113      1.0  0.90570  0.12270  0.62260  1.0000 0.1230358742
H   H114      1.0  0.09430  0.71690  0.21700  1.0000 0.1230358742
H   H115      1.0  0.78300  0.49990  0.87730  1.0000 0.1230358742
H   H116      1.0  0.62260  0.90570  0.12270  1.0000 0.1230358742
H   H117      1.0  0.21700  0.09430  0.71690  1.0000 0.1230358742
H   H118      1.0  0.62260  0.71690  0.49990  1.0000 0.1230358742
H   H119      1.0  0.71690  0.49990  0.62260  1.0000 0.1230358742
H   H120      1.0  0.49990  0.62260  0.71690  1.0000 0.1230358742
H   H121      1.0  0.70770  0.70770  0.55220  1.0000 0.1447920798
H   H122      1.0  0.55220  0.70770  0.70770  1.0000 0.1447920798
H   H123      1.0  0.70770  0.55220  0.70770  1.0000 0.1447920798
H   H124      1.0  0.84450  0.84450  0.55220  1.0000 0.1447920798
H   H125      1.0  0.15550  0.70770  0.00000  1.0000 0.1447920798
H   H126      1.0  0.70770  0.15550  0.00000  1.0000 0.1447920798
H   H127      1.0  0.15550  0.00000  0.70770  1.0000 0.1447920798
H   H128      1.0  0.70770  0.00000  0.15550  1.0000 0.1447920798
H   H129      1.0  0.84450  0.55220  0.84450  1.0000 0.1447920798
H   H130      1.0  0.00000  0.15550  0.70770  1.0000 0.1447920798
H   H131      1.0  0.00000  0.70770  0.15550  1.0000 0.1447920798
H   H132      1.0  0.55220  0.84450  0.84450  1.0000 0.1447920798
H   H133      1.0  0.15550  0.15550  0.44780  1.0000 0.1447920798
H   H134      1.0  0.84450  0.29230  0.00000  1.0000 0.1447920798
H   H135      1.0  0.29230  0.84450  0.00000  1.0000 0.1447920798
H   H136      1.0  0.44780  0.15550  0.15550  1.0000 0.1447920798
H   H137      1.0  0.00000  0.84450  0.29230  1.0000 0.1447920798
H   H138      1.0  0.00000  0.29230  0.84450  1.0000 0.1447920798
H   H139      1.0  0.15550  0.44780  0.15550  1.0000 0.1447920798
H   H140      1.0  0.29230  0.00000  0.84450  1.0000 0.1447920798
H   H141      1.0  0.84450  0.00000  0.29230  1.0000 0.1447920798
H   H142      1.0  0.29230  0.29230  0.44780  1.0000 0.1447920798
H   H143      1.0  0.29230  0.44780  0.29230  1.0000 0.1447920798
H   H144      1.0  0.44780  0.29230  0.29230  1.0000 0.1447920798
C   C1        1.0  0.61150  0.38250  0.22900  1.0000 0.4903691161
C   C2        1.0  0.22900  0.61150  0.38250  1.0000 0.4903691161
C   C3        1.0  0.38250  0.22900  0.61150  1.0000 0.4903691161
C   C4        1.0  0.61750  0.84650  0.22900  1.0000 0.4903691161
C   C5        1.0  0.38250  0.61150  0.22900  1.0000 0.4903691161
C   C6        1.0  0.38250  0.15350  0.77100  1.0000 0.4903691161
C   C7        1.0  0.15350  0.77100  0.38250  1.0000 0.4903691161
C   C8        1.0  0.61150  0.22900  0.38250  1.0000 0.4903691161
C   C9        1.0  0.84650  0.22900  0.61750  1.0000 0.4903691161
C   C10       1.0  0.22900  0.38250  0.61150  1.0000 0.4903691161
C   C11       1.0  0.77100  0.38250  0.15350  1.0000 0.4903691161
C   C12       1.0  0.22900  0.61750  0.84650  1.0000 0.4903691161
C   C13       1.0  0.15350  0.38250  0.77100  1.0000 0.4903691161
C   C14       1.0  0.84650  0.61750  0.22900  1.0000 0.4903691161
C   C15       1.0  0.38850  0.61750  0.77100  1.0000 0.4903691161
C   C16       1.0  0.77100  0.15350  0.38250  1.0000 0.4903691161
C   C17       1.0  0.22900  0.84650  0.61750  1.0000 0.4903691161
C   C18       1.0  0.77100  0.38850  0.61750  1.0000 0.4903691161
C   C19       1.0  0.38250  0.77100  0.15350  1.0000 0.4903691161
C   C20       1.0  0.61750  0.22900  0.84650  1.0000 0.4903691161
C   C21       1.0  0.61750  0.77100  0.38850  1.0000 0.4903691161
C   C22       1.0  0.61750  0.38850  0.77100  1.0000 0.4903691161
C   C23       1.0  0.38850  0.77100  0.61750  1.0000 0.4903691161
C   C24       1.0  0.77100  0.61750  0.38850  1.0000 0.4903691161
C   C25       1.0  0.67860  0.40310  0.27550  1.0000 0.2337530524
C   C26       1.0  0.27550  0.67860  0.40310  1.0000 0.2337530524
C   C27       1.0  0.40310  0.27550  0.67860  1.0000 0.2337530524
C   C28       1.0  0.59690  0.87240  0.27550  1.0000 0.2337530524
C   C29       1.0  0.40310  0.67860  0.27550  1.0000 0.2337530524
C   C30       1.0  0.40310  0.12760  0.72450  1.0000 0.2337530524
C   C31       1.0  0.12760  0.72450  0.40310  1.0000 0.2360225308
C   C32       1.0  0.67860  0.27550  0.40310  1.0000 0.2337530524
C   C33       1.0  0.87240  0.27550  0.59690  1.0000 0.2360225308
C   C34       1.0  0.27550  0.40310  0.67860  1.0000 0.2337530524
C   C35       1.0  0.72450  0.40310  0.12760  1.0000 0.2337530524
C   C36       1.0  0.27550  0.59690  0.87240  1.0000 0.2337530524
C   C37       1.0  0.12760  0.40310  0.72450  1.0000 0.2337530524
C   C38       1.0  0.87240  0.59690  0.27550  1.0000 0.2337530524
C   C39       1.0  0.32140  0.59690  0.72450  1.0000 0.2337530524
C   C40       1.0  0.72450  0.12760  0.40310  1.0000 0.2337530524
C   C41       1.0  0.27550  0.87240  0.59690  1.0000 0.2337530524
C   C42       1.0  0.72450  0.32140  0.59690  1.0000 0.2360225308
C   C43       1.0  0.40310  0.72450  0.12760  1.0000 0.2337530524
C   C44       1.0  0.59690  0.27550  0.87240  1.0000 0.2337530524
C   C45       1.0  0.59690  0.72450  0.32140  1.0000 0.2337530524
C   C46       1.0  0.59690  0.32140  0.72450  1.0000 0.2337530524
C   C47       1.0  0.32140  0.72450  0.59690  1.0000 0.2337530524
C   C48       1.0  0.72450  0.59690  0.32140  1.0000 0.2337530524
C   C49       1.0  0.76310  0.46820  0.37370  1.0000 0.1230358742
C   C50       1.0  0.37370  0.76310  0.46820  1.0000 0.1230358742
C   C51       1.0  0.46820  0.37370  0.76310  1.0000 0.1230358742
C   C52       1.0  0.61060  0.90550  0.37370  1.0000 0.1230358742
C   C53       1.0  0.38940  0.76310  0.29490  1.0000 0.1230358742
C   C54       1.0  0.46820  0.09450  0.70510  1.0000 0.1230358742
C   C55       1.0  0.09450  0.70510  0.46820  1.0000 0.1230358742
C   C56       1.0  0.76310  0.29490  0.38940  1.0000 0.1230358742
C   C57       1.0  0.90550  0.37370  0.61060  1.0000 0.1230358742
C   C58       1.0  0.29490  0.38940  0.76310  1.0000 0.1230358742
C   C59       1.0  0.70510  0.46820  0.09450  1.0000 0.1230358742
C   C60       1.0  0.37370  0.61060  0.90550  1.0000 0.1230358742
C   C61       1.0  0.09450  0.38940  0.62630  1.0000 0.1230358742
C   C62       1.0  0.90550  0.53180  0.29490  1.0000 0.1230358742
C   C63       1.0  0.23690  0.61060  0.70510  1.0000 0.1230358742
C   C64       1.0  0.62630  0.09450  0.38940  1.0000 0.1230358742
C   C65       1.0  0.29490  0.90550  0.53180  1.0000 0.1230358742
C   C66       1.0  0.70510  0.23690  0.61060  1.0000 0.1230358742
C   C67       1.0  0.38940  0.62630  0.09450  1.0000 0.1230358742
C   C68       1.0  0.53180  0.29490  0.90550  1.0000 0.1230358742
C   C69       1.0  0.61060  0.70510  0.23690  1.0000 0.1230358742
C   C70       1.0  0.53180  0.23690  0.62630  1.0000 0.1230358742
C   C71       1.0  0.23690  0.62630  0.53180  1.0000 0.1230358742
C   C72       1.0  0.62630  0.53180  0.23690  1.0000 0.128022842
C   C73       1.0  0.23690  0.53180  0.62630  1.0000 0.1230358742
C   C74       1.0  0.62630  0.23690  0.53180  1.0000 0.1230358742
C   C75       1.0  0.53180  0.62630  0.23690  1.0000 0.1230358742
C   C76       1.0  0.38940  0.09450  0.62630  1.0000 0.1230358742
C   C77       1.0  0.61060  0.23690  0.70510  1.0000 0.1230358742
C   C78       1.0  0.53180  0.90550  0.29490  1.0000 0.1230358742
C   C79       1.0  0.90550  0.29490  0.53180  1.0000 0.1230358742
C   C80       1.0  0.23690  0.70510  0.61060  1.0000 0.1230358742
C   C81       1.0  0.09450  0.62630  0.38940  1.0000 0.1230358742
C   C82       1.0  0.70510  0.61060  0.23690  1.0000 0.128022842
C   C83       1.0  0.29490  0.53180  0.90550  1.0000 0.1230358742
C   C84       1.0  0.62630  0.38940  0.09450  1.0000 0.1230358742
C   C85       1.0  0.90550  0.61060  0.37370  1.0000 0.1230358742
C   C86       1.0  0.09450  0.46820  0.70510  1.0000 0.1230358742
C   C87       1.0  0.76310  0.38940  0.29490  1.0000 0.1230358742
C   C88       1.0  0.37370  0.90550  0.61060  1.0000 0.1230358742
C   C89       1.0  0.70510  0.09450  0.46820  1.0000 0.1230358742
C   C90       1.0  0.29490  0.76310  0.38940  1.0000 0.1230358742
C   C91       1.0  0.61060  0.37370  0.90550  1.0000 0.1230358742
C   C92       1.0  0.46820  0.70510  0.09450  1.0000 0.1230358742
C   C93       1.0  0.38940  0.29490  0.76310  1.0000 0.1230358742
C   C94       1.0  0.46820  0.76310  0.37370  1.0000 0.1230358742
C   C95       1.0  0.76310  0.37370  0.46820  1.0000 0.1230358742
C   C96       1.0  0.37370  0.46820  0.76310  1.0000 0.1230358742
C   C97       1.0  0.79450  0.43840  0.35610  1.0000 -0.2084571441
C   C98       1.0  0.35610  0.79450  0.43840  1.0000 -0.2084571441
C   C99       1.0  0.43840  0.35610  0.79450  1.0000 -0.2084571441
C   C100      1.0  0.56160  0.91770  0.35610  1.0000 -0.2084571441
C   C101      1.0  0.43840  0.79450  0.35610  1.0000 -0.2084571441
C   C102      1.0  0.43840  0.08230  0.64390  1.0000 -0.2084571441
C   C103      1.0  0.08230  0.64390  0.43840  1.0000 -0.2084571441
C   C104      1.0  0.79450  0.35610  0.43840  1.0000 -0.2084571441
C   C105      1.0  0.91770  0.35610  0.56160  1.0000 -0.2084571441
C   C106      1.0  0.35610  0.43840  0.79450  1.0000 -0.2084571441
C   C107      1.0  0.64390  0.43840  0.08230  1.0000 -0.2084571441
C   C108      1.0  0.35610  0.56160  0.91770  1.0000 -0.2084571441
C   C109      1.0  0.08230  0.43840  0.64390  1.0000 -0.2084571441
C   C110      1.0  0.91770  0.56160  0.35610  1.0000 -0.2084571441
C   C111      1.0  0.20550  0.56160  0.64390  1.0000 -0.2084571441
C   C112      1.0  0.64390  0.08230  0.43840  1.0000 -0.2084571441
C   C113      1.0  0.35610  0.91770  0.56160  1.0000 -0.2084571441
C   C114      1.0  0.64390  0.20550  0.56160  1.0000 -0.2084571441
C   C115      1.0  0.43840  0.64390  0.08230  1.0000 -0.2084571441
C   C116      1.0  0.56160  0.35610  0.91770  1.0000 -0.2084571441
C   C117      1.0  0.56160  0.64390  0.20550  1.0000 -0.2084571441
C   C118      1.0  0.56160  0.20550  0.64390  1.0000 -0.2084571441
C   C119      1.0  0.20550  0.64390  0.56160  1.0000 -0.2084571441
C   C120      1.0  0.64390  0.56160  0.20550  1.0000 -0.2084571441
C   C121      1.0  0.53960  0.53960  0.32720  1.0000 0.4903691161
C   C122      1.0  0.32720  0.53960  0.53960  1.0000 0.4903691161
C   C123      1.0  0.53960  0.32720  0.53960  1.0000 0.4903691161
C   C124      1.0  0.78760  0.78760  0.32720  1.0000 0.4903691161
C   C125      1.0  0.21240  0.53960  0.00000  1.0000 0.4903691161
C   C126      1.0  0.53960  0.21240  0.00000  1.0000 0.4903691161
C   C127      1.0  0.21240  0.00000  0.53960  1.0000 0.4903691161
C   C128      1.0  0.53960  0.00000  0.21240  1.0000 0.4903691161
C   C129      1.0  0.78760  0.32720  0.78760  1.0000 0.4903691161
C   C130      1.0  0.00000  0.21240  0.53960  1.0000 0.4903691161
C   C131      1.0  0.00000  0.53960  0.21240  1.0000 0.4903691161
C   C132      1.0  0.32720  0.78760  0.78760  1.0000 0.4903691161
C   C133      1.0  0.21240  0.21240  0.67280  1.0000 0.4903691161
C   C134      1.0  0.78760  0.46040  0.00000  1.0000 0.4903691161
C   C135      1.0  0.46040  0.78760  0.00000  1.0000 0.4903691161
C   C136      1.0  0.67280  0.21240  0.21240  1.0000 0.4903691161
C   C137      1.0  0.00000  0.78760  0.46040  1.0000 0.4903691161
C   C138      1.0  0.00000  0.46040  0.78760  1.0000 0.4903691161
C   C139      1.0  0.21240  0.67280  0.21240  1.0000 0.4903691161
C   C140      1.0  0.46040  0.00000  0.78760  1.0000 0.4903691161
C   C141      1.0  0.78760  0.00000  0.46040  1.0000 0.4903691161
C   C142      1.0  0.46040  0.46040  0.67280  1.0000 0.4903691161
C   C143      1.0  0.46040  0.67280  0.46040  1.0000 0.4903691161
C   C144      1.0  0.67280  0.46040  0.46040  1.0000 0.4903691161
C   C145      1.0  0.59140  0.59140  0.39500  1.0000 0.2360225308
C   C146      1.0  0.39500  0.59140  0.59140  1.0000 0.2360225308
C   C147      1.0  0.59140  0.39500  0.59140  1.0000 0.2360225308
C   C148      1.0  0.80360  0.80360  0.39500  1.0000 0.2360225308
C   C149      1.0  0.19640  0.59140  0.00000  1.0000 0.2360225308
C   C150      1.0  0.59140  0.19640  0.00000  1.0000 0.2360225308
C   C151      1.0  0.19640  0.00000  0.59140  1.0000 0.2360225308
C   C152      1.0  0.59140  0.00000  0.19640  1.0000 0.2360225308
C   C153      1.0  0.80360  0.39500  0.80360  1.0000 0.2360225308
C   C154      1.0  0.00000  0.19640  0.59140  1.0000 0.2360225308
C   C155      1.0  0.00000  0.59140  0.19640  1.0000 0.2360225308
C   C156      1.0  0.39500  0.80360  0.80360  1.0000 0.2360225308
C   C157      1.0  0.19640  0.19640  0.60500  1.0000 0.2360225308
C   C158      1.0  0.80360  0.40860  0.00000  1.0000 0.2360225308
C   C159      1.0  0.40860  0.80360  0.00000  1.0000 0.2360225308
C   C160      1.0  0.60500  0.19640  0.19640  1.0000 0.2360225308
C   C161      1.0  0.00000  0.80360  0.40860  1.0000 0.2360225308
C   C162      1.0  0.00000  0.40860  0.80360  1.0000 0.2360225308
C   C163      1.0  0.19640  0.60500  0.19640  1.0000 0.2360225308
C   C164      1.0  0.40860  0.00000  0.80360  1.0000 0.2360225308
C   C165      1.0  0.80360  0.00000  0.40860  1.0000 0.2360225308
C   C166      1.0  0.40860  0.40860  0.60500  1.0000 0.2360225308
C   C167      1.0  0.40860  0.60500  0.40860  1.0000 0.2360225308
C   C168      1.0  0.60500  0.40860  0.40860  1.0000 0.2360225308
C   C169      1.0  0.68280  0.62660  0.47980  1.0000 0.1476204064
C   C170      1.0  0.47980  0.68280  0.62660  1.0000 0.1476204064
C   C171      1.0  0.62660  0.47980  0.68280  1.0000 0.1476204064
C   C172      1.0  0.79700  0.85320  0.47980  1.0000 0.1476204064
C   C173      1.0  0.20300  0.68280  0.05620  1.0000 0.1476204064
C   C174      1.0  0.62660  0.14680  0.94380  1.0000 0.1476204064
C   C175      1.0  0.14680  0.94380  0.62660  1.0000 0.1476204064
C   C176      1.0  0.68280  0.05620  0.20300  1.0000 0.1476204064
C   C177      1.0  0.85320  0.47980  0.79700  1.0000 0.1476204064
C   C178      1.0  0.05620  0.20300  0.68280  1.0000 0.1476204064
C   C179      1.0  0.94380  0.62660  0.14680  1.0000 0.1476204064
C   C180      1.0  0.47980  0.79700  0.85320  1.0000 0.1476204064
C   C181      1.0  0.14680  0.20300  0.52020  1.0000 0.1476204064
C   C182      1.0  0.85320  0.37340  0.05620  1.0000 0.1476204064
C   C183      1.0  0.31720  0.79700  0.94380  1.0000 0.1476204064
C   C184      1.0  0.52020  0.14680  0.20300  1.0000 0.1476204064
C   C185      1.0  0.05620  0.85320  0.37340  1.0000 0.1476204064
C   C186      1.0  0.94380  0.31720  0.79700  1.0000 0.1476204064
C   C187      1.0  0.20300  0.52020  0.14680  1.0000 0.1476204064
C   C188      1.0  0.37340  0.05620  0.85320  1.0000 0.1476204064
C   C189      1.0  0.79700  0.94380  0.31720  1.0000 0.1476204064
C   C190      1.0  0.37340  0.31720  0.52020  1.0000 0.1476204064
C   C191      1.0  0.31720  0.52020  0.37340  1.0000 0.1476204064
C   C192      1.0  0.52020  0.37340  0.31720  1.0000 0.1476204064
C   C193      1.0  0.31720  0.37340  0.52020  1.0000 0.1476204064
C   C194      1.0  0.52020  0.31720  0.37340  1.0000 0.1476204064
C   C195      1.0  0.37340  0.52020  0.31720  1.0000 0.1476204064
C   C196      1.0  0.20300  0.14680  0.52020  1.0000 0.1476204064
C   C197      1.0  0.79700  0.31720  0.94380  1.0000 0.1476204064
C   C198      1.0  0.37340  0.85320  0.05620  1.0000 0.1476204064
C   C199      1.0  0.85320  0.05620  0.37340  1.0000 0.1476204064
C   C200      1.0  0.31720  0.94380  0.79700  1.0000 0.1476204064
C   C201      1.0  0.14680  0.52020  0.20300  1.0000 0.1476204064
C   C202      1.0  0.94380  0.79700  0.31720  1.0000 0.1476204064
C   C203      1.0  0.05620  0.37340  0.85320  1.0000 0.1476204064
C   C204      1.0  0.52020  0.20300  0.14680  1.0000 0.1476204064
C   C205      1.0  0.85320  0.79700  0.47980  1.0000 0.1476204064
C   C206      1.0  0.14680  0.62660  0.94380  1.0000 0.1476204064
C   C207      1.0  0.68280  0.20300  0.05620  1.0000 0.1476204064
C   C208      1.0  0.47980  0.85320  0.79700  1.0000 0.1476204064
C   C209      1.0  0.94380  0.14680  0.62660  1.0000 0.1476204064
C   C210      1.0  0.05620  0.68280  0.20300  1.0000 0.1476204064
C   C211      1.0  0.79700  0.47980  0.85320  1.0000 0.1476204064
C   C212      1.0  0.62660  0.94380  0.14680  1.0000 0.1476204064
C   C213      1.0  0.20300  0.05620  0.68280  1.0000 0.1476204064
C   C214      1.0  0.62660  0.68280  0.47980  1.0000 0.1476204064
C   C215      1.0  0.68280  0.47980  0.62660  1.0000 0.1476204064
C   C216      1.0  0.47980  0.62660  0.68280  1.0000 0.1476204064
C   C217      1.0  0.67730  0.67730  0.51060  1.0000 -0.2191399859
C   C218      1.0  0.51060  0.67730  0.67730  1.0000 -0.2191399859
C   C219      1.0  0.67730  0.51060  0.67730  1.0000 -0.2191399859
C   C220      1.0  0.83330  0.83330  0.51060  1.0000 -0.2191399859
C   C221      1.0  0.16670  0.67730  0.00000  1.0000 -0.2191399859
C   C222      1.0  0.67730  0.16670  0.00000  1.0000 -0.2191399859
C   C223      1.0  0.16670  0.00000  0.67730  1.0000 -0.2191399859
C   C224      1.0  0.67730  0.00000  0.16670  1.0000 -0.2191399859
C   C225      1.0  0.83330  0.51060  0.83330  1.0000 -0.2191399859
C   C226      1.0  0.00000  0.16670  0.67730  1.0000 -0.2191399859
C   C227      1.0  0.00000  0.67730  0.16670  1.0000 -0.2191399859
C   C228      1.0  0.51060  0.83330  0.83330  1.0000 -0.2191399859
C   C229      1.0  0.16670  0.16670  0.48940  1.0000 -0.2191399859
C   C230      1.0  0.83330  0.32270  0.00000  1.0000 -0.2191399859
C   C231      1.0  0.32270  0.83330  0.00000  1.0000 -0.2191399859
C   C232      1.0  0.48940  0.16670  0.16670  1.0000 -0.2191399859
C   C233      1.0  0.00000  0.83330  0.32270  1.0000 -0.2191399859
C   C234      1.0  0.00000  0.32270  0.83330  1.0000 -0.2191399859
C   C235      1.0  0.16670  0.48940  0.16670  1.0000 -0.2191399859
C   C236      1.0  0.32270  0.00000  0.83330  1.0000 -0.2191399859
C   C237      1.0  0.83330  0.00000  0.32270  1.0000 -0.2191399859
C   C238      1.0  0.32270  0.32270  0.48940  1.0000 -0.2191399859
C   C239      1.0  0.32270  0.48940  0.32270  1.0000 -0.2191399859
C   C240      1.0  0.48940  0.32270  0.32270  1.0000 -0.2191399859
N   N1        1.0  0.70400  0.44990  0.33270  1.0000 -0.2802846355
N   N2        1.0  0.33270  0.70400  0.44990  1.0000 -0.2802846355
N   N3        1.0  0.44990  0.33270  0.70400  1.0000 -0.2802846355
N   N4        1.0  0.62870  0.88280  0.33270  1.0000 -0.2802846355
N   N5        1.0  0.37130  0.70400  0.25410  1.0000 -0.2802846355
N   N6        1.0  0.44990  0.11720  0.74590  1.0000 -0.2802846355
N   N7        1.0  0.11720  0.74590  0.44990  1.0000 -0.2802846355
N   N8        1.0  0.70400  0.25410  0.37130  1.0000 -0.2802846355
N   N9        1.0  0.88280  0.33270  0.62870  1.0000 -0.2802846355
N   N10       1.0  0.25410  0.37130  0.70400  1.0000 -0.2802846355
N   N11       1.0  0.74590  0.44990  0.11720  1.0000 -0.2802846355
N   N12       1.0  0.33270  0.62870  0.88280  1.0000 -0.2802846355
N   N13       1.0  0.11720  0.37130  0.66730  1.0000 -0.2802846355
N   N14       1.0  0.88280  0.55010  0.25410  1.0000 -0.2802846355
N   N15       1.0  0.29600  0.62870  0.74590  1.0000 -0.2802846355
N   N16       1.0  0.66730  0.11720  0.37130  1.0000 -0.2802846355
N   N17       1.0  0.25410  0.88280  0.55010  1.0000 -0.2802846355
N   N18       1.0  0.74590  0.29600  0.62870  1.0000 -0.2802846355
N   N19       1.0  0.37130  0.66730  0.11720  1.0000 -0.2802846355
N   N20       1.0  0.55010  0.25410  0.88280  1.0000 -0.2802846355
N   N21       1.0  0.62870  0.74590  0.29600  1.0000 -0.2802846355
N   N22       1.0  0.55010  0.29600  0.66730  1.0000 -0.2802846355
N   N23       1.0  0.29600  0.66730  0.55010  1.0000 -0.2802846355
N   N24       1.0  0.66730  0.55010  0.29600  1.0000 -0.2802846355
N   N25       1.0  0.29600  0.55010  0.66730  1.0000 -0.2802846355
N   N26       1.0  0.66730  0.29600  0.55010  1.0000 -0.2802846355
N   N27       1.0  0.55010  0.66730  0.29600  1.0000 -0.2802846355
N   N28       1.0  0.37130  0.11720  0.66730  1.0000 -0.2802846355
N   N29       1.0  0.62870  0.29600  0.74590  1.0000 -0.2802846355
N   N30       1.0  0.55010  0.88280  0.25410  1.0000 -0.2802846355
N   N31       1.0  0.88280  0.25410  0.55010  1.0000 -0.2802846355
N   N32       1.0  0.29600  0.74590  0.62870  1.0000 -0.2802846355
N   N33       1.0  0.11720  0.66730  0.37130  1.0000 -0.2802846355
N   N34       1.0  0.74590  0.62870  0.29600  1.0000 -0.2802846355
N   N35       1.0  0.25410  0.55010  0.88280  1.0000 -0.2802846355
N   N36       1.0  0.66730  0.37130  0.11720  1.0000 -0.2802846355
N   N37       1.0  0.88280  0.62870  0.33270  1.0000 -0.2802846355
N   N38       1.0  0.11720  0.44990  0.74590  1.0000 -0.2802846355
N   N39       1.0  0.70400  0.37130  0.25410  1.0000 -0.2802846355
N   N40       1.0  0.33270  0.88280  0.62870  1.0000 -0.2802846355
N   N41       1.0  0.74590  0.11720  0.44990  1.0000 -0.2802846355
N   N42       1.0  0.25410  0.70400  0.37130  1.0000 -0.2802846355
N   N43       1.0  0.62870  0.33270  0.88280  1.0000 -0.2802846355
N   N44       1.0  0.44990  0.74590  0.11720  1.0000 -0.2802846355
N   N45       1.0  0.37130  0.25410  0.70400  1.0000 -0.2802846355
N   N46       1.0  0.44990  0.70400  0.33270  1.0000 -0.2802846355
N   N47       1.0  0.70400  0.33270  0.44990  1.0000 -0.2802846355
N   N48       1.0  0.33270  0.44990  0.70400  1.0000 -0.2802846355
N   N49       1.0  0.63900  0.58410  0.42130  1.0000 -0.2802846355
N   N50       1.0  0.42130  0.63900  0.58410  1.0000 -0.2802846355
N   N51       1.0  0.58410  0.42130  0.63900  1.0000 -0.2802846355
N   N52       1.0  0.78230  0.83720  0.42130  1.0000 -0.2802846355
N   N53       1.0  0.21770  0.63900  0.05490  1.0000 -0.2802846355
N   N54       1.0  0.58410  0.16280  0.94510  1.0000 -0.2802846355
N   N55       1.0  0.16280  0.94510  0.58410  1.0000 -0.2802846355
N   N56       1.0  0.63900  0.05490  0.21770  1.0000 -0.2802846355
N   N57       1.0  0.83720  0.42130  0.78230  1.0000 -0.2802846355
N   N58       1.0  0.05490  0.21770  0.63900  1.0000 -0.2802846355
N   N59       1.0  0.94510  0.58410  0.16280  1.0000 -0.2802846355
N   N60       1.0  0.42130  0.78230  0.83720  1.0000 -0.2802846355
N   N61       1.0  0.16280  0.21770  0.57870  1.0000 -0.2802846355
N   N62       1.0  0.83720  0.41590  0.05490  1.0000 -0.2802846355
N   N63       1.0  0.36100  0.78230  0.94510  1.0000 -0.2802846355
N   N64       1.0  0.57870  0.16280  0.21770  1.0000 -0.2802846355
N   N65       1.0  0.05490  0.83720  0.41590  1.0000 -0.2802846355
N   N66       1.0  0.94510  0.36100  0.78230  1.0000 -0.2802846355
N   N67       1.0  0.21770  0.57870  0.16280  1.0000 -0.2802846355
N   N68       1.0  0.41590  0.05490  0.83720  1.0000 -0.2802846355
N   N69       1.0  0.78230  0.94510  0.36100  1.0000 -0.2802846355
N   N70       1.0  0.41590  0.36100  0.57870  1.0000 -0.2802846355
N   N71       1.0  0.36100  0.57870  0.41590  1.0000 -0.2802846355
N   N72       1.0  0.57870  0.41590  0.36100  1.0000 -0.2802846355
N   N73       1.0  0.36100  0.41590  0.57870  1.0000 -0.2802846355
N   N74       1.0  0.57870  0.36100  0.41590  1.0000 -0.2802846355
N   N75       1.0  0.41590  0.57870  0.36100  1.0000 -0.2802846355
N   N76       1.0  0.21770  0.16280  0.57870  1.0000 -0.2802846355
N   N77       1.0  0.78230  0.36100  0.94510  1.0000 -0.2802846355
N   N78       1.0  0.41590  0.83720  0.05490  1.0000 -0.2802846355
N   N79       1.0  0.83720  0.05490  0.41590  1.0000 -0.2802846355
N   N80       1.0  0.36100  0.94510  0.78230  1.0000 -0.2802846355
N   N81       1.0  0.16280  0.57870  0.21770  1.0000 -0.2802846355
N   N82       1.0  0.94510  0.78230  0.36100  1.0000 -0.2802846355
N   N83       1.0  0.05490  0.41590  0.83720  1.0000 -0.2802846355
N   N84       1.0  0.57870  0.21770  0.16280  1.0000 -0.2802846355
N   N85       1.0  0.83720  0.78230  0.42130  1.0000 -0.2802846355
N   N86       1.0  0.16280  0.58410  0.94510  1.0000 -0.2802846355
N   N87       1.0  0.63900  0.21770  0.05490  1.0000 -0.2802846355
N   N88       1.0  0.42130  0.83720  0.78230  1.0000 -0.2802846355
N   N89       1.0  0.94510  0.16280  0.58410  1.0000 -0.2802846355
N   N90       1.0  0.05490  0.63900  0.21770  1.0000 -0.2802846355
N   N91       1.0  0.78230  0.42130  0.83720  1.0000 -0.2802846355
N   N92       1.0  0.58410  0.94510  0.16280  1.0000 -0.2802846355
N   N93       1.0  0.21770  0.05490  0.63900  1.0000 -0.2802846355
N   N94       1.0  0.58410  0.63900  0.42130  1.0000 -0.2802846355
N   N95       1.0  0.63900  0.42130  0.58410  1.0000 -0.2802846355
N   N96       1.0  0.42130  0.58410  0.63900  1.0000 -0.2802846355
O   O1        1.0  0.58656  0.41208  0.24844  1.0000 -0.5169298154
O   O2        1.0  0.24844  0.58656  0.41208  1.0000 -0.5169298154
O   O3        1.0  0.41208  0.24844  0.58656  1.0000 -0.5169298154
O   O4        1.0  0.66188  0.83636  0.24844  1.0000 -0.5169298154
O   O5        1.0  0.33812  0.58656  0.17448  1.0000 -0.5169298154
O   O6        1.0  0.41208  0.16364  0.82552  1.0000 -0.5169298154
O   O7        1.0  0.16364  0.82552  0.41208  1.0000 -0.5169298154
O   O8        1.0  0.58656  0.17448  0.33812  1.0000 -0.5169298154
O   O9        1.0  0.83636  0.24844  0.66188  1.0000 -0.5169298154
O   O10       1.0  0.17448  0.33812  0.58656  1.0000 -0.5169298154
O   O11       1.0  0.82552  0.41208  0.16364  1.0000 -0.5169298154
O   O12       1.0  0.24844  0.66188  0.83636  1.0000 -0.5169298154
O   O13       1.0  0.16364  0.33812  0.75156  1.0000 -0.5169298154
O   O14       1.0  0.83636  0.58792  0.17448  1.0000 -0.5169298154
O   O15       1.0  0.41344  0.66188  0.82552  1.0000 -0.5169298154
O   O16       1.0  0.75156  0.16364  0.33812  1.0000 -0.5169298154
O   O17       1.0  0.17448  0.83636  0.58792  1.0000 -0.5169298154
O   O18       1.0  0.82552  0.41344  0.66188  1.0000 -0.5169298154
O   O19       1.0  0.33812  0.75156  0.16364  1.0000 -0.5169298154
O   O20       1.0  0.58792  0.17448  0.83636  1.0000 -0.5169298154
O   O21       1.0  0.66188  0.82552  0.41344  1.0000 -0.5169298154
O   O22       1.0  0.58792  0.41344  0.75156  1.0000 -0.5169298154
O   O23       1.0  0.41344  0.75156  0.58792  1.0000 -0.5169298154
O   O24       1.0  0.75156  0.58792  0.41344  1.0000 -0.5169298154
O   O25       1.0  0.41344  0.58792  0.75156  1.0000 -0.5169298154
O   O26       1.0  0.75156  0.41344  0.58792  1.0000 -0.5169298154
O   O27       1.0  0.58792  0.75156  0.41344  1.0000 -0.5169298154
O   O28       1.0  0.33812  0.16364  0.75156  1.0000 -0.5169298154
O   O29       1.0  0.66188  0.41344  0.82552  1.0000 -0.5169298154
O   O30       1.0  0.58792  0.83636  0.17448  1.0000 -0.5169298154
O   O31       1.0  0.83636  0.17448  0.58792  1.0000 -0.5169298154
O   O32       1.0  0.41344  0.82552  0.66188  1.0000 -0.5169298154
O   O33       1.0  0.16364  0.75156  0.33812  1.0000 -0.5169298154
O   O34       1.0  0.82552  0.66188  0.41344  1.0000 -0.5169298154
O   O35       1.0  0.17448  0.58792  0.83636  1.0000 -0.5169298154
O   O36       1.0  0.75156  0.33812  0.16364  1.0000 -0.5169298154
O   O37       1.0  0.83636  0.66188  0.24844  1.0000 -0.5169298154
O   O38       1.0  0.16364  0.41208  0.82552  1.0000 -0.5169298154
O   O39       1.0  0.58656  0.33812  0.17448  1.0000 -0.5169298154
O   O40       1.0  0.24844  0.83636  0.66188  1.0000 -0.5169298154
O   O41       1.0  0.82552  0.16364  0.41208  1.0000 -0.5169298154
O   O42       1.0  0.17448  0.58656  0.33812  1.0000 -0.5169298154
O   O43       1.0  0.66188  0.24844  0.83636  1.0000 -0.5169298154
O   O44       1.0  0.41208  0.82552  0.16364  1.0000 -0.5169298154
O   O45       1.0  0.33812  0.17448  0.58656  1.0000 -0.5169298154
O   O46       1.0  0.41208  0.58656  0.24844  1.0000 -0.5169298154
O   O47       1.0  0.58656  0.24844  0.41208  1.0000 -0.5169298154
O   O48       1.0  0.24844  0.41208  0.58656  1.0000 -0.5169298154
O   O49       1.0  0.54727  0.49528  0.30269  1.0000 -0.5032075347
O   O50       1.0  0.30269  0.54727  0.49528  1.0000 -0.5032075347
O   O51       1.0  0.49528  0.30269  0.54727  1.0000 -0.5032075347
O   O52       1.0  0.75542  0.80741  0.30269  1.0000 -0.5032075347
O   O53       1.0  0.24458  0.54727  0.05199  1.0000 -0.5032075347
O   O54       1.0  0.49528  0.19259  0.94801  1.0000 -0.5032075347
O   O55       1.0  0.19259  0.94801  0.49528  1.0000 -0.5032075347
O   O56       1.0  0.54727  0.05199  0.24458  1.0000 -0.5032075347
O   O57       1.0  0.80741  0.30269  0.75542  1.0000 -0.5032075347
O   O58       1.0  0.05199  0.24458  0.54727  1.0000 -0.5032075347
O   O59       1.0  0.94801  0.49528  0.19259  1.0000 -0.5032075347
O   O60       1.0  0.30269  0.75542  0.80741  1.0000 -0.5032075347
O   O61       1.0  0.19259  0.24458  0.69731  1.0000 -0.5032075347
O   O62       1.0  0.80741  0.50472  0.05199  1.0000 -0.5032075347
O   O63       1.0  0.45273  0.75542  0.94801  1.0000 -0.5032075347
O   O64       1.0  0.69731  0.19259  0.24458  1.0000 -0.5032075347
O   O65       1.0  0.05199  0.80741  0.50472  1.0000 -0.5032075347
O   O66       1.0  0.94801  0.45273  0.75542  1.0000 -0.5032075347
O   O67       1.0  0.24458  0.69731  0.19259  1.0000 -0.5032075347
O   O68       1.0  0.50472  0.05199  0.80741  1.0000 -0.5032075347
O   O69       1.0  0.75542  0.94801  0.45273  1.0000 -0.5032075347
O   O70       1.0  0.50472  0.45273  0.69731  1.0000 -0.5032075347
O   O71       1.0  0.45273  0.69731  0.50472  1.0000 -0.5032075347
O   O72       1.0  0.69731  0.50472  0.45273  1.0000 -0.5032075347
O   O73       1.0  0.45273  0.50472  0.69731  1.0000 -0.5032075347
O   O74       1.0  0.69731  0.45273  0.50472  1.0000 -0.5032075347
O   O75       1.0  0.50472  0.69731  0.45273  1.0000 -0.5032075347
O   O76       1.0  0.24458  0.19259  0.69731  1.0000 -0.5032075347
O   O77       1.0  0.75542  0.45273  0.94801  1.0000 -0.5032075347
O   O78       1.0  0.50472  0.80741  0.05199  1.0000 -0.5032075347
O   O79       1.0  0.80741  0.05199  0.50472  1.0000 -0.5032075347
O   O80       1.0  0.45273  0.94801  0.75542  1.0000 -0.5032075347
O   O81       1.0  0.19259  0.69731  0.24458  1.0000 -0.5032075347
O   O82       1.0  0.94801  0.75542  0.45273  1.0000 -0.5032075347
O   O83       1.0  0.05199  0.50472  0.80741  1.0000 -0.5032075347
O   O84       1.0  0.69731  0.24458  0.19259  1.0000 -0.5032075347
O   O85       1.0  0.80741  0.75542  0.30269  1.0000 -0.5032075347
O   O86       1.0  0.19259  0.49528  0.94801  1.0000 -0.5032075347
O   O87       1.0  0.54727  0.24458  0.05199  1.0000 -0.5032075347
O   O88       1.0  0.30269  0.80741  0.75542  1.0000 -0.5032075347
O   O89       1.0  0.94801  0.19259  0.49528  1.0000 -0.5032075347
O   O90       1.0  0.05199  0.54727  0.24458  1.0000 -0.5032075347
O   O91       1.0  0.75542  0.30269  0.80741  1.0000 -0.5032075347
O   O92       1.0  0.49528  0.94801  0.19259  1.0000 -0.5032075347
O   O93       1.0  0.24458  0.05199  0.54727  1.0000 -0.5032075347
O   O94       1.0  0.49528  0.54727  0.30269  1.0000 -0.5032075347
O   O95       1.0  0.54727  0.30269  0.49528  1.0000 -0.5032075347
O   O96       1.0  0.30269  0.49528  0.54727  1.0000 -0.5032075347
