# DDEC6 charges by PACMAN v1.1 (https://github.com/mtap-research/PACMAN-charge/)
data_2008[LaCu][stp]3[FSR]4
_chemical_formula_sum              "La4 Cu6 H60 C48 N12 O48"
_cell_length_a       13.5039
_cell_length_b       13.5039
_cell_length_c       14.897
_cell_angle_alpha    90
_cell_angle_beta     90
_cell_angle_gamma    120

_symmetry_space_group_name_H-M    "P 1"
_symmetry_Int_Tables_number       1

loop_
  _symmetry_equiv_pos_as_xyz
  'x, y, z'

loop_
  _atom_site_type_symbol
  _atom_site_label
  _atom_site_symmetry_multiplicity
  _atom_site_fract_x
  _atom_site_fract_y
  _atom_site_fract_z
  _atom_site_occupancy
  _atom_site_charge
La  La1       1.0  0.33333  0.66667  0.66910  1.0000 1.8543386037
La  La2       1.0  0.66667  0.33333  0.83090  1.0000 1.8543386037
La  La3       1.0  0.66667  0.33333  0.33090  1.0000 1.8543386037
La  La4       1.0  0.33333  0.66667  0.16910  1.0000 1.8543386037
Cu  Cu1       1.0  0.50000  0.50000  0.50000  1.0000 0.7376909926
Cu  Cu2       1.0  0.50000  0.00000  0.50000  1.0000 0.7376909926
Cu  Cu3       1.0  0.00000  0.50000  0.50000  1.0000 0.7376909926
Cu  Cu4       1.0  0.50000  0.50000  0.00000  1.0000 0.7376909926
Cu  Cu5       1.0  0.00000  0.50000  0.00000  1.0000 0.7376909926
Cu  Cu6       1.0  0.50000  0.00000  0.00000  1.0000 0.7376909926
H   H1        1.0  0.20060  0.34350  0.46600  1.0000 0.1389858331
H   H2        1.0  0.65650  0.85710  0.46600  1.0000 0.1389858331
H   H3        1.0  0.14290  0.79940  0.46600  1.0000 0.1389858331
H   H4        1.0  0.34350  0.20060  0.03400  1.0000 0.1389858331
H   H5        1.0  0.85710  0.65650  0.03400  1.0000 0.1389858331
H   H6        1.0  0.79940  0.14290  0.03400  1.0000 0.1389858331
H   H7        1.0  0.79940  0.65650  0.53400  1.0000 0.1389858331
H   H8        1.0  0.34350  0.14290  0.53400  1.0000 0.1389858331
H   H9        1.0  0.85710  0.20060  0.53400  1.0000 0.1389858331
H   H10       1.0  0.65650  0.79940  0.96600  1.0000 0.1389858331
H   H11       1.0  0.14290  0.34350  0.96600  1.0000 0.1389858331
H   H12       1.0  0.20060  0.85710  0.96600  1.0000 0.1389858331
H   H13       1.0  0.24630  0.28880  0.54550  1.0000 0.1389858331
H   H14       1.0  0.71120  0.95750  0.54550  1.0000 0.1389858331
H   H15       1.0  0.04250  0.75370  0.54550  1.0000 0.1389858331
H   H16       1.0  0.28880  0.24630  0.95450  1.0000 0.1389858331
H   H17       1.0  0.95750  0.71120  0.95450  1.0000 0.1389858331
H   H18       1.0  0.75370  0.04250  0.95450  1.0000 0.1389858331
H   H19       1.0  0.75370  0.71120  0.45450  1.0000 0.1389858331
H   H20       1.0  0.28880  0.04250  0.45450  1.0000 0.1389858331
H   H21       1.0  0.95750  0.24630  0.45450  1.0000 0.1389858331
H   H22       1.0  0.71120  0.75370  0.04550  1.0000 0.1389858331
H   H23       1.0  0.04250  0.28880  0.04550  1.0000 0.1389858331
H   H24       1.0  0.24630  0.95750  0.04550  1.0000 0.1389858331
H   H25       1.0  0.27380  0.46280  0.37990  1.0000 0.1508430788
H   H26       1.0  0.53720  0.81100  0.37990  1.0000 0.1508430788
H   H27       1.0  0.18900  0.72620  0.37990  1.0000 0.1508430788
H   H28       1.0  0.46280  0.27380  0.12010  1.0000 0.1508430788
H   H29       1.0  0.81100  0.53720  0.12010  1.0000 0.1508430788
H   H30       1.0  0.72620  0.18900  0.12010  1.0000 0.1508430788
H   H31       1.0  0.72620  0.53720  0.62010  1.0000 0.1508430788
H   H32       1.0  0.46280  0.18900  0.62010  1.0000 0.1508430788
H   H33       1.0  0.81100  0.27380  0.62010  1.0000 0.1508430788
H   H34       1.0  0.53720  0.72620  0.87990  1.0000 0.1508430788
H   H35       1.0  0.18900  0.46280  0.87990  1.0000 0.1508430788
H   H36       1.0  0.27380  0.81100  0.87990  1.0000 0.1508430788
H   H37       1.0  0.32970  0.39750  0.31590  1.0000 0.1508430788
H   H38       1.0  0.60250  0.93220  0.31590  1.0000 0.1508430788
H   H39       1.0  0.06780  0.67030  0.31590  1.0000 0.1508430788
H   H40       1.0  0.39750  0.32970  0.18410  1.0000 0.1508430788
H   H41       1.0  0.93220  0.60250  0.18410  1.0000 0.1508430788
H   H42       1.0  0.67030  0.06780  0.18410  1.0000 0.1508430788
H   H43       1.0  0.67030  0.60250  0.68410  1.0000 0.1508430788
H   H44       1.0  0.39750  0.06780  0.68410  1.0000 0.1508430788
H   H45       1.0  0.93220  0.32970  0.68410  1.0000 0.1508430788
H   H46       1.0  0.60250  0.67030  0.81590  1.0000 0.1508430788
H   H47       1.0  0.06780  0.39750  0.81590  1.0000 0.1508430788
H   H48       1.0  0.32970  0.93220  0.81590  1.0000 0.1508430788
H   H49       1.0  0.35210  0.32890  0.42420  1.0000 0.25586954
H   H50       1.0  0.67110  0.02320  0.42420  1.0000 0.25586954
H   H51       1.0  0.97680  0.64790  0.42420  1.0000 0.25586954
H   H52       1.0  0.32890  0.35210  0.07580  1.0000 0.25586954
H   H53       1.0  0.02320  0.67110  0.07580  1.0000 0.25586954
H   H54       1.0  0.64790  0.97680  0.07580  1.0000 0.25586954
H   H55       1.0  0.64790  0.67110  0.57580  1.0000 0.25586954
H   H56       1.0  0.32890  0.97680  0.57580  1.0000 0.25586954
H   H57       1.0  0.02320  0.35210  0.57580  1.0000 0.25586954
H   H58       1.0  0.67110  0.64790  0.92420  1.0000 0.25586954
H   H59       1.0  0.97680  0.32890  0.92420  1.0000 0.25586954
H   H60       1.0  0.35210  0.02320  0.92420  1.0000 0.25586954
C   C1        1.0  0.27300  0.45290  0.56620  1.0000 0.6070111567
C   C2        1.0  0.54710  0.82010  0.56620  1.0000 0.6070111567
C   C3        1.0  0.17990  0.72700  0.56620  1.0000 0.6070111567
C   C4        1.0  0.45290  0.27300  0.93380  1.0000 0.6070111567
C   C5        1.0  0.82010  0.54710  0.93380  1.0000 0.6070111567
C   C6        1.0  0.72700  0.17990  0.93380  1.0000 0.6070111567
C   C7        1.0  0.72700  0.54710  0.43380  1.0000 0.6070111567
C   C8        1.0  0.45290  0.17990  0.43380  1.0000 0.6070111567
C   C9        1.0  0.82010  0.27300  0.43380  1.0000 0.6070111567
C   C10       1.0  0.54710  0.72700  0.06620  1.0000 0.6070111567
C   C11       1.0  0.17990  0.45290  0.06620  1.0000 0.6070111567
C   C12       1.0  0.27300  0.82010  0.06620  1.0000 0.6070111567
C   C13       1.0  0.25610  0.35200  0.50900  1.0000 -0.2498009776
C   C14       1.0  0.64800  0.90410  0.50900  1.0000 -0.2498009776
C   C15       1.0  0.09590  0.74390  0.50900  1.0000 -0.2498009776
C   C16       1.0  0.35200  0.25610  0.99100  1.0000 -0.2498009776
C   C17       1.0  0.90410  0.64800  0.99100  1.0000 -0.2498009776
C   C18       1.0  0.74390  0.09590  0.99100  1.0000 -0.2498009776
C   C19       1.0  0.74390  0.64800  0.49100  1.0000 -0.2498009776
C   C20       1.0  0.35200  0.09590  0.49100  1.0000 -0.2498009776
C   C21       1.0  0.90410  0.25610  0.49100  1.0000 -0.2498009776
C   C22       1.0  0.64800  0.74390  0.00900  1.0000 -0.2498009776
C   C23       1.0  0.09590  0.35200  0.00900  1.0000 -0.2498009776
C   C24       1.0  0.25610  0.90410  0.00900  1.0000 -0.2498009776
C   C25       1.0  0.33300  0.44590  0.36380  1.0000 -0.2655459171
C   C26       1.0  0.55410  0.88710  0.36380  1.0000 -0.2655459171
C   C27       1.0  0.11290  0.66700  0.36380  1.0000 -0.2655459171
C   C28       1.0  0.44590  0.33300  0.13620  1.0000 -0.2655459171
C   C29       1.0  0.88710  0.55410  0.13620  1.0000 -0.2655459171
C   C30       1.0  0.66700  0.11290  0.13620  1.0000 -0.2655459171
C   C31       1.0  0.66700  0.55410  0.63620  1.0000 -0.2655459171
C   C32       1.0  0.44590  0.11290  0.63620  1.0000 -0.2655459171
C   C33       1.0  0.88710  0.33300  0.63620  1.0000 -0.2655459171
C   C34       1.0  0.55410  0.66700  0.86380  1.0000 -0.2655459171
C   C35       1.0  0.11290  0.44590  0.86380  1.0000 -0.2655459171
C   C36       1.0  0.33300  0.88710  0.86380  1.0000 -0.2655459171
C   C37       1.0  0.43920  0.56040  0.34310  1.0000 0.637312966
C   C38       1.0  0.43960  0.87880  0.34310  1.0000 0.637312966
C   C39       1.0  0.12120  0.56080  0.34310  1.0000 0.637312966
C   C40       1.0  0.56040  0.43920  0.15690  1.0000 0.637312966
C   C41       1.0  0.87880  0.43960  0.15690  1.0000 0.637312966
C   C42       1.0  0.56080  0.12120  0.15690  1.0000 0.637312966
C   C43       1.0  0.56080  0.43960  0.65690  1.0000 0.637312966
C   C44       1.0  0.56040  0.12120  0.65690  1.0000 0.637312966
C   C45       1.0  0.87880  0.43920  0.65690  1.0000 0.637312966
C   C46       1.0  0.43960  0.56080  0.84310  1.0000 0.637312966
C   C47       1.0  0.12120  0.56040  0.84310  1.0000 0.637312966
C   C48       1.0  0.43920  0.87880  0.84310  1.0000 0.637312966
N   N1        1.0  0.34920  0.38940  0.44270  1.0000 -0.2498009776
N   N2        1.0  0.61060  0.95980  0.44270  1.0000 -0.2498009776
N   N3        1.0  0.04020  0.65080  0.44270  1.0000 -0.2498009776
N   N4        1.0  0.38940  0.34920  0.05730  1.0000 -0.2498009776
N   N5        1.0  0.95980  0.61060  0.05730  1.0000 -0.2498009776
N   N6        1.0  0.65080  0.04020  0.05730  1.0000 -0.2498009776
N   N7        1.0  0.65080  0.61060  0.55730  1.0000 -0.2498009776
N   N8        1.0  0.38940  0.04020  0.55730  1.0000 -0.2498009776
N   N9        1.0  0.95980  0.34920  0.55730  1.0000 -0.2498009776
N   N10       1.0  0.61060  0.65080  0.94270  1.0000 -0.2498009776
N   N11       1.0  0.04020  0.38940  0.94270  1.0000 -0.2498009776
N   N12       1.0  0.34920  0.95980  0.94270  1.0000 -0.2498009776
O   O1        1.0  0.36420  0.54720  0.55620  1.0000 -0.6154181188
O   O2        1.0  0.45280  0.81700  0.55620  1.0000 -0.6154181188
O   O3        1.0  0.18300  0.63580  0.55620  1.0000 -0.6154181188
O   O4        1.0  0.54720  0.36420  0.94380  1.0000 -0.6154181188
O   O5        1.0  0.81700  0.45280  0.94380  1.0000 -0.6154181188
O   O6        1.0  0.63580  0.18300  0.94380  1.0000 -0.6154181188
O   O7        1.0  0.63580  0.45280  0.44380  1.0000 -0.6154181188
O   O8        1.0  0.54720  0.18300  0.44380  1.0000 -0.6154181188
O   O9        1.0  0.81700  0.36420  0.44380  1.0000 -0.6154181188
O   O10       1.0  0.45280  0.63580  0.05620  1.0000 -0.6154181188
O   O11       1.0  0.18300  0.54720  0.05620  1.0000 -0.6154181188
O   O12       1.0  0.36420  0.81700  0.05620  1.0000 -0.6154181188
O   O13       1.0  0.19840  0.43930  0.62240  1.0000 -0.5846557444
O   O14       1.0  0.56070  0.75910  0.62240  1.0000 -0.5846557444
O   O15       1.0  0.24090  0.80160  0.62240  1.0000 -0.5846557444
O   O16       1.0  0.43930  0.19840  0.87760  1.0000 -0.5846557444
O   O17       1.0  0.75910  0.56070  0.87760  1.0000 -0.5846557444
O   O18       1.0  0.80160  0.24090  0.87760  1.0000 -0.5846557444
O   O19       1.0  0.80160  0.56070  0.37760  1.0000 -0.5846557444
O   O20       1.0  0.43930  0.24090  0.37760  1.0000 -0.5846557444
O   O21       1.0  0.75910  0.19840  0.37760  1.0000 -0.5846557444
O   O22       1.0  0.56070  0.80160  0.12240  1.0000 -0.5846557444
O   O23       1.0  0.24090  0.43930  0.12240  1.0000 -0.5846557444
O   O24       1.0  0.19840  0.75910  0.12240  1.0000 -0.5846557444
O   O25       1.0  0.52330  0.59730  0.39490  1.0000 -0.5066662059
O   O26       1.0  0.40270  0.92600  0.39490  1.0000 -0.5066662059
O   O27       1.0  0.07400  0.47670  0.39490  1.0000 -0.5066662059
O   O28       1.0  0.59730  0.52330  0.10510  1.0000 -0.5066662059
O   O29       1.0  0.92600  0.40270  0.10510  1.0000 -0.5066662059
O   O30       1.0  0.47670  0.07400  0.10510  1.0000 -0.5066662059
O   O31       1.0  0.47670  0.40270  0.60510  1.0000 -0.5066662059
O   O32       1.0  0.59730  0.07400  0.60510  1.0000 -0.5066662059
O   O33       1.0  0.92600  0.52330  0.60510  1.0000 -0.5066662059
O   O34       1.0  0.40270  0.47670  0.89490  1.0000 -0.5066662059
O   O35       1.0  0.07400  0.59730  0.89490  1.0000 -0.5066662059
O   O36       1.0  0.52330  0.92600  0.89490  1.0000 -0.5066662059
O   O37       1.0  0.43690  0.61320  0.27560  1.0000 -0.5947361415
O   O38       1.0  0.38680  0.82370  0.27560  1.0000 -0.5951819843
O   O39       1.0  0.17630  0.56310  0.27560  1.0000 -0.5947361415
O   O40       1.0  0.61320  0.43690  0.22440  1.0000 -0.5951819843
O   O41       1.0  0.82370  0.38680  0.22440  1.0000 -0.5951819843
O   O42       1.0  0.56310  0.17630  0.22440  1.0000 -0.5951819843
O   O43       1.0  0.56310  0.38680  0.72440  1.0000 -0.5947361415
O   O44       1.0  0.61320  0.17630  0.72440  1.0000 -0.5947361415
O   O45       1.0  0.82370  0.43690  0.72440  1.0000 -0.5947361415
O   O46       1.0  0.38680  0.56310  0.77560  1.0000 -0.5947361415
O   O47       1.0  0.17630  0.61320  0.77560  1.0000 -0.5947361415
O   O48       1.0  0.43690  0.82370  0.77560  1.0000 -0.5951819843
