# DDEC6 charges by PACMAN v1.1 (https://github.com/mtap-research/PACMAN-charge/)
data_2008[ZnSi][bnn]3[FSR]1
_chemical_formula_sum              "Zn8 Si6 H132 C168 O28"
_cell_length_a       14.8288
_cell_length_b       14.8288
_cell_length_c       28.0555
_cell_angle_alpha    83.0379
_cell_angle_beta     96.9621
_cell_angle_gamma    131.889

_symmetry_space_group_name_H-M    "P 1"
_symmetry_Int_Tables_number       1

loop_
  _symmetry_equiv_pos_as_xyz
  'x, y, z'

loop_
  _atom_site_type_symbol
  _atom_site_label
  _atom_site_symmetry_multiplicity
  _atom_site_fract_x
  _atom_site_fract_y
  _atom_site_fract_z
  _atom_site_occupancy
  _atom_site_charge
Zn  Zn1       1.0  0.49877  0.07659  0.25795  1.0000 0.9719133131
Zn  Zn2       1.0  0.07659  0.49877  0.24205  1.0000 0.9812593413
Zn  Zn3       1.0  0.50123  0.92341  0.74205  1.0000 0.9719133131
Zn  Zn4       1.0  0.92341  0.50123  0.75795  1.0000 0.9719133131
Zn  Zn5       1.0  0.34206  0.78428  0.23521  1.0000 0.9812593413
Zn  Zn6       1.0  0.78428  0.34206  0.26479  1.0000 0.987554913
Zn  Zn7       1.0  0.65794  0.21572  0.76479  1.0000 0.9812593413
Zn  Zn8       1.0  0.21572  0.65794  0.73521  1.0000 0.987554913
Si  Si1       1.0  0.34426  0.10450  0.95115  1.0000 0.6329076939
Si  Si2       1.0  0.10450  0.34426  0.54885  1.0000 0.6329076939
Si  Si3       1.0  0.65574  0.89550  0.04885  1.0000 0.6329076939
Si  Si4       1.0  0.89550  0.65574  0.45115  1.0000 0.6329076939
Si  Si5       1.0  0.09711  0.09711  0.25000  1.0000 0.6425908558
Si  Si6       1.0  0.90289  0.90289  0.75000  1.0000 0.6460035794
H   H1        1.0  0.37220  0.19400  0.04420  1.0000 0.1193873584
H   H2        1.0  0.19400  0.37220  0.45580  1.0000 0.1193873584
H   H3        1.0  0.62780  0.80600  0.95580  1.0000 0.1193873584
H   H4        1.0  0.80600  0.62780  0.54420  1.0000 0.1193873584
H   H5        1.0  0.38550  0.14130  0.12410  1.0000 0.1299368488
H   H6        1.0  0.14130  0.38550  0.37590  1.0000 0.1299368488
H   H7        1.0  0.61450  0.85870  0.87590  1.0000 0.1299368488
H   H8        1.0  0.85870  0.61450  0.62410  1.0000 0.1299368488
H   H9        1.0  0.30570  0.84290  0.08610  1.0000 0.1193873584
H   H10       1.0  0.84290  0.30570  0.41390  1.0000 0.1193873584
H   H11       1.0  0.69430  0.15710  0.91390  1.0000 0.1193873584
H   H12       1.0  0.15710  0.69430  0.58610  1.0000 0.1193873584
H   H13       1.0  0.29500  0.89540  0.00630  1.0000 0.1193873584
H   H14       1.0  0.89540  0.29500  0.49370  1.0000 0.1193873584
H   H15       1.0  0.70500  0.10460  0.99370  1.0000 0.1193873584
H   H16       1.0  0.10460  0.70500  0.50630  1.0000 0.1193873584
H   H17       1.0  0.57600  0.23620  0.00820  1.0000 0.1038821168
H   H18       1.0  0.23620  0.57600  0.49180  1.0000 0.1038821168
H   H19       1.0  0.42400  0.76380  0.99180  1.0000 0.1038821168
H   H20       1.0  0.76380  0.42400  0.50820  1.0000 0.1038821168
H   H21       1.0  0.77810  0.36630  0.99690  1.0000 0.1193873584
H   H22       1.0  0.36630  0.77810  0.50310  1.0000 0.1193873584
H   H23       1.0  0.22190  0.63370  0.00310  1.0000 0.1193873584
H   H24       1.0  0.63370  0.22190  0.49690  1.0000 0.1193873584
H   H25       1.0  0.71140  0.38560  0.85680  1.0000 0.1299368488
H   H26       1.0  0.38560  0.71140  0.64320  1.0000 0.1299368488
H   H27       1.0  0.28860  0.61440  0.14320  1.0000 0.1299368488
H   H28       1.0  0.61440  0.28860  0.35680  1.0000 0.1299368488
H   H29       1.0  0.50410  0.24270  0.86690  1.0000 0.1093221037
H   H30       1.0  0.24270  0.50410  0.63310  1.0000 0.1093221037
H   H31       1.0  0.49590  0.75730  0.13310  1.0000 0.1093221037
H   H32       1.0  0.75730  0.49590  0.36690  1.0000 0.1093221037
H   H33       1.0  0.91740  0.44700  0.88940  1.0000 0.1511721179
H   H34       1.0  0.44700  0.91740  0.61060  1.0000 0.1511721179
H   H35       1.0  0.08260  0.55300  0.11060  1.0000 0.1511721179
H   H36       1.0  0.55300  0.08260  0.38940  1.0000 0.1511721179
H   H37       1.0  0.93860  0.55320  0.91060  1.0000 0.137870276
H   H38       1.0  0.55320  0.93860  0.58940  1.0000 0.137870276
H   H39       1.0  0.06140  0.44680  0.08940  1.0000 0.137870276
H   H40       1.0  0.44680  0.06140  0.41060  1.0000 0.137870276
H   H41       1.0  0.94880  0.46800  0.94460  1.0000 0.1299368488
H   H42       1.0  0.46800  0.94880  0.55540  1.0000 0.1299368488
H   H43       1.0  0.05120  0.53200  0.05540  1.0000 0.1299368488
H   H44       1.0  0.53200  0.05120  0.44460  1.0000 0.1299368488
H   H45       1.0  0.42530  0.00330  0.90570  1.0000 0.1093221037
H   H46       1.0  0.00330  0.42530  0.59430  1.0000 0.1093221037
H   H47       1.0  0.57470  0.99670  0.09430  1.0000 0.1093221037
H   H48       1.0  0.99670  0.57470  0.40570  1.0000 0.1093221037
H   H49       1.0  0.34330  0.85410  0.85250  1.0000 0.1299368488
H   H50       1.0  0.85410  0.34330  0.64750  1.0000 0.1299368488
H   H51       1.0  0.65670  0.14590  0.14750  1.0000 0.1299368488
H   H52       1.0  0.14590  0.65670  0.35250  1.0000 0.1299368488
H   H53       1.0  0.02000  0.76100  0.85400  1.0000 0.1193873584
H   H54       1.0  0.76100  0.02000  0.64600  1.0000 0.1193873584
H   H55       1.0  0.98000  0.23900  0.14600  1.0000 0.1193873584
H   H56       1.0  0.23900  0.98000  0.35400  1.0000 0.1193873584
H   H57       1.0  0.10370  0.91250  0.90630  1.0000 0.1093221037
H   H58       1.0  0.91250  0.10370  0.59370  1.0000 0.1093221037
H   H59       1.0  0.89630  0.08750  0.09370  1.0000 0.1093221037
H   H60       1.0  0.08750  0.89630  0.40630  1.0000 0.1093221037
H   H61       1.0  0.30760  0.22360  0.87120  1.0000 0.1193873584
H   H62       1.0  0.22360  0.30760  0.62880  1.0000 0.1193873584
H   H63       1.0  0.69240  0.77640  0.12880  1.0000 0.1193873584
H   H64       1.0  0.77640  0.69240  0.37120  1.0000 0.1193873584
H   H65       1.0  0.18730  0.26850  0.85080  1.0000 0.1299368488
H   H66       1.0  0.26850  0.18730  0.64920  1.0000 0.1299368488
H   H67       1.0  0.81270  0.73150  0.14920  1.0000 0.1299368488
H   H68       1.0  0.73150  0.81270  0.35080  1.0000 0.1299368488
H   H69       1.0  0.04210  0.13110  0.97770  1.0000 0.1193873584
H   H70       1.0  0.13110  0.04210  0.52230  1.0000 0.1193873584
H   H71       1.0  0.95790  0.86890  0.02230  1.0000 0.1193873584
H   H72       1.0  0.86890  0.95790  0.47770  1.0000 0.1193873584
H   H73       1.0  0.16200  0.08360  0.99700  1.0000 0.1093221037
H   H74       1.0  0.08360  0.16200  0.50300  1.0000 0.1093221037
H   H75       1.0  0.83800  0.91640  0.00300  1.0000 0.1093221037
H   H76       1.0  0.91640  0.83800  0.49700  1.0000 0.1093221037
H   H77       1.0  0.97940  0.20560  0.86760  1.0000 0.137870276
H   H78       1.0  0.20560  0.97940  0.63240  1.0000 0.137870276
H   H79       1.0  0.02060  0.79440  0.13240  1.0000 0.137870276
H   H80       1.0  0.79440  0.02060  0.36760  1.0000 0.137870276
H   H81       1.0  0.94660  0.17580  0.92160  1.0000 0.1299368488
H   H82       1.0  0.17580  0.94660  0.57840  1.0000 0.1299368488
H   H83       1.0  0.05340  0.82420  0.07840  1.0000 0.1299368488
H   H84       1.0  0.82420  0.05340  0.42160  1.0000 0.1299368488
H   H85       1.0  0.05380  0.30960  0.90370  1.0000 0.1511721179
H   H86       1.0  0.30960  0.05380  0.59630  1.0000 0.1511721179
H   H87       1.0  0.94620  0.69040  0.09630  1.0000 0.1511721179
H   H88       1.0  0.69040  0.94620  0.40370  1.0000 0.1511721179
H   H89       1.0  0.00450  0.19390  0.29210  1.0000 0.1093221037
H   H90       1.0  0.19390  0.00450  0.20790  1.0000 0.1093221037
H   H91       1.0  0.99550  0.80610  0.70790  1.0000 0.1093221037
H   H92       1.0  0.80610  0.99550  0.79210  1.0000 0.1093221037
H   H93       1.0  0.82120  0.14580  0.29210  1.0000 0.1193873584
H   H94       1.0  0.14580  0.82120  0.20790  1.0000 0.1193873584
H   H95       1.0  0.17880  0.85420  0.70790  1.0000 0.1193873584
H   H96       1.0  0.85420  0.17880  0.79210  1.0000 0.1193873584
H   H97       1.0  0.66830  0.86710  0.21040  1.0000 0.1193873584
H   H98       1.0  0.86710  0.66830  0.28960  1.0000 0.1193873584
H   H99       1.0  0.33170  0.13290  0.78960  1.0000 0.1193873584
H   H100      1.0  0.13290  0.33170  0.71040  1.0000 0.1193873584
H   H101      1.0  0.85280  0.91760  0.20970  1.0000 0.1093221037
H   H102      1.0  0.91760  0.85280  0.29030  1.0000 0.1093221037
H   H103      1.0  0.14720  0.08240  0.79030  1.0000 0.1093221037
H   H104      1.0  0.08240  0.14720  0.70970  1.0000 0.1093221037
H   H105      1.0  0.08260  0.05300  0.14960  1.0000 0.1093221037
H   H106      1.0  0.05300  0.08260  0.35040  1.0000 0.1093221037
H   H107      1.0  0.91740  0.94700  0.85040  1.0000 0.1093221037
H   H108      1.0  0.94700  0.91740  0.64960  1.0000 0.1093221037
H   H109      1.0  0.15360  0.16600  0.07810  1.0000 0.1193873584
H   H110      1.0  0.16600  0.15360  0.42190  1.0000 0.1193873584
H   H111      1.0  0.84640  0.83400  0.92190  1.0000 0.1193873584
H   H112      1.0  0.83400  0.84640  0.57810  1.0000 0.1193873584
H   H113      1.0  0.32430  0.46390  0.14590  1.0000 0.1193873584
H   H114      1.0  0.46390  0.32430  0.35410  1.0000 0.1193873584
H   H115      1.0  0.67570  0.53610  0.85410  1.0000 0.1193873584
H   H116      1.0  0.53610  0.67570  0.64590  1.0000 0.1193873584
H   H117      1.0  0.25520  0.35280  0.21800  1.0000 0.1193873584
H   H118      1.0  0.35280  0.25520  0.28200  1.0000 0.1193873584
H   H119      1.0  0.74480  0.64720  0.78200  1.0000 0.1193873584
H   H120      1.0  0.64720  0.74480  0.71800  1.0000 0.1193873584
H   H121      1.0  0.22000  0.35260  0.03310  1.0000 0.1299368488
H   H122      1.0  0.35260  0.22000  0.46690  1.0000 0.1299368488
H   H123      1.0  0.78000  0.64740  0.96690  1.0000 0.1299368488
H   H124      1.0  0.64740  0.78000  0.53310  1.0000 0.1299368488
H   H125      1.0  0.30410  0.47450  0.05940  1.0000 0.137870276
H   H126      1.0  0.47450  0.30410  0.44060  1.0000 0.137870276
H   H127      1.0  0.69590  0.52550  0.94060  1.0000 0.137870276
H   H128      1.0  0.52550  0.69590  0.55940  1.0000 0.137870276
H   H129      1.0  0.35690  0.41890  0.04560  1.0000 0.137870276
H   H130      1.0  0.41890  0.35690  0.45440  1.0000 0.137870276
H   H131      1.0  0.64310  0.58110  0.95440  1.0000 0.137870276
H   H132      1.0  0.58110  0.64310  0.54560  1.0000 0.137870276
C   C1        1.0  0.33121  0.05019  0.01586  1.0000 -0.2098016016
C   C2        1.0  0.05019  0.33121  0.48414  1.0000 -0.2098016016
C   C3        1.0  0.66879  0.94981  0.98414  1.0000 -0.2098016016
C   C4        1.0  0.94981  0.66879  0.51586  1.0000 -0.2098016016
C   C5        1.0  0.35926  0.12354  0.05227  1.0000 -0.0898902832
C   C6        1.0  0.12354  0.35926  0.44773  1.0000 -0.0898902832
C   C7        1.0  0.64074  0.87646  0.94773  1.0000 -0.0898902832
C   C8        1.0  0.87646  0.64074  0.55227  1.0000 -0.0898902832
C   C9        1.0  0.36778  0.09222  0.10033  1.0000 -0.0979324709
C   C10       1.0  0.09222  0.36778  0.39967  1.0000 -0.0979324709
C   C11       1.0  0.63222  0.90778  0.89967  1.0000 -0.0979324709
C   C12       1.0  0.90778  0.63222  0.60033  1.0000 -0.0979324709
C   C13       1.0  0.35004  0.98856  0.11289  1.0000 -0.0273768384
C   C14       1.0  0.98856  0.35004  0.38711  1.0000 -0.0273768384
C   C15       1.0  0.64996  0.01144  0.88711  1.0000 -0.0273768384
C   C16       1.0  0.01144  0.64996  0.61289  1.0000 -0.0273768384
C   C17       1.0  0.32056  0.91424  0.07762  1.0000 -0.0979324709
C   C18       1.0  0.91424  0.32056  0.42238  1.0000 -0.0979324709
C   C19       1.0  0.67944  0.08576  0.92238  1.0000 -0.0979324709
C   C20       1.0  0.08576  0.67944  0.57762  1.0000 -0.0979324709
C   C21       1.0  0.31274  0.94526  0.02975  1.0000 -0.0821781562
C   C22       1.0  0.94526  0.31274  0.47025  1.0000 -0.0821781562
C   C23       1.0  0.68726  0.05474  0.97025  1.0000 -0.0821781562
C   C24       1.0  0.05474  0.68726  0.52975  1.0000 -0.0821781562
C   C25       1.0  0.36721  0.95919  0.16425  1.0000 0.5911703063
C   C26       1.0  0.95919  0.36721  0.33575  1.0000 0.5911703063
C   C27       1.0  0.63279  0.04081  0.83575  1.0000 0.5911703063
C   C28       1.0  0.04081  0.63279  0.66425  1.0000 0.5911703063
C   C29       1.0  0.51090  0.22350  0.94021  1.0000 -0.2342612319
C   C30       1.0  0.22350  0.51090  0.55979  1.0000 -0.2342612319
C   C31       1.0  0.48910  0.77650  0.05979  1.0000 -0.2342612319
C   C32       1.0  0.77650  0.48910  0.44021  1.0000 -0.2342612319
C   C33       1.0  0.60060  0.26380  0.97690  1.0000 -0.0821781562
C   C34       1.0  0.26380  0.60060  0.52310  1.0000 -0.0821781562
C   C35       1.0  0.39940  0.73620  0.02310  1.0000 -0.0821781562
C   C36       1.0  0.73620  0.39940  0.47690  1.0000 -0.0821781562
C   C37       1.0  0.72470  0.34270  0.97000  1.0000 -0.1884152762
C   C38       1.0  0.34270  0.72470  0.53000  1.0000 -0.1884152762
C   C39       1.0  0.27530  0.65730  0.03000  1.0000 -0.1884152762
C   C40       1.0  0.65730  0.27530  0.47000  1.0000 -0.1884152762
C   C41       1.0  0.77080  0.38640  0.92550  1.0000 0.1811549529
C   C42       1.0  0.38640  0.77080  0.57450  1.0000 0.1811549529
C   C43       1.0  0.22920  0.61360  0.07450  1.0000 0.1811549529
C   C44       1.0  0.61360  0.22920  0.42550  1.0000 0.1811549529
C   C45       1.0  0.68440  0.35200  0.88760  1.0000 -0.1707029141
C   C46       1.0  0.35200  0.68440  0.61240  1.0000 -0.1707029141
C   C47       1.0  0.31560  0.64800  0.11240  1.0000 -0.1707029141
C   C48       1.0  0.64800  0.31560  0.38760  1.0000 -0.1707029141
C   C49       1.0  0.55760  0.26840  0.89380  1.0000 -0.0821781562
C   C50       1.0  0.26840  0.55760  0.60620  1.0000 -0.0821781562
C   C51       1.0  0.44240  0.73160  0.10620  1.0000 -0.0821781562
C   C52       1.0  0.73160  0.44240  0.39380  1.0000 -0.0821781562
C   C53       1.0  0.90660  0.47160  0.91670  1.0000 -0.4619869836
C   C54       1.0  0.47160  0.90660  0.58330  1.0000 -0.4619869836
C   C55       1.0  0.09340  0.52840  0.08330  1.0000 -0.4619869836
C   C56       1.0  0.52840  0.09340  0.41670  1.0000 -0.4619869836
C   C57       1.0  0.27457  0.97623  0.91116  1.0000 -0.2011438127
C   C58       1.0  0.97623  0.27457  0.58884  1.0000 -0.2011438127
C   C59       1.0  0.72543  0.02377  0.08884  1.0000 -0.2011438127
C   C60       1.0  0.02377  0.72543  0.41116  1.0000 -0.2011438127
C   C61       1.0  0.34416  0.95584  0.89508  1.0000 -0.0821781562
C   C62       1.0  0.95584  0.34416  0.60492  1.0000 -0.0821781562
C   C63       1.0  0.65584  0.04416  0.10492  1.0000 -0.0821781562
C   C64       1.0  0.04416  0.65584  0.39508  1.0000 -0.0821781562
C   C65       1.0  0.29504  0.86576  0.86337  1.0000 -0.0898902832
C   C66       1.0  0.86576  0.29504  0.63663  1.0000 -0.0898902832
C   C67       1.0  0.70496  0.13424  0.13663  1.0000 -0.0898902832
C   C68       1.0  0.13424  0.70496  0.36337  1.0000 -0.0898902832
C   C69       1.0  0.17403  0.79377  0.84818  1.0000 -0.0233149085
C   C70       1.0  0.79377  0.17403  0.65182  1.0000 -0.0233149085
C   C71       1.0  0.82597  0.20623  0.15182  1.0000 -0.0233149085
C   C72       1.0  0.20623  0.82597  0.34818  1.0000 -0.0233149085
C   C73       1.0  0.10157  0.81023  0.86413  1.0000 -0.0898902832
C   C74       1.0  0.81023  0.10157  0.63587  1.0000 -0.0898902832
C   C75       1.0  0.89843  0.18977  0.13587  1.0000 -0.0898902832
C   C76       1.0  0.18977  0.89843  0.36413  1.0000 -0.0898902832
C   C77       1.0  0.15229  0.90131  0.89550  1.0000 -0.0898902832
C   C78       1.0  0.90131  0.15229  0.60450  1.0000 -0.0898902832
C   C79       1.0  0.84771  0.09869  0.10450  1.0000 -0.0898902832
C   C80       1.0  0.09869  0.84771  0.39550  1.0000 -0.0898902832
C   C81       1.0  0.12231  0.70129  0.81169  1.0000 0.5911703063
C   C82       1.0  0.70129  0.12231  0.68831  1.0000 0.5911703063
C   C83       1.0  0.87769  0.29871  0.18831  1.0000 0.5911703063
C   C84       1.0  0.29871  0.87769  0.31169  1.0000 0.5911703063
C   C85       1.0  0.25540  0.15520  0.93750  1.0000 -0.2098016016
C   C86       1.0  0.15520  0.25540  0.56250  1.0000 -0.2098016016
C   C87       1.0  0.74460  0.84480  0.06250  1.0000 -0.2098016016
C   C88       1.0  0.84480  0.74460  0.43750  1.0000 -0.2098016016
C   C89       1.0  0.25560  0.20580  0.89360  1.0000 -0.0898902832
C   C90       1.0  0.20580  0.25560  0.60640  1.0000 -0.0898902832
C   C91       1.0  0.74440  0.79420  0.10640  1.0000 -0.0898902832
C   C92       1.0  0.79420  0.74440  0.39360  1.0000 -0.0898902832
C   C93       1.0  0.18190  0.23190  0.88100  1.0000 -0.1707029141
C   C94       1.0  0.23190  0.18190  0.61900  1.0000 -0.1707029141
C   C95       1.0  0.81810  0.76810  0.11900  1.0000 -0.1707029141
C   C96       1.0  0.76810  0.81810  0.38100  1.0000 -0.1707029141
C   C97       1.0  0.10010  0.20470  0.91220  1.0000 0.1811549529
C   C98       1.0  0.20470  0.10010  0.58780  1.0000 0.1811549529
C   C99       1.0  0.89990  0.79530  0.08780  1.0000 0.1811549529
C   C100      1.0  0.79530  0.89990  0.41220  1.0000 0.1811549529
C   C101      1.0  0.09560  0.15060  0.95560  1.0000 -0.1707029141
C   C102      1.0  0.15060  0.09560  0.54440  1.0000 -0.1707029141
C   C103      1.0  0.90440  0.84940  0.04440  1.0000 -0.1707029141
C   C104      1.0  0.84940  0.90440  0.45560  1.0000 -0.1707029141
C   C105      1.0  0.17010  0.12410  0.96750  1.0000 -0.0898902832
C   C106      1.0  0.12410  0.17010  0.53250  1.0000 -0.0898902832
C   C107      1.0  0.82990  0.87590  0.03250  1.0000 -0.0898902832
C   C108      1.0  0.87590  0.82990  0.46750  1.0000 -0.0898902832
C   C109      1.0  0.01170  0.22590  0.90010  1.0000 -0.4519205562
C   C110      1.0  0.22590  0.01170  0.59990  1.0000 -0.4519205562
C   C111      1.0  0.98830  0.77410  0.09990  1.0000 -0.4519205562
C   C112      1.0  0.77410  0.98830  0.40010  1.0000 -0.4519205562
C   C113      1.0  0.94871  0.05949  0.25174  1.0000 -0.2011438127
C   C114      1.0  0.05949  0.94871  0.24826  1.0000 -0.2011438127
C   C115      1.0  0.05129  0.94051  0.74826  1.0000 -0.2011438127
C   C116      1.0  0.94051  0.05129  0.75174  1.0000 -0.2011438127
C   C117      1.0  0.93683  0.12737  0.27579  1.0000 -0.0821781562
C   C118      1.0  0.12737  0.93683  0.22421  1.0000 -0.0821781562
C   C119      1.0  0.06317  0.87263  0.72421  1.0000 -0.0821781562
C   C120      1.0  0.87263  0.06317  0.77579  1.0000 -0.0821781562
C   C121      1.0  0.82668  0.09832  0.27611  1.0000 -0.0979324709
C   C122      1.0  0.09832  0.82668  0.22389  1.0000 -0.0979324709
C   C123      1.0  0.17332  0.90168  0.72389  1.0000 -0.0979324709
C   C124      1.0  0.90168  0.17332  0.77611  1.0000 -0.0979324709
C   C125      1.0  0.72414  0.99806  0.25260  1.0000 -0.0233149085
C   C126      1.0  0.99806  0.72414  0.24740  1.0000 -0.0233149085
C   C127      1.0  0.27586  0.00194  0.74740  1.0000 -0.0233149085
C   C128      1.0  0.00194  0.27586  0.75260  1.0000 -0.0233149085
C   C129      1.0  0.73548  0.93232  0.22731  1.0000 -0.0979324709
C   C130      1.0  0.93232  0.73548  0.27269  1.0000 -0.0979324709
C   C131      1.0  0.26452  0.06768  0.77269  1.0000 -0.0979324709
C   C132      1.0  0.06768  0.26452  0.72731  1.0000 -0.0979324709
C   C133      1.0  0.84671  0.96289  0.22694  1.0000 -0.0898902832
C   C134      1.0  0.96289  0.84671  0.27306  1.0000 -0.0898902832
C   C135      1.0  0.15329  0.03711  0.77306  1.0000 -0.0898902832
C   C136      1.0  0.03711  0.15329  0.72694  1.0000 -0.0898902832
C   C137      1.0  0.60464  0.96536  0.25332  1.0000 0.5911703063
C   C138      1.0  0.96536  0.60464  0.24668  1.0000 0.5911703063
C   C139      1.0  0.39536  0.03464  0.74668  1.0000 0.5911703063
C   C140      1.0  0.03464  0.39536  0.75332  1.0000 0.5911703063
C   C141      1.0  0.16958  0.19142  0.19347  1.0000 -0.215277037
C   C142      1.0  0.19142  0.16958  0.30653  1.0000 -0.215277037
C   C143      1.0  0.83042  0.80858  0.80653  1.0000 -0.215277037
C   C144      1.0  0.80858  0.83042  0.69347  1.0000 -0.215277037
C   C145      1.0  0.13524  0.13716  0.14975  1.0000 -0.0821781562
C   C146      1.0  0.13716  0.13524  0.35025  1.0000 -0.0821781562
C   C147      1.0  0.86476  0.86284  0.85025  1.0000 -0.0821781562
C   C148      1.0  0.86284  0.86476  0.64975  1.0000 -0.0821781562
C   C149      1.0  0.17740  0.20500  0.10650  1.0000 -0.1707029141
C   C150      1.0  0.20500  0.17740  0.39350  1.0000 -0.1707029141
C   C151      1.0  0.82260  0.79500  0.89350  1.0000 -0.1707029141
C   C152      1.0  0.79500  0.82260  0.60650  1.0000 -0.1707029141
C   C153      1.0  0.25340  0.32880  0.10510  1.0000 0.1741561569
C   C154      1.0  0.32880  0.25340  0.39490  1.0000 0.1741561569
C   C155      1.0  0.74660  0.67120  0.89490  1.0000 0.1741561569
C   C156      1.0  0.67120  0.74660  0.60510  1.0000 0.1741561569
C   C157      1.0  0.27810  0.38050  0.14650  1.0000 -0.1563080125
C   C158      1.0  0.38050  0.27810  0.35350  1.0000 -0.1563080125
C   C159      1.0  0.72190  0.61950  0.85350  1.0000 -0.1563080125
C   C160      1.0  0.61950  0.72190  0.64650  1.0000 -0.1563080125
C   C161      1.0  0.23650  0.31330  0.19030  1.0000 -0.0660322256
C   C162      1.0  0.31330  0.23650  0.30970  1.0000 -0.0660322256
C   C163      1.0  0.76350  0.68670  0.80970  1.0000 -0.0660322256
C   C164      1.0  0.68670  0.76350  0.69030  1.0000 -0.0660322256
C   C165      1.0  0.28680  0.40040  0.05620  1.0000 -0.4423928134
C   C166      1.0  0.40040  0.28680  0.44380  1.0000 -0.4423928134
C   C167      1.0  0.71320  0.59960  0.94380  1.0000 -0.4423928134
C   C168      1.0  0.59960  0.71320  0.55620  1.0000 -0.4423928134
O   O1        1.0  0.42976  0.04624  0.19213  1.0000 -0.5504324086
O   O2        1.0  0.04624  0.42976  0.30787  1.0000 -0.5504324086
O   O3        1.0  0.57024  0.95376  0.80787  1.0000 -0.5504324086
O   O4        1.0  0.95376  0.57024  0.69213  1.0000 -0.5504324086
O   O5        1.0  0.31933  0.85187  0.17606  1.0000 -0.5238325096
O   O6        1.0  0.85187  0.31933  0.32394  1.0000 -0.5238325096
O   O7        1.0  0.68067  0.14813  0.82394  1.0000 -0.5238325096
O   O8        1.0  0.14813  0.68067  0.67606  1.0000 -0.5238325096
O   O9        1.0  0.01053  0.63187  0.80151  1.0000 -0.5238325096
O   O10       1.0  0.63187  0.01053  0.69849  1.0000 -0.5238325096
O   O11       1.0  0.98947  0.36813  0.19849  1.0000 -0.5238325096
O   O12       1.0  0.36813  0.98947  0.30151  1.0000 -0.5238325096
O   O13       1.0  0.19536  0.70004  0.79403  1.0000 -0.5401546555
O   O14       1.0  0.70004  0.19536  0.70597  1.0000 -0.5401546555
O   O15       1.0  0.80464  0.29996  0.20597  1.0000 -0.5401546555
O   O16       1.0  0.29996  0.80464  0.29403  1.0000 -0.5401546555
O   O17       1.0  0.60461  0.04039  0.26979  1.0000 -0.5401546555
O   O18       1.0  0.04039  0.60461  0.23021  1.0000 -0.5401546555
O   O19       1.0  0.39539  0.95961  0.73021  1.0000 -0.5401546555
O   O20       1.0  0.95961  0.39539  0.76979  1.0000 -0.5401546555
O   O21       1.0  0.51332  0.86508  0.23720  1.0000 -0.5401546555
O   O22       1.0  0.86508  0.51332  0.26280  1.0000 -0.5401546555
O   O23       1.0  0.48668  0.13492  0.76280  1.0000 -0.5401546555
O   O24       1.0  0.13492  0.48668  0.73720  1.0000 -0.5401546555
O   O25       1.0  0.61305  0.24723  0.26536  1.0000 -0.7668946035
O   O26       1.0  0.24723  0.61305  0.23464  1.0000 -0.7589860407
O   O27       1.0  0.38695  0.75277  0.73464  1.0000 -0.7589860407
O   O28       1.0  0.75277  0.38695  0.76536  1.0000 -0.7589860407
