# DDEC6 charges by PACMAN v1.1 (https://github.com/mtap-research/PACMAN-charge/)
data_2008[Zn][srs]3[FSR]8
_chemical_formula_sum              "Zn24 H192 C288 I48 N96"
_cell_length_a       13.7063
_cell_length_b       28.857
_cell_length_c       45.188
_cell_angle_alpha    90
_cell_angle_beta     90
_cell_angle_gamma    90

_symmetry_space_group_name_H-M    "P 1"
_symmetry_Int_Tables_number       1

loop_
  _symmetry_equiv_pos_as_xyz
  'x, y, z'

loop_
  _atom_site_type_symbol
  _atom_site_label
  _atom_site_symmetry_multiplicity
  _atom_site_fract_x
  _atom_site_fract_y
  _atom_site_fract_z
  _atom_site_occupancy
  _atom_site_charge
Zn  Zn1       1.0  0.14722  0.02280  0.08587  1.0000 0.4588015607
Zn  Zn2       1.0  0.85278  0.47720  0.58587  1.0000 0.4588015607
Zn  Zn3       1.0  0.64722  0.97720  0.41413  1.0000 0.4588015607
Zn  Zn4       1.0  0.35278  0.52280  0.91413  1.0000 0.4588015607
Zn  Zn5       1.0  0.15855  0.56358  0.07126  1.0000 0.4588015607
Zn  Zn6       1.0  0.84145  0.93642  0.57126  1.0000 0.4542756054
Zn  Zn7       1.0  0.65855  0.43642  0.42874  1.0000 0.4588015607
Zn  Zn8       1.0  0.34145  0.06358  0.92874  1.0000 0.4588015607
Zn  Zn9       1.0  0.85594  0.76223  0.31055  1.0000 0.4670751217
Zn  Zn10      1.0  0.14406  0.73777  0.81055  1.0000 0.4670751217
Zn  Zn11      1.0  0.35594  0.23777  0.18945  1.0000 0.4670751217
Zn  Zn12      1.0  0.64406  0.26223  0.68945  1.0000 0.4670751217
Zn  Zn13      1.0  0.85278  0.97720  0.91413  1.0000 0.4588015607
Zn  Zn14      1.0  0.14722  0.52280  0.41413  1.0000 0.4588015607
Zn  Zn15      1.0  0.35278  0.02280  0.58587  1.0000 0.4588015607
Zn  Zn16      1.0  0.64722  0.47720  0.08587  1.0000 0.4588015607
Zn  Zn17      1.0  0.84145  0.43642  0.92874  1.0000 0.4588015607
Zn  Zn18      1.0  0.15855  0.06358  0.42874  1.0000 0.4588015607
Zn  Zn19      1.0  0.34145  0.56358  0.57126  1.0000 0.4588015607
Zn  Zn20      1.0  0.65855  0.93642  0.07126  1.0000 0.4542756054
Zn  Zn21      1.0  0.14406  0.23777  0.68945  1.0000 0.4670751217
Zn  Zn22      1.0  0.85594  0.26223  0.18945  1.0000 0.4670751217
Zn  Zn23      1.0  0.64406  0.76223  0.81055  1.0000 0.4670751217
Zn  Zn24      1.0  0.35594  0.73777  0.31055  1.0000 0.4670751217
H   H1        1.0  0.12380  0.92320  0.06700  1.0000 0.1083772397
H   H2        1.0  0.87620  0.57680  0.56700  1.0000 0.1083772397
H   H3        1.0  0.62380  0.07680  0.43300  1.0000 0.1083772397
H   H4        1.0  0.37620  0.42320  0.93300  1.0000 0.1083772397
H   H5        1.0  0.10060  0.85020  0.08780  1.0000 0.1333057673
H   H6        1.0  0.89940  0.64980  0.58780  1.0000 0.1333057673
H   H7        1.0  0.60060  0.14980  0.41220  1.0000 0.1333057673
H   H8        1.0  0.39940  0.35020  0.91220  1.0000 0.1333057673
H   H9        1.0  0.09470  0.98250  0.14470  1.0000 0.1083772397
H   H10       1.0  0.90530  0.51750  0.64470  1.0000 0.1083772397
H   H11       1.0  0.59470  0.01750  0.35530  1.0000 0.1083772397
H   H12       1.0  0.40530  0.48250  0.85530  1.0000 0.1083772397
H   H13       1.0  0.07020  0.91160  0.16740  1.0000 0.1333057673
H   H14       1.0  0.92980  0.58840  0.66740  1.0000 0.1333057673
H   H15       1.0  0.57020  0.08840  0.33260  1.0000 0.1333057673
H   H16       1.0  0.42980  0.41160  0.83260  1.0000 0.1333057673
H   H17       1.0  0.89400  0.83570  0.26670  1.0000 0.1083772397
H   H18       1.0  0.10600  0.66430  0.76670  1.0000 0.1083772397
H   H19       1.0  0.39400  0.16430  0.23330  1.0000 0.1083772397
H   H20       1.0  0.60600  0.33570  0.73330  1.0000 0.1083772397
H   H21       1.0  0.96010  0.84590  0.21980  1.0000 0.1333057673
H   H22       1.0  0.03990  0.65410  0.71980  1.0000 0.1372343132
H   H23       1.0  0.46010  0.15410  0.28020  1.0000 0.1372343132
H   H24       1.0  0.53990  0.34590  0.78020  1.0000 0.1372343132
H   H25       1.0  0.97550  0.70540  0.26800  1.0000 0.1083772397
H   H26       1.0  0.02450  0.79460  0.76800  1.0000 0.1083772397
H   H27       1.0  0.47550  0.29460  0.23200  1.0000 0.1083772397
H   H28       1.0  0.52450  0.20540  0.73200  1.0000 0.1083772397
H   H29       1.0  0.03780  0.71140  0.22030  1.0000 0.1372343132
H   H30       1.0  0.96220  0.78860  0.72030  1.0000 0.1372343132
H   H31       1.0  0.53780  0.28860  0.27970  1.0000 0.1372343132
H   H32       1.0  0.46220  0.21140  0.77970  1.0000 0.1372343132
H   H33       1.0  0.08880  0.59420  0.13100  1.0000 0.1016693548
H   H34       1.0  0.91120  0.90580  0.63100  1.0000 0.1016693548
H   H35       1.0  0.58880  0.40580  0.36900  1.0000 0.1016693548
H   H36       1.0  0.41120  0.09420  0.86900  1.0000 0.1016693548
H   H37       1.0  0.06480  0.66120  0.15800  1.0000 0.1333057673
H   H38       1.0  0.93520  0.83880  0.65800  1.0000 0.1333057673
H   H39       1.0  0.56480  0.33880  0.34200  1.0000 0.1333057673
H   H40       1.0  0.43520  0.16120  0.84200  1.0000 0.1333057673
H   H41       1.0  0.14570  0.66580  0.05920  1.0000 0.1016693548
H   H42       1.0  0.85430  0.83420  0.55920  1.0000 0.1016693548
H   H43       1.0  0.64570  0.33420  0.44080  1.0000 0.1016693548
H   H44       1.0  0.35430  0.16580  0.94080  1.0000 0.1016693548
H   H45       1.0  0.11820  0.73500  0.08340  1.0000 0.1372343132
H   H46       1.0  0.88180  0.76500  0.58340  1.0000 0.1372343132
H   H47       1.0  0.61820  0.26500  0.41660  1.0000 0.1372343132
H   H48       1.0  0.38180  0.23500  0.91660  1.0000 0.1372343132
H   H49       1.0  0.30980  0.10350  0.98900  1.0000 0.1016693548
H   H50       1.0  0.69020  0.39650  0.48900  1.0000 0.1016693548
H   H51       1.0  0.80980  0.89650  0.51100  1.0000 0.1016693548
H   H52       1.0  0.19020  0.60350  0.01100  1.0000 0.1016693548
H   H53       1.0  0.39540  0.11970  0.03140  1.0000 0.1372343132
H   H54       1.0  0.60460  0.38030  0.53140  1.0000 0.1372343132
H   H55       1.0  0.89540  0.88030  0.46860  1.0000 0.1372343132
H   H56       1.0  0.10460  0.61970  0.96860  1.0000 0.1372343132
H   H57       1.0  0.53210  0.03630  0.95550  1.0000 0.1083772397
H   H58       1.0  0.46790  0.46370  0.45550  1.0000 0.1083772397
H   H59       1.0  0.03210  0.96370  0.54450  1.0000 0.1083772397
H   H60       1.0  0.96790  0.53630  0.04450  1.0000 0.1083772397
H   H61       1.0  0.62640  0.05220  0.99660  1.0000 0.1372343132
H   H62       1.0  0.37360  0.44780  0.49660  1.0000 0.1372343132
H   H63       1.0  0.12640  0.94780  0.50340  1.0000 0.1372343132
H   H64       1.0  0.87360  0.55220  0.00340  1.0000 0.1372343132
H   H65       1.0  0.98810  0.02260  0.04160  1.0000 0.1083772397
H   H66       1.0  0.01190  0.47740  0.54160  1.0000 0.1083772397
H   H67       1.0  0.48810  0.97740  0.45840  1.0000 0.1083772397
H   H68       1.0  0.51190  0.52260  0.95840  1.0000 0.1083772397
H   H69       1.0  0.83130  0.05000  0.03440  1.0000 0.1372343132
H   H70       1.0  0.16870  0.45000  0.53440  1.0000 0.1372343132
H   H71       1.0  0.33130  0.95000  0.46560  1.0000 0.1372343132
H   H72       1.0  0.66870  0.55000  0.96560  1.0000 0.1372343132
H   H73       1.0  0.01070  0.08870  0.11650  1.0000 0.1083772397
H   H74       1.0  0.98930  0.41130  0.61650  1.0000 0.1083772397
H   H75       1.0  0.51070  0.91130  0.38350  1.0000 0.1083772397
H   H76       1.0  0.48930  0.58870  0.88350  1.0000 0.1083772397
H   H77       1.0  0.85530  0.11940  0.11110  1.0000 0.1372343132
H   H78       1.0  0.14470  0.38060  0.61110  1.0000 0.1333057673
H   H79       1.0  0.35530  0.88060  0.38890  1.0000 0.1372343132
H   H80       1.0  0.64470  0.61940  0.88890  1.0000 0.1372343132
H   H81       1.0  0.56770  0.21410  0.17510  1.0000 0.1083772397
H   H82       1.0  0.43230  0.28590  0.67510  1.0000 0.1083772397
H   H83       1.0  0.06770  0.78590  0.32490  1.0000 0.1083772397
H   H84       1.0  0.93230  0.71410  0.82490  1.0000 0.1083772397
H   H85       1.0  0.65650  0.17760  0.13780  1.0000 0.1333057673
H   H86       1.0  0.34350  0.32240  0.63780  1.0000 0.1333057673
H   H87       1.0  0.15650  0.82240  0.36220  1.0000 0.1333057673
H   H88       1.0  0.84350  0.67760  0.86220  1.0000 0.1333057673
H   H89       1.0  0.32080  0.17570  0.13970  1.0000 0.1083772397
H   H90       1.0  0.67920  0.32430  0.63970  1.0000 0.1083772397
H   H91       1.0  0.82080  0.82430  0.36030  1.0000 0.1083772397
H   H92       1.0  0.17920  0.67570  0.86030  1.0000 0.1083772397
H   H93       1.0  0.40080  0.14100  0.10010  1.0000 0.1333057673
H   H94       1.0  0.59920  0.35900  0.60010  1.0000 0.1333057673
H   H95       1.0  0.90080  0.85900  0.39990  1.0000 0.1333057673
H   H96       1.0  0.09920  0.64100  0.89990  1.0000 0.1333057673
H   H97       1.0  0.87620  0.07680  0.93300  1.0000 0.1083772397
H   H98       1.0  0.12380  0.42320  0.43300  1.0000 0.1083772397
H   H99       1.0  0.37620  0.92320  0.56700  1.0000 0.1083772397
H   H100      1.0  0.62380  0.57680  0.06700  1.0000 0.1083772397
H   H101      1.0  0.89940  0.14980  0.91220  1.0000 0.1333057673
H   H102      1.0  0.10060  0.35020  0.41220  1.0000 0.1333057673
H   H103      1.0  0.39940  0.85020  0.58780  1.0000 0.1333057673
H   H104      1.0  0.60060  0.64980  0.08780  1.0000 0.1333057673
H   H105      1.0  0.90530  0.01750  0.85530  1.0000 0.1083772397
H   H106      1.0  0.09470  0.48250  0.35530  1.0000 0.1083772397
H   H107      1.0  0.40530  0.98250  0.64470  1.0000 0.1083772397
H   H108      1.0  0.59470  0.51750  0.14470  1.0000 0.1083772397
H   H109      1.0  0.92980  0.08840  0.83260  1.0000 0.1333057673
H   H110      1.0  0.07020  0.41160  0.33260  1.0000 0.1333057673
H   H111      1.0  0.42980  0.91160  0.66740  1.0000 0.1333057673
H   H112      1.0  0.57020  0.58840  0.16740  1.0000 0.1333057673
H   H113      1.0  0.10600  0.16430  0.73330  1.0000 0.1083772397
H   H114      1.0  0.89400  0.33570  0.23330  1.0000 0.1083772397
H   H115      1.0  0.60600  0.83570  0.76670  1.0000 0.1083772397
H   H116      1.0  0.39400  0.66430  0.26670  1.0000 0.1083772397
H   H117      1.0  0.03990  0.15410  0.78020  1.0000 0.1372343132
H   H118      1.0  0.96010  0.34590  0.28020  1.0000 0.1333057673
H   H119      1.0  0.53990  0.84590  0.71980  1.0000 0.1333057673
H   H120      1.0  0.46010  0.65410  0.21980  1.0000 0.1333057673
H   H121      1.0  0.02450  0.29460  0.73200  1.0000 0.1083772397
H   H122      1.0  0.97550  0.20540  0.23200  1.0000 0.1083772397
H   H123      1.0  0.52450  0.70540  0.76800  1.0000 0.1083772397
H   H124      1.0  0.47550  0.79460  0.26800  1.0000 0.1083772397
H   H125      1.0  0.96220  0.28860  0.77970  1.0000 0.1372343132
H   H126      1.0  0.03780  0.21140  0.27970  1.0000 0.1372343132
H   H127      1.0  0.46220  0.71140  0.72030  1.0000 0.1372343132
H   H128      1.0  0.53780  0.78860  0.22030  1.0000 0.1372343132
H   H129      1.0  0.91120  0.40580  0.86900  1.0000 0.1016693548
H   H130      1.0  0.08880  0.09420  0.36900  1.0000 0.1016693548
H   H131      1.0  0.41120  0.59420  0.63100  1.0000 0.1016693548
H   H132      1.0  0.58880  0.90580  0.13100  1.0000 0.1016693548
H   H133      1.0  0.93520  0.33880  0.84200  1.0000 0.1333057673
H   H134      1.0  0.06480  0.16120  0.34200  1.0000 0.1333057673
H   H135      1.0  0.43520  0.66120  0.65800  1.0000 0.1333057673
H   H136      1.0  0.56480  0.83880  0.15800  1.0000 0.1333057673
H   H137      1.0  0.85430  0.33420  0.94080  1.0000 0.1016693548
H   H138      1.0  0.14570  0.16580  0.44080  1.0000 0.1016693548
H   H139      1.0  0.35430  0.66580  0.55920  1.0000 0.1016693548
H   H140      1.0  0.64570  0.83420  0.05920  1.0000 0.1016693548
H   H141      1.0  0.88180  0.26500  0.91660  1.0000 0.1372343132
H   H142      1.0  0.11820  0.23500  0.41660  1.0000 0.1372343132
H   H143      1.0  0.38180  0.73500  0.58340  1.0000 0.1372343132
H   H144      1.0  0.61820  0.76500  0.08340  1.0000 0.1372343132
H   H145      1.0  0.69020  0.89650  0.01100  1.0000 0.1016693548
H   H146      1.0  0.30980  0.60350  0.51100  1.0000 0.1016693548
H   H147      1.0  0.19020  0.10350  0.48900  1.0000 0.1016693548
H   H148      1.0  0.80980  0.39650  0.98900  1.0000 0.1016693548
H   H149      1.0  0.60460  0.88030  0.96860  1.0000 0.1372343132
H   H150      1.0  0.39540  0.61970  0.46860  1.0000 0.1372343132
H   H151      1.0  0.10460  0.11970  0.53140  1.0000 0.1372343132
H   H152      1.0  0.89540  0.38030  0.03140  1.0000 0.1372343132
H   H153      1.0  0.46790  0.96370  0.04450  1.0000 0.1083772397
H   H154      1.0  0.53210  0.53630  0.54450  1.0000 0.1083772397
H   H155      1.0  0.96790  0.03630  0.45550  1.0000 0.1083772397
H   H156      1.0  0.03210  0.46370  0.95550  1.0000 0.1083772397
H   H157      1.0  0.37360  0.94780  0.00340  1.0000 0.1372343132
H   H158      1.0  0.62640  0.55220  0.50340  1.0000 0.1372343132
H   H159      1.0  0.87360  0.05220  0.49660  1.0000 0.1372343132
H   H160      1.0  0.12640  0.44780  0.99660  1.0000 0.1372343132
H   H161      1.0  0.01190  0.97740  0.95840  1.0000 0.1083772397
H   H162      1.0  0.98810  0.52260  0.45840  1.0000 0.1083772397
H   H163      1.0  0.51190  0.02260  0.54160  1.0000 0.1083772397
H   H164      1.0  0.48810  0.47740  0.04160  1.0000 0.1083772397
H   H165      1.0  0.16870  0.95000  0.96560  1.0000 0.1372343132
H   H166      1.0  0.83130  0.55000  0.46560  1.0000 0.1372343132
H   H167      1.0  0.66870  0.05000  0.53440  1.0000 0.1372343132
H   H168      1.0  0.33130  0.45000  0.03440  1.0000 0.1372343132
H   H169      1.0  0.98930  0.91130  0.88350  1.0000 0.1083772397
H   H170      1.0  0.01070  0.58870  0.38350  1.0000 0.1083772397
H   H171      1.0  0.48930  0.08870  0.61650  1.0000 0.1083772397
H   H172      1.0  0.51070  0.41130  0.11650  1.0000 0.1083772397
H   H173      1.0  0.14470  0.88060  0.88890  1.0000 0.1372343132
H   H174      1.0  0.85530  0.61940  0.38890  1.0000 0.1372343132
H   H175      1.0  0.64470  0.11940  0.61110  1.0000 0.1372343132
H   H176      1.0  0.35530  0.38060  0.11110  1.0000 0.1333057673
H   H177      1.0  0.43230  0.78590  0.82490  1.0000 0.1083772397
H   H178      1.0  0.56770  0.71410  0.32490  1.0000 0.1083772397
H   H179      1.0  0.93230  0.21410  0.67510  1.0000 0.1083772397
H   H180      1.0  0.06770  0.28590  0.17510  1.0000 0.1083772397
H   H181      1.0  0.34350  0.82240  0.86220  1.0000 0.1333057673
H   H182      1.0  0.65650  0.67760  0.36220  1.0000 0.1333057673
H   H183      1.0  0.84350  0.17760  0.63780  1.0000 0.1333057673
H   H184      1.0  0.15650  0.32240  0.13780  1.0000 0.1333057673
H   H185      1.0  0.67920  0.82430  0.86030  1.0000 0.1083772397
H   H186      1.0  0.32080  0.67570  0.36030  1.0000 0.1083772397
H   H187      1.0  0.17920  0.17570  0.63970  1.0000 0.1083772397
H   H188      1.0  0.82080  0.32430  0.13970  1.0000 0.1083772397
H   H189      1.0  0.59920  0.85900  0.89990  1.0000 0.1333057673
H   H190      1.0  0.40080  0.64100  0.39990  1.0000 0.1333057673
H   H191      1.0  0.09920  0.14100  0.60010  1.0000 0.1333057673
H   H192      1.0  0.90080  0.35900  0.10010  1.0000 0.1333057673
C   C1        1.0  0.11370  0.92060  0.08778  1.0000 0.0896367794
C   C2        1.0  0.88630  0.57940  0.58778  1.0000 0.0896367794
C   C3        1.0  0.61370  0.07940  0.41222  1.0000 0.0896367794
C   C4        1.0  0.38630  0.42060  0.91222  1.0000 0.0896367794
C   C5        1.0  0.10020  0.87700  0.10004  1.0000 -0.1412463299
C   C6        1.0  0.89980  0.62300  0.60004  1.0000 -0.1412463299
C   C7        1.0  0.60020  0.12300  0.39996  1.0000 -0.1412463299
C   C8        1.0  0.39980  0.37700  0.89996  1.0000 -0.1412463299
C   C9        1.0  0.09670  0.95520  0.13303  1.0000 0.0896367794
C   C10       1.0  0.90330  0.54480  0.63303  1.0000 0.0896367794
C   C11       1.0  0.59670  0.04480  0.36697  1.0000 0.0896367794
C   C12       1.0  0.40330  0.45520  0.86697  1.0000 0.0896367794
C   C13       1.0  0.08240  0.91300  0.14677  1.0000 -0.1495150282
C   C14       1.0  0.91760  0.58700  0.64677  1.0000 -0.1495150282
C   C15       1.0  0.58240  0.08700  0.35323  1.0000 -0.1495150282
C   C16       1.0  0.41760  0.41300  0.85323  1.0000 -0.1495150282
C   C17       1.0  0.08610  0.87290  0.13005  1.0000 0.0604205595
C   C18       1.0  0.91390  0.62710  0.63005  1.0000 0.0604205595
C   C19       1.0  0.58610  0.12710  0.36995  1.0000 0.0604205595
C   C20       1.0  0.41390  0.37290  0.86995  1.0000 0.0604205595
C   C21       1.0  0.07350  0.82670  0.14394  1.0000 0.378369189
C   C22       1.0  0.92650  0.67330  0.64394  1.0000 0.378369189
C   C23       1.0  0.57350  0.17330  0.35606  1.0000 0.378369189
C   C24       1.0  0.42650  0.32670  0.85606  1.0000 0.378369189
C   C25       1.0  0.92460  0.81020  0.25715  1.0000 0.0809507609
C   C26       1.0  0.07540  0.68980  0.75715  1.0000 0.0809507609
C   C27       1.0  0.42460  0.18980  0.24285  1.0000 0.0809507609
C   C28       1.0  0.57540  0.31020  0.74285  1.0000 0.0809507609
C   C29       1.0  0.96280  0.81640  0.22909  1.0000 -0.1495150282
C   C30       1.0  0.03720  0.68360  0.72909  1.0000 -0.160972888
C   C31       1.0  0.46280  0.18360  0.27091  1.0000 -0.1495150282
C   C32       1.0  0.53720  0.31640  0.77091  1.0000 -0.160972888
C   C33       1.0  0.97120  0.73420  0.25786  1.0000 0.1016693548
C   C34       1.0  0.02880  0.76580  0.75786  1.0000 0.1016693548
C   C35       1.0  0.47120  0.26580  0.24214  1.0000 0.1016693548
C   C36       1.0  0.52880  0.23420  0.74214  1.0000 0.1016693548
C   C37       1.0  0.00900  0.73760  0.22957  1.0000 -0.1495150282
C   C38       1.0  0.99100  0.76240  0.72957  1.0000 -0.1495150282
C   C39       1.0  0.50900  0.26240  0.27043  1.0000 -0.1495150282
C   C40       1.0  0.49100  0.23760  0.77043  1.0000 -0.1495150282
C   C41       1.0  0.00440  0.77960  0.21502  1.0000 0.0604205595
C   C42       1.0  0.99560  0.72040  0.71502  1.0000 0.0604205595
C   C43       1.0  0.50440  0.22040  0.28498  1.0000 0.0604205595
C   C44       1.0  0.49560  0.27960  0.78498  1.0000 0.0604205595
C   C45       1.0  0.03830  0.78350  0.18387  1.0000 0.378369189
C   C46       1.0  0.96170  0.71650  0.68387  1.0000 0.378369189
C   C47       1.0  0.53830  0.21650  0.31613  1.0000 0.378369189
C   C48       1.0  0.46170  0.28350  0.81613  1.0000 0.378369189
C   C49       1.0  0.09620  0.62330  0.12145  1.0000 0.0896367794
C   C50       1.0  0.90380  0.87670  0.62145  1.0000 0.0896367794
C   C51       1.0  0.59620  0.37670  0.37855  1.0000 0.0896367794
C   C52       1.0  0.40380  0.12330  0.87855  1.0000 0.0896367794
C   C53       1.0  0.08110  0.66300  0.13762  1.0000 -0.160972888
C   C54       1.0  0.91890  0.83700  0.63762  1.0000 -0.160972888
C   C55       1.0  0.58110  0.33700  0.36238  1.0000 -0.160972888
C   C56       1.0  0.41890  0.16300  0.86238  1.0000 -0.160972888
C   C57       1.0  0.12860  0.66510  0.07953  1.0000 0.0809507609
C   C58       1.0  0.87140  0.83490  0.57953  1.0000 0.0809507609
C   C59       1.0  0.62860  0.33490  0.42047  1.0000 0.0809507609
C   C60       1.0  0.37140  0.16510  0.92047  1.0000 0.0809507609
C   C61       1.0  0.11320  0.70650  0.09374  1.0000 -0.160972888
C   C62       1.0  0.88680  0.79350  0.59374  1.0000 -0.160972888
C   C63       1.0  0.61320  0.29350  0.40626  1.0000 -0.160972888
C   C64       1.0  0.38680  0.20650  0.90626  1.0000 -0.160972888
C   C65       1.0  0.09010  0.70570  0.12385  1.0000 0.0604205595
C   C66       1.0  0.90990  0.79430  0.62385  1.0000 0.0604205595
C   C67       1.0  0.59010  0.29430  0.37615  1.0000 0.0604205595
C   C68       1.0  0.40990  0.20570  0.87615  1.0000 0.0726410397
C   C69       1.0  0.07610  0.74920  0.14074  1.0000 0.3724236546
C   C70       1.0  0.92390  0.75080  0.64074  1.0000 0.3724236546
C   C71       1.0  0.57610  0.25080  0.35926  1.0000 0.3724236546
C   C72       1.0  0.42390  0.24920  0.85926  1.0000 0.3724236546
C   C73       1.0  0.37550  0.09330  0.99048  1.0000 0.0809507609
C   C74       1.0  0.62450  0.40670  0.49048  1.0000 0.0809507609
C   C75       1.0  0.87550  0.90670  0.50952  1.0000 0.0809507609
C   C76       1.0  0.12450  0.59330  0.00952  1.0000 0.0809507609
C   C77       1.0  0.42610  0.10340  0.01571  1.0000 -0.1495150282
C   C78       1.0  0.57390  0.39660  0.51571  1.0000 -0.1495150282
C   C79       1.0  0.92610  0.89660  0.48429  1.0000 -0.1495150282
C   C80       1.0  0.07390  0.60340  0.98429  1.0000 -0.1495150282
C   C81       1.0  0.50510  0.05450  0.97103  1.0000 0.0726410397
C   C82       1.0  0.49490  0.44550  0.47103  1.0000 0.0726410397
C   C83       1.0  0.00510  0.94550  0.52897  1.0000 0.0726410397
C   C84       1.0  0.99490  0.55450  0.02897  1.0000 0.0726410397
C   C85       1.0  0.56150  0.06360  0.99543  1.0000 -0.1412463299
C   C86       1.0  0.43850  0.43640  0.49543  1.0000 -0.1495150282
C   C87       1.0  0.06150  0.93640  0.50457  1.0000 -0.1412463299
C   C88       1.0  0.93850  0.56360  0.00457  1.0000 -0.1412463299
C   C89       1.0  0.52240  0.08960  0.01827  1.0000 0.0604205595
C   C90       1.0  0.47760  0.41040  0.51827  1.0000 0.0604205595
C   C91       1.0  0.02240  0.91040  0.48173  1.0000 0.0604205595
C   C92       1.0  0.97760  0.58960  0.98173  1.0000 0.0604205595
C   C93       1.0  0.58050  0.10160  0.04485  1.0000 0.3724236546
C   C94       1.0  0.41950  0.39840  0.54485  1.0000 0.3724236546
C   C95       1.0  0.08050  0.89840  0.45515  1.0000 0.3724236546
C   C96       1.0  0.91950  0.60160  0.95515  1.0000 0.3724236546
C   C97       1.0  0.96030  0.04240  0.05610  1.0000 0.0896367794
C   C98       1.0  0.03970  0.45760  0.55610  1.0000 0.0896367794
C   C99       1.0  0.46030  0.95760  0.44390  1.0000 0.0896367794
C   C100      1.0  0.53970  0.54240  0.94390  1.0000 0.0896367794
C   C101      1.0  0.86670  0.05840  0.05163  1.0000 -0.1260656517
C   C102      1.0  0.13330  0.44160  0.55163  1.0000 -0.1260656517
C   C103      1.0  0.36670  0.94160  0.44837  1.0000 -0.1260656517
C   C104      1.0  0.63330  0.55840  0.94837  1.0000 -0.1260656517
C   C105      1.0  0.97360  0.08100  0.09946  1.0000 0.0809507609
C   C106      1.0  0.02640  0.41900  0.59946  1.0000 0.0809507609
C   C107      1.0  0.47360  0.91900  0.40054  1.0000 0.0809507609
C   C108      1.0  0.52640  0.58100  0.90054  1.0000 0.0809507609
C   C109      1.0  0.88050  0.09890  0.09659  1.0000 -0.1205423587
C   C110      1.0  0.11950  0.40110  0.59659  1.0000 -0.1205423587
C   C111      1.0  0.38050  0.90110  0.40341  1.0000 -0.1205423587
C   C112      1.0  0.61950  0.59890  0.90341  1.0000 -0.1205423587
C   C113      1.0  0.82540  0.08700  0.07271  1.0000 0.0604205595
C   C114      1.0  0.17460  0.41300  0.57271  1.0000 0.0604205595
C   C115      1.0  0.32540  0.91300  0.42729  1.0000 0.0604205595
C   C116      1.0  0.67460  0.58700  0.92729  1.0000 0.0604205595
C   C117      1.0  0.72220  0.10160  0.06983  1.0000 0.3724236546
C   C118      1.0  0.27780  0.39840  0.56983  1.0000 0.3724236546
C   C119      1.0  0.22220  0.89840  0.43017  1.0000 0.3724236546
C   C120      1.0  0.77780  0.60160  0.93017  1.0000 0.3724236546
C   C121      1.0  0.53340  0.19890  0.15960  1.0000 0.0896367794
C   C122      1.0  0.46660  0.30110  0.65960  1.0000 0.0896367794
C   C123      1.0  0.03340  0.80110  0.34040  1.0000 0.0896367794
C   C124      1.0  0.96660  0.69890  0.84040  1.0000 0.0896367794
C   C125      1.0  0.58720  0.17750  0.13736  1.0000 -0.1205423587
C   C126      1.0  0.41280  0.32250  0.63736  1.0000 -0.1205423587
C   C127      1.0  0.08720  0.82250  0.36264  1.0000 -0.1205423587
C   C128      1.0  0.91280  0.67750  0.86264  1.0000 -0.1205423587
C   C129      1.0  0.39010  0.17710  0.13895  1.0000 0.0896367794
C   C130      1.0  0.60990  0.32290  0.63895  1.0000 0.0896367794
C   C131      1.0  0.89010  0.82290  0.36105  1.0000 0.0896367794
C   C132      1.0  0.10990  0.67710  0.86105  1.0000 0.0896367794
C   C133      1.0  0.43700  0.15570  0.11542  1.0000 -0.1205423587
C   C134      1.0  0.56300  0.34430  0.61542  1.0000 -0.1205423587
C   C135      1.0  0.93700  0.84430  0.38458  1.0000 -0.1205423587
C   C136      1.0  0.06300  0.65570  0.88458  1.0000 -0.1205423587
C   C137      1.0  0.53740  0.15630  0.11485  1.0000 0.0483083173
C   C138      1.0  0.46260  0.34370  0.61485  1.0000 0.0483083173
C   C139      1.0  0.03740  0.84370  0.38515  1.0000 0.0483083173
C   C140      1.0  0.96260  0.65630  0.88515  1.0000 0.0483083173
C   C141      1.0  0.58910  0.13400  0.09011  1.0000 0.3724236546
C   C142      1.0  0.41090  0.36600  0.59011  1.0000 0.3724236546
C   C143      1.0  0.08910  0.86600  0.40989  1.0000 0.3724236546
C   C144      1.0  0.91090  0.63400  0.90989  1.0000 0.3724236546
C   C145      1.0  0.88630  0.07940  0.91222  1.0000 0.0896367794
C   C146      1.0  0.11370  0.42060  0.41222  1.0000 0.0896367794
C   C147      1.0  0.38630  0.92060  0.58778  1.0000 0.0896367794
C   C148      1.0  0.61370  0.57940  0.08778  1.0000 0.0896367794
C   C149      1.0  0.89980  0.12300  0.89996  1.0000 -0.1412463299
C   C150      1.0  0.10020  0.37700  0.39996  1.0000 -0.1412463299
C   C151      1.0  0.39980  0.87700  0.60004  1.0000 -0.1412463299
C   C152      1.0  0.60020  0.62300  0.10004  1.0000 -0.1412463299
C   C153      1.0  0.90330  0.04480  0.86697  1.0000 0.0896367794
C   C154      1.0  0.09670  0.45520  0.36697  1.0000 0.0896367794
C   C155      1.0  0.40330  0.95520  0.63303  1.0000 0.0896367794
C   C156      1.0  0.59670  0.54480  0.13303  1.0000 0.0896367794
C   C157      1.0  0.91760  0.08700  0.85323  1.0000 -0.1495150282
C   C158      1.0  0.08240  0.41300  0.35323  1.0000 -0.1495150282
C   C159      1.0  0.41760  0.91300  0.64677  1.0000 -0.1495150282
C   C160      1.0  0.58240  0.58700  0.14677  1.0000 -0.1495150282
C   C161      1.0  0.91390  0.12710  0.86995  1.0000 0.0604205595
C   C162      1.0  0.08610  0.37290  0.36995  1.0000 0.0604205595
C   C163      1.0  0.41390  0.87290  0.63005  1.0000 0.0604205595
C   C164      1.0  0.58610  0.62710  0.13005  1.0000 0.0604205595
C   C165      1.0  0.92650  0.17330  0.85606  1.0000 0.378369189
C   C166      1.0  0.07350  0.32670  0.35606  1.0000 0.378369189
C   C167      1.0  0.42650  0.82670  0.64394  1.0000 0.378369189
C   C168      1.0  0.57350  0.67330  0.14394  1.0000 0.378369189
C   C169      1.0  0.07540  0.18980  0.74285  1.0000 0.0809507609
C   C170      1.0  0.92460  0.31020  0.24285  1.0000 0.0809507609
C   C171      1.0  0.57540  0.81020  0.75715  1.0000 0.0809507609
C   C172      1.0  0.42460  0.68980  0.25715  1.0000 0.0809507609
C   C173      1.0  0.03720  0.18360  0.77091  1.0000 -0.160972888
C   C174      1.0  0.96280  0.31640  0.27091  1.0000 -0.1495150282
C   C175      1.0  0.53720  0.81640  0.72909  1.0000 -0.1495150282
C   C176      1.0  0.46280  0.68360  0.22909  1.0000 -0.1495150282
C   C177      1.0  0.02880  0.26580  0.74214  1.0000 0.1016693548
C   C178      1.0  0.97120  0.23420  0.24214  1.0000 0.1016693548
C   C179      1.0  0.52880  0.73420  0.75786  1.0000 0.1016693548
C   C180      1.0  0.47120  0.76580  0.25786  1.0000 0.1016693548
C   C181      1.0  0.99100  0.26240  0.77043  1.0000 -0.1495150282
C   C182      1.0  0.00900  0.23760  0.27043  1.0000 -0.1495150282
C   C183      1.0  0.49100  0.73760  0.72957  1.0000 -0.1495150282
C   C184      1.0  0.50900  0.76240  0.22957  1.0000 -0.1495150282
C   C185      1.0  0.99560  0.22040  0.78498  1.0000 0.0604205595
C   C186      1.0  0.00440  0.27960  0.28498  1.0000 0.0604205595
C   C187      1.0  0.49560  0.77960  0.71502  1.0000 0.0604205595
C   C188      1.0  0.50440  0.72040  0.21502  1.0000 0.0604205595
C   C189      1.0  0.96170  0.21650  0.81613  1.0000 0.378369189
C   C190      1.0  0.03830  0.28350  0.31613  1.0000 0.378369189
C   C191      1.0  0.46170  0.78350  0.68387  1.0000 0.378369189
C   C192      1.0  0.53830  0.71650  0.18387  1.0000 0.378369189
C   C193      1.0  0.90380  0.37670  0.87855  1.0000 0.0896367794
C   C194      1.0  0.09620  0.12330  0.37855  1.0000 0.0896367794
C   C195      1.0  0.40380  0.62330  0.62145  1.0000 0.0896367794
C   C196      1.0  0.59620  0.87670  0.12145  1.0000 0.0896367794
C   C197      1.0  0.91890  0.33700  0.86238  1.0000 -0.160972888
C   C198      1.0  0.08110  0.16300  0.36238  1.0000 -0.160972888
C   C199      1.0  0.41890  0.66300  0.63762  1.0000 -0.160972888
C   C200      1.0  0.58110  0.83700  0.13762  1.0000 -0.160972888
C   C201      1.0  0.87140  0.33490  0.92047  1.0000 0.0809507609
C   C202      1.0  0.12860  0.16510  0.42047  1.0000 0.0809507609
C   C203      1.0  0.37140  0.66510  0.57953  1.0000 0.0809507609
C   C204      1.0  0.62860  0.83490  0.07953  1.0000 0.0809507609
C   C205      1.0  0.88680  0.29350  0.90626  1.0000 -0.160972888
C   C206      1.0  0.11320  0.20650  0.40626  1.0000 -0.160972888
C   C207      1.0  0.38680  0.70650  0.59374  1.0000 -0.160972888
C   C208      1.0  0.61320  0.79350  0.09374  1.0000 -0.160972888
C   C209      1.0  0.90990  0.29430  0.87615  1.0000 0.0604205595
C   C210      1.0  0.09010  0.20570  0.37615  1.0000 0.0604205595
C   C211      1.0  0.40990  0.70570  0.62385  1.0000 0.0604205595
C   C212      1.0  0.59010  0.79430  0.12385  1.0000 0.0604205595
C   C213      1.0  0.92390  0.25080  0.85926  1.0000 0.3724236546
C   C214      1.0  0.07610  0.24920  0.35926  1.0000 0.3724236546
C   C215      1.0  0.42390  0.74920  0.64074  1.0000 0.3724236546
C   C216      1.0  0.57610  0.75080  0.14074  1.0000 0.3724236546
C   C217      1.0  0.62450  0.90670  0.00952  1.0000 0.0809507609
C   C218      1.0  0.37550  0.59330  0.50952  1.0000 0.0809507609
C   C219      1.0  0.12450  0.09330  0.49048  1.0000 0.0809507609
C   C220      1.0  0.87550  0.40670  0.99048  1.0000 0.0809507609
C   C221      1.0  0.57390  0.89660  0.98429  1.0000 -0.1495150282
C   C222      1.0  0.42610  0.60340  0.48429  1.0000 -0.1495150282
C   C223      1.0  0.07390  0.10340  0.51571  1.0000 -0.1495150282
C   C224      1.0  0.92610  0.39660  0.01571  1.0000 -0.1495150282
C   C225      1.0  0.49490  0.94550  0.02897  1.0000 0.0726410397
C   C226      1.0  0.50510  0.55450  0.52897  1.0000 0.0726410397
C   C227      1.0  0.99490  0.05450  0.47103  1.0000 0.0726410397
C   C228      1.0  0.00510  0.44550  0.97103  1.0000 0.0726410397
C   C229      1.0  0.43850  0.93640  0.00457  1.0000 -0.1412463299
C   C230      1.0  0.56150  0.56360  0.50457  1.0000 -0.1412463299
C   C231      1.0  0.93850  0.06360  0.49543  1.0000 -0.1412463299
C   C232      1.0  0.06150  0.43640  0.99543  1.0000 -0.1495150282
C   C233      1.0  0.47760  0.91040  0.98173  1.0000 0.0604205595
C   C234      1.0  0.52240  0.58960  0.48173  1.0000 0.0604205595
C   C235      1.0  0.97760  0.08960  0.51827  1.0000 0.0604205595
C   C236      1.0  0.02240  0.41040  0.01827  1.0000 0.0604205595
C   C237      1.0  0.41950  0.89840  0.95515  1.0000 0.3724236546
C   C238      1.0  0.58050  0.60160  0.45515  1.0000 0.3724236546
C   C239      1.0  0.91950  0.10160  0.54485  1.0000 0.3724236546
C   C240      1.0  0.08050  0.39840  0.04485  1.0000 0.3724236546
C   C241      1.0  0.03970  0.95760  0.94390  1.0000 0.0896367794
C   C242      1.0  0.96030  0.54240  0.44390  1.0000 0.0896367794
C   C243      1.0  0.53970  0.04240  0.55610  1.0000 0.0896367794
C   C244      1.0  0.46030  0.45760  0.05610  1.0000 0.0896367794
C   C245      1.0  0.13330  0.94160  0.94837  1.0000 -0.1260656517
C   C246      1.0  0.86670  0.55840  0.44837  1.0000 -0.1260656517
C   C247      1.0  0.63330  0.05840  0.55163  1.0000 -0.1260656517
C   C248      1.0  0.36670  0.44160  0.05163  1.0000 -0.1260656517
C   C249      1.0  0.02640  0.91900  0.90054  1.0000 0.0809507609
C   C250      1.0  0.97360  0.58100  0.40054  1.0000 0.0809507609
C   C251      1.0  0.52640  0.08100  0.59946  1.0000 0.0809507609
C   C252      1.0  0.47360  0.41900  0.09946  1.0000 0.0809507609
C   C253      1.0  0.11950  0.90110  0.90341  1.0000 -0.1205423587
C   C254      1.0  0.88050  0.59890  0.40341  1.0000 -0.1205423587
C   C255      1.0  0.61950  0.09890  0.59659  1.0000 -0.1205423587
C   C256      1.0  0.38050  0.40110  0.09659  1.0000 -0.1205423587
C   C257      1.0  0.17460  0.91300  0.92729  1.0000 0.0604205595
C   C258      1.0  0.82540  0.58700  0.42729  1.0000 0.0604205595
C   C259      1.0  0.67460  0.08700  0.57271  1.0000 0.0604205595
C   C260      1.0  0.32540  0.41300  0.07271  1.0000 0.0604205595
C   C261      1.0  0.27780  0.89840  0.93017  1.0000 0.3724236546
C   C262      1.0  0.72220  0.60160  0.43017  1.0000 0.3724236546
C   C263      1.0  0.77780  0.10160  0.56983  1.0000 0.3724236546
C   C264      1.0  0.22220  0.39840  0.06983  1.0000 0.3724236546
C   C265      1.0  0.46660  0.80110  0.84040  1.0000 0.0896367794
C   C266      1.0  0.53340  0.69890  0.34040  1.0000 0.0896367794
C   C267      1.0  0.96660  0.19890  0.65960  1.0000 0.0896367794
C   C268      1.0  0.03340  0.30110  0.15960  1.0000 0.0896367794
C   C269      1.0  0.41280  0.82250  0.86264  1.0000 -0.1205423587
C   C270      1.0  0.58720  0.67750  0.36264  1.0000 -0.1205423587
C   C271      1.0  0.91280  0.17750  0.63736  1.0000 -0.1205423587
C   C272      1.0  0.08720  0.32250  0.13736  1.0000 -0.1205423587
C   C273      1.0  0.60990  0.82290  0.86105  1.0000 0.0896367794
C   C274      1.0  0.39010  0.67710  0.36105  1.0000 0.0896367794
C   C275      1.0  0.10990  0.17710  0.63895  1.0000 0.0896367794
C   C276      1.0  0.89010  0.32290  0.13895  1.0000 0.0896367794
C   C277      1.0  0.56300  0.84430  0.88458  1.0000 -0.1205423587
C   C278      1.0  0.43700  0.65570  0.38458  1.0000 -0.1205423587
C   C279      1.0  0.06300  0.15570  0.61542  1.0000 -0.1205423587
C   C280      1.0  0.93700  0.34430  0.11542  1.0000 -0.1205423587
C   C281      1.0  0.46260  0.84370  0.88515  1.0000 0.0483083173
C   C282      1.0  0.53740  0.65630  0.38515  1.0000 0.0483083173
C   C283      1.0  0.96260  0.15630  0.61485  1.0000 0.0483083173
C   C284      1.0  0.03740  0.34370  0.11485  1.0000 0.0483083173
C   C285      1.0  0.41090  0.86600  0.90989  1.0000 0.3724236546
C   C286      1.0  0.58910  0.63400  0.40989  1.0000 0.3724236546
C   C287      1.0  0.91090  0.13400  0.59011  1.0000 0.3724236546
C   C288      1.0  0.08910  0.36600  0.09011  1.0000 0.3724236546
I   I1        1.0  0.21800  0.00838  0.03430  1.0000 -0.4659682948
I   I2        1.0  0.78200  0.49162  0.53430  1.0000 -0.4659682948
I   I3        1.0  0.71800  0.99162  0.46570  1.0000 -0.4659682948
I   I4        1.0  0.28200  0.50838  0.96570  1.0000 -0.4659682948
I   I5        1.0  0.23483  0.06891  0.12541  1.0000 -0.4395036034
I   I6        1.0  0.76517  0.43109  0.62541  1.0000 -0.4395036034
I   I7        1.0  0.73483  0.93109  0.37459  1.0000 -0.4395036034
I   I8        1.0  0.26517  0.56891  0.87459  1.0000 -0.4395036034
I   I9        1.0  0.34173  0.57434  0.06030  1.0000 -0.4763396855
I   I10       1.0  0.65827  0.92566  0.56030  1.0000 -0.4763396855
I   I11       1.0  0.84173  0.42566  0.43970  1.0000 -0.4763396855
I   I12       1.0  0.15827  0.07434  0.93970  1.0000 -0.4763396855
I   I13       1.0  0.08954  0.49685  0.10037  1.0000 -0.4395036034
I   I14       1.0  0.91046  0.00315  0.60037  1.0000 -0.4395036034
I   I15       1.0  0.58954  0.50315  0.39963  1.0000 -0.4395036034
I   I16       1.0  0.41046  0.99685  0.89963  1.0000 -0.4395036034
I   I17       1.0  0.69023  0.80126  0.30558  1.0000 -0.4659682948
I   I18       1.0  0.30977  0.69874  0.80558  1.0000 -0.4659682948
I   I19       1.0  0.19023  0.19874  0.19442  1.0000 -0.4659682948
I   I20       1.0  0.80977  0.30126  0.69442  1.0000 -0.4659682948
I   I21       1.0  0.86240  0.67836  0.32716  1.0000 -0.4592653911
I   I22       1.0  0.13760  0.82164  0.82716  1.0000 -0.4592653911
I   I23       1.0  0.36240  0.32164  0.17284  1.0000 -0.4592653911
I   I24       1.0  0.63760  0.17836  0.67284  1.0000 -0.4592653911
I   I25       1.0  0.78200  0.99162  0.96570  1.0000 -0.4659682948
I   I26       1.0  0.21800  0.50838  0.46570  1.0000 -0.4659682948
I   I27       1.0  0.28200  0.00838  0.53430  1.0000 -0.4659682948
I   I28       1.0  0.71800  0.49162  0.03430  1.0000 -0.4659682948
I   I29       1.0  0.76517  0.93109  0.87459  1.0000 -0.4395036034
I   I30       1.0  0.23483  0.56891  0.37459  1.0000 -0.4395036034
I   I31       1.0  0.26517  0.06891  0.62541  1.0000 -0.4395036034
I   I32       1.0  0.73483  0.43109  0.12541  1.0000 -0.4395036034
I   I33       1.0  0.65827  0.42566  0.93970  1.0000 -0.4763396855
I   I34       1.0  0.34173  0.07434  0.43970  1.0000 -0.4763396855
I   I35       1.0  0.15827  0.57434  0.56030  1.0000 -0.4763396855
I   I36       1.0  0.84173  0.92566  0.06030  1.0000 -0.4763396855
I   I37       1.0  0.91046  0.50315  0.89963  1.0000 -0.4395036034
I   I38       1.0  0.08954  0.99685  0.39963  1.0000 -0.4395036034
I   I39       1.0  0.41046  0.49685  0.60037  1.0000 -0.4395036034
I   I40       1.0  0.58954  0.00315  0.10037  1.0000 -0.4395036034
I   I41       1.0  0.30977  0.19874  0.69442  1.0000 -0.4659682948
I   I42       1.0  0.69023  0.30126  0.19442  1.0000 -0.4659682948
I   I43       1.0  0.80977  0.80126  0.80558  1.0000 -0.4659682948
I   I44       1.0  0.19023  0.69874  0.30558  1.0000 -0.4659682948
I   I45       1.0  0.13760  0.32164  0.67284  1.0000 -0.4592653911
I   I46       1.0  0.86240  0.17836  0.17284  1.0000 -0.4592653911
I   I47       1.0  0.63760  0.67836  0.82716  1.0000 -0.4592653911
I   I48       1.0  0.36240  0.82164  0.32716  1.0000 -0.4592653911
N   N1        1.0  0.11310  0.95930  0.10428  1.0000 -0.1806936853
N   N2        1.0  0.88690  0.54070  0.60428  1.0000 -0.1806936853
N   N3        1.0  0.61310  0.04070  0.39572  1.0000 -0.1806936853
N   N4        1.0  0.38690  0.45930  0.89572  1.0000 -0.1806936853
N   N5        1.0  0.92910  0.76990  0.27127  1.0000 -0.1806936853
N   N6        1.0  0.07090  0.73010  0.77127  1.0000 -0.1806936853
N   N7        1.0  0.42910  0.23010  0.22873  1.0000 -0.1806936853
N   N8        1.0  0.57090  0.26990  0.72873  1.0000 -0.1806936853
N   N9        1.0  0.12090  0.62400  0.09267  1.0000 -0.1882795271
N   N10       1.0  0.87910  0.87600  0.59267  1.0000 -0.1882795271
N   N11       1.0  0.62090  0.37600  0.40733  1.0000 -0.1882795271
N   N12       1.0  0.37910  0.12400  0.90733  1.0000 -0.1882795271
N   N13       1.0  0.04850  0.82590  0.17263  1.0000 -0.4176543461
N   N14       1.0  0.95150  0.67410  0.67263  1.0000 -0.4176543461
N   N15       1.0  0.54850  0.17410  0.32737  1.0000 -0.4176543461
N   N16       1.0  0.45150  0.32590  0.82737  1.0000 -0.4176543461
N   N17       1.0  0.05260  0.74427  0.16936  1.0000 -0.4176543461
N   N18       1.0  0.94740  0.75573  0.66936  1.0000 -0.4176543461
N   N19       1.0  0.55260  0.25573  0.33064  1.0000 -0.4176543461
N   N20       1.0  0.44740  0.24427  0.83064  1.0000 -0.4176543461
N   N21       1.0  0.08650  0.78930  0.12705  1.0000 -0.4134376969
N   N22       1.0  0.91350  0.71070  0.62705  1.0000 -0.4134376969
N   N23       1.0  0.58650  0.21070  0.37295  1.0000 -0.4134376969
N   N24       1.0  0.41350  0.28930  0.87295  1.0000 -0.4134376969
N   N25       1.0  0.43590  0.19910  0.16030  1.0000 -0.1806936853
N   N26       1.0  0.56410  0.30090  0.66030  1.0000 -0.1806936853
N   N27       1.0  0.93590  0.80090  0.33970  1.0000 -0.1806936853
N   N28       1.0  0.06410  0.69910  0.83970  1.0000 -0.1806936853
N   N29       1.0  0.41370  0.07010  0.96807  1.0000 -0.1806936853
N   N30       1.0  0.58630  0.42990  0.46807  1.0000 -0.1806936853
N   N31       1.0  0.91370  0.92990  0.53193  1.0000 -0.1806936853
N   N32       1.0  0.08630  0.57010  0.03193  1.0000 -0.1806936853
N   N33       1.0  0.01290  0.05333  0.07933  1.0000 -0.1806936853
N   N34       1.0  0.98710  0.44667  0.57933  1.0000 -0.1806936853
N   N35       1.0  0.51290  0.94667  0.42067  1.0000 -0.1806936853
N   N36       1.0  0.48710  0.55333  0.92067  1.0000 -0.1806936853
N   N37       1.0  0.53390  0.12300  0.06658  1.0000 -0.3866169814
N   N38       1.0  0.46610  0.37700  0.56658  1.0000 -0.3866169814
N   N39       1.0  0.03390  0.87700  0.43342  1.0000 -0.3866169814
N   N40       1.0  0.96610  0.62300  0.93342  1.0000 -0.3866169814
N   N41       1.0  0.67470  0.09040  0.04511  1.0000 -0.3813919749
N   N42       1.0  0.32530  0.40960  0.54511  1.0000 -0.3813919749
N   N43       1.0  0.17470  0.90960  0.45489  1.0000 -0.3813919749
N   N44       1.0  0.82530  0.59040  0.95489  1.0000 -0.3813919749
N   N45       1.0  0.68390  0.12467  0.09278  1.0000 -0.3713981424
N   N46       1.0  0.31610  0.37533  0.59278  1.0000 -0.3713981424
N   N47       1.0  0.18390  0.87533  0.40722  1.0000 -0.3713981424
N   N48       1.0  0.81610  0.62467  0.90722  1.0000 -0.3713981424
N   N49       1.0  0.88690  0.04070  0.89572  1.0000 -0.1806936853
N   N50       1.0  0.11310  0.45930  0.39572  1.0000 -0.1806936853
N   N51       1.0  0.38690  0.95930  0.60428  1.0000 -0.1806936853
N   N52       1.0  0.61310  0.54070  0.10428  1.0000 -0.1806936853
N   N53       1.0  0.07090  0.23010  0.72873  1.0000 -0.1806936853
N   N54       1.0  0.92910  0.26990  0.22873  1.0000 -0.1806936853
N   N55       1.0  0.57090  0.76990  0.77127  1.0000 -0.1806936853
N   N56       1.0  0.42910  0.73010  0.27127  1.0000 -0.1806936853
N   N57       1.0  0.87910  0.37600  0.90733  1.0000 -0.1882795271
N   N58       1.0  0.12090  0.12400  0.40733  1.0000 -0.1882795271
N   N59       1.0  0.37910  0.62400  0.59267  1.0000 -0.1882795271
N   N60       1.0  0.62090  0.87600  0.09267  1.0000 -0.1882795271
N   N61       1.0  0.95150  0.17410  0.82737  1.0000 -0.4176543461
N   N62       1.0  0.04850  0.32590  0.32737  1.0000 -0.4176543461
N   N63       1.0  0.45150  0.82590  0.67263  1.0000 -0.4176543461
N   N64       1.0  0.54850  0.67410  0.17263  1.0000 -0.4176543461
N   N65       1.0  0.94740  0.25573  0.83064  1.0000 -0.4176543461
N   N66       1.0  0.05260  0.24427  0.33064  1.0000 -0.4176543461
N   N67       1.0  0.44740  0.74427  0.66936  1.0000 -0.4134376969
N   N68       1.0  0.55260  0.75573  0.16936  1.0000 -0.4176543461
N   N69       1.0  0.91350  0.21070  0.87295  1.0000 -0.4134376969
N   N70       1.0  0.08650  0.28930  0.37295  1.0000 -0.4134376969
N   N71       1.0  0.41350  0.78930  0.62705  1.0000 -0.4134376969
N   N72       1.0  0.58650  0.71070  0.12705  1.0000 -0.4134376969
N   N73       1.0  0.56410  0.80090  0.83970  1.0000 -0.1806936853
N   N74       1.0  0.43590  0.69910  0.33970  1.0000 -0.1806936853
N   N75       1.0  0.06410  0.19910  0.66030  1.0000 -0.1806936853
N   N76       1.0  0.93590  0.30090  0.16030  1.0000 -0.1806936853
N   N77       1.0  0.58630  0.92990  0.03193  1.0000 -0.1806936853
N   N78       1.0  0.41370  0.57010  0.53193  1.0000 -0.1806936853
N   N79       1.0  0.08630  0.07010  0.46807  1.0000 -0.1806936853
N   N80       1.0  0.91370  0.42990  0.96807  1.0000 -0.1806936853
N   N81       1.0  0.98710  0.94667  0.92067  1.0000 -0.1806936853
N   N82       1.0  0.01290  0.55333  0.42067  1.0000 -0.1806936853
N   N83       1.0  0.48710  0.05333  0.57933  1.0000 -0.1806936853
N   N84       1.0  0.51290  0.44667  0.07933  1.0000 -0.1806936853
N   N85       1.0  0.46610  0.87700  0.93342  1.0000 -0.3866169814
N   N86       1.0  0.53390  0.62300  0.43342  1.0000 -0.3866169814
N   N87       1.0  0.96610  0.12300  0.56658  1.0000 -0.3866169814
N   N88       1.0  0.03390  0.37700  0.06658  1.0000 -0.3866169814
N   N89       1.0  0.32530  0.90960  0.95489  1.0000 -0.3813919749
N   N90       1.0  0.67470  0.59040  0.45489  1.0000 -0.3813919749
N   N91       1.0  0.82530  0.09040  0.54511  1.0000 -0.3813919749
N   N92       1.0  0.17470  0.40960  0.04511  1.0000 -0.3813919749
N   N93       1.0  0.31610  0.87533  0.90722  1.0000 -0.3713981424
N   N94       1.0  0.68390  0.62467  0.40722  1.0000 -0.3713981424
N   N95       1.0  0.81610  0.12467  0.59278  1.0000 -0.3713981424
N   N96       1.0  0.18390  0.37533  0.09278  1.0000 -0.3713981424
