# DDEC6 charges by PACMAN v1.1 (https://github.com/mtap-research/PACMAN-charge/)
data_2008[ZnCo][pcu]3[FSR]1
_chemical_formula_sum              "Zn8 Co8 H104 C192 N16 O72"
_cell_length_a       13.8637
_cell_length_b       18.9411
_cell_length_c       19.0079
_cell_angle_alpha    90
_cell_angle_beta     90
_cell_angle_gamma    90

_symmetry_space_group_name_H-M    "P 1"
_symmetry_Int_Tables_number       1

loop_
  _symmetry_equiv_pos_as_xyz
  'x, y, z'

loop_
  _atom_site_type_symbol
  _atom_site_label
  _atom_site_symmetry_multiplicity
  _atom_site_fract_x
  _atom_site_fract_y
  _atom_site_fract_z
  _atom_site_occupancy
  _atom_site_charge
Zn  Zn1       1.0  0.86485  0.89688  0.93150  1.0000 0.9232493706
Zn  Zn2       1.0  0.13515  0.39688  0.56850  1.0000 0.9232493706
Zn  Zn3       1.0  0.13515  0.10312  0.06850  1.0000 0.9232493706
Zn  Zn4       1.0  0.86485  0.60312  0.43150  1.0000 0.9232493706
Zn  Zn5       1.0  0.63516  0.10312  0.43150  1.0000 0.9232493706
Zn  Zn6       1.0  0.36484  0.60312  0.06850  1.0000 0.9232493706
Zn  Zn7       1.0  0.36484  0.89688  0.56850  1.0000 0.9232493706
Zn  Zn8       1.0  0.63516  0.39688  0.93150  1.0000 0.9232493706
Co  Co1       1.0  0.90355  0.48311  0.54344  1.0000 0.8622234679
Co  Co2       1.0  0.09645  0.98311  0.95656  1.0000 0.8622234679
Co  Co3       1.0  0.09645  0.51689  0.45656  1.0000 0.8622234679
Co  Co4       1.0  0.90355  0.01689  0.04344  1.0000 0.8622234679
Co  Co5       1.0  0.59645  0.51689  0.04344  1.0000 0.8622234679
Co  Co6       1.0  0.40356  0.01689  0.45656  1.0000 0.8622234679
Co  Co7       1.0  0.40356  0.48311  0.95656  1.0000 0.8622234679
Co  Co8       1.0  0.59645  0.98311  0.54344  1.0000 0.8622234679
H   H1        1.0  0.91311  0.71820  0.79860  1.0000 0.1196813761
H   H2        1.0  0.08690  0.21820  0.70140  1.0000 0.1196813761
H   H3        1.0  0.08690  0.28180  0.20140  1.0000 0.1196813761
H   H4        1.0  0.91311  0.78180  0.29860  1.0000 0.1196813761
H   H5        1.0  0.92021  0.63500  0.71050  1.0000 0.1196813761
H   H6        1.0  0.07980  0.13500  0.78950  1.0000 0.1196813761
H   H7        1.0  0.07980  0.36500  0.28950  1.0000 0.1196813761
H   H8        1.0  0.92021  0.86500  0.21050  1.0000 0.1196813761
H   H9        1.0  0.87771  0.78590  0.56710  1.0000 0.1196813761
H   H10       1.0  0.12230  0.28590  0.93290  1.0000 0.1196813761
H   H11       1.0  0.12230  0.21410  0.43290  1.0000 0.1196813761
H   H12       1.0  0.87771  0.71410  0.06710  1.0000 0.1196813761
H   H13       1.0  0.87491  0.86920  0.65580  1.0000 0.1139196075
H   H14       1.0  0.12510  0.36920  0.84420  1.0000 0.1139196075
H   H15       1.0  0.12510  0.13080  0.34420  1.0000 0.1139196075
H   H16       1.0  0.87491  0.63080  0.15580  1.0000 0.1139196075
H   H17       1.0  0.61211  0.06670  0.05820  1.0000 0.1196813761
H   H18       1.0  0.38789  0.56670  0.44180  1.0000 0.1196813761
H   H19       1.0  0.38789  0.93330  0.94180  1.0000 0.1196813761
H   H20       1.0  0.61211  0.43330  0.55820  1.0000 0.1196813761
H   H21       1.0  0.54890  0.91080  0.92620  1.0000 0.1196813761
H   H22       1.0  0.45110  0.41080  0.57380  1.0000 0.1196813761
H   H23       1.0  0.45110  0.08920  0.07380  1.0000 0.1196813761
H   H24       1.0  0.54890  0.58920  0.42620  1.0000 0.1196813761
H   H25       1.0  0.88351  0.36660  0.42090  1.0000 0.1196813761
H   H26       1.0  0.11650  0.86660  0.07910  1.0000 0.1196813761
H   H27       1.0  0.11650  0.63340  0.57910  1.0000 0.1196813761
H   H28       1.0  0.88351  0.13340  0.92090  1.0000 0.1196813761
H   H29       1.0  0.85701  0.24760  0.40980  1.0000 0.1394255054
H   H30       1.0  0.14300  0.74760  0.09020  1.0000 0.1394255054
H   H31       1.0  0.14300  0.75240  0.59020  1.0000 0.1394255054
H   H32       1.0  0.85701  0.25240  0.90980  1.0000 0.1394255054
H   H33       1.0  0.84871  0.17800  0.50910  1.0000 0.128795176
H   H34       1.0  0.15130  0.67800  0.99090  1.0000 0.128795176
H   H35       1.0  0.15130  0.82200  0.49090  1.0000 0.128795176
H   H36       1.0  0.84871  0.32200  0.00910  1.0000 0.128795176
H   H37       1.0  0.84671  0.34990  0.81740  1.0000 0.128795176
H   H38       1.0  0.15329  0.84990  0.68260  1.0000 0.128795176
H   H39       1.0  0.15329  0.65010  0.18260  1.0000 0.128795176
H   H40       1.0  0.84671  0.15010  0.31740  1.0000 0.128795176
H   H41       1.0  0.85481  0.47080  0.81140  1.0000 0.1394255054
H   H42       1.0  0.14519  0.97080  0.68860  1.0000 0.1394255054
H   H43       1.0  0.14519  0.52920  0.18860  1.0000 0.1394255054
H   H44       1.0  0.85481  0.02920  0.31140  1.0000 0.1394255054
H   H45       1.0  0.87611  0.52410  0.70340  1.0000 0.1139196075
H   H46       1.0  0.12390  0.02410  0.79660  1.0000 0.1139196075
H   H47       1.0  0.12390  0.47590  0.29660  1.0000 0.1139196075
H   H48       1.0  0.87611  0.97590  0.20340  1.0000 0.1139196075
H   H49       1.0  0.93621  0.00240  0.91440  1.0000 0.3525662787
H   H50       1.0  0.06380  0.50240  0.58560  1.0000 0.3525662787
H   H51       1.0  0.06380  0.99760  0.08560  1.0000 0.3525662787
H   H52       1.0  0.93621  0.49760  0.41440  1.0000 0.3525662787
H   H53       1.0  0.58689  0.28180  0.29860  1.0000 0.1196813761
H   H54       1.0  0.41310  0.78180  0.20140  1.0000 0.1196813761
H   H55       1.0  0.41310  0.71820  0.70140  1.0000 0.1196813761
H   H56       1.0  0.58689  0.21820  0.79860  1.0000 0.1196813761
H   H57       1.0  0.57979  0.36500  0.21050  1.0000 0.1196813761
H   H58       1.0  0.42020  0.86500  0.28950  1.0000 0.1196813761
H   H59       1.0  0.42020  0.63500  0.78950  1.0000 0.1196813761
H   H60       1.0  0.57979  0.13500  0.71050  1.0000 0.1196813761
H   H61       1.0  0.62230  0.21410  0.06710  1.0000 0.1196813761
H   H62       1.0  0.37771  0.71410  0.43290  1.0000 0.1196813761
H   H63       1.0  0.37771  0.78590  0.93290  1.0000 0.1196813761
H   H64       1.0  0.62230  0.28590  0.56710  1.0000 0.1196813761
H   H65       1.0  0.62509  0.13080  0.15580  1.0000 0.1139196075
H   H66       1.0  0.37490  0.63080  0.34420  1.0000 0.1139196075
H   H67       1.0  0.37490  0.86920  0.84420  1.0000 0.1139196075
H   H68       1.0  0.62509  0.36920  0.65580  1.0000 0.1139196075
H   H69       1.0  0.88789  0.93330  0.55820  1.0000 0.1196813761
H   H70       1.0  0.11211  0.43330  0.94180  1.0000 0.1196813761
H   H71       1.0  0.11211  0.06670  0.44180  1.0000 0.1196813761
H   H72       1.0  0.88789  0.56670  0.05820  1.0000 0.1196813761
H   H73       1.0  0.95110  0.08920  0.42620  1.0000 0.1196813761
H   H74       1.0  0.04891  0.58920  0.07380  1.0000 0.1196813761
H   H75       1.0  0.04891  0.91080  0.57380  1.0000 0.1196813761
H   H76       1.0  0.95110  0.41080  0.92620  1.0000 0.1196813761
H   H77       1.0  0.61650  0.63340  0.92090  1.0000 0.1196813761
H   H78       1.0  0.38350  0.13340  0.57910  1.0000 0.1196813761
H   H79       1.0  0.38350  0.36660  0.07910  1.0000 0.1196813761
H   H80       1.0  0.61650  0.86660  0.42090  1.0000 0.1196813761
H   H81       1.0  0.64299  0.75240  0.90980  1.0000 0.1394255054
H   H82       1.0  0.35701  0.25240  0.59020  1.0000 0.1394255054
H   H83       1.0  0.35701  0.24760  0.09020  1.0000 0.1394255054
H   H84       1.0  0.64299  0.74760  0.40980  1.0000 0.1394255054
H   H85       1.0  0.65130  0.82200  0.00910  1.0000 0.128795176
H   H86       1.0  0.34870  0.32200  0.49090  1.0000 0.128795176
H   H87       1.0  0.34870  0.17800  0.99090  1.0000 0.128795176
H   H88       1.0  0.65130  0.67800  0.50910  1.0000 0.128795176
H   H89       1.0  0.65330  0.65010  0.31740  1.0000 0.128795176
H   H90       1.0  0.34670  0.15010  0.18260  1.0000 0.128795176
H   H91       1.0  0.34670  0.34990  0.68260  1.0000 0.128795176
H   H92       1.0  0.65330  0.84990  0.81740  1.0000 0.128795176
H   H93       1.0  0.64520  0.52920  0.31140  1.0000 0.1394255054
H   H94       1.0  0.35480  0.02920  0.18860  1.0000 0.1394255054
H   H95       1.0  0.35480  0.47080  0.68860  1.0000 0.1394255054
H   H96       1.0  0.64520  0.97080  0.81140  1.0000 0.1394255054
H   H97       1.0  0.62390  0.47590  0.20340  1.0000 0.1139196075
H   H98       1.0  0.37611  0.97590  0.29660  1.0000 0.1139196075
H   H99       1.0  0.37611  0.52410  0.79660  1.0000 0.1139196075
H   H100      1.0  0.62390  0.02410  0.70340  1.0000 0.1139196075
H   H101      1.0  0.56380  0.99760  0.41440  1.0000 0.3525662787
H   H102      1.0  0.43621  0.49760  0.08560  1.0000 0.3525662787
H   H103      1.0  0.43621  0.00240  0.58560  1.0000 0.3525662787
H   H104      1.0  0.56380  0.50240  0.91440  1.0000 0.3525662787
C   C1        1.0  0.88653  0.85637  0.79349  1.0000 0.5422413416
C   C2        1.0  0.11347  0.35637  0.70651  1.0000 0.5422413416
C   C3        1.0  0.11347  0.14363  0.20651  1.0000 0.5422413416
C   C4        1.0  0.88653  0.64363  0.29349  1.0000 0.5422413416
C   C5        1.0  0.89238  0.80174  0.73633  1.0000 -0.0199869702
C   C6        1.0  0.10762  0.30174  0.76367  1.0000 -0.0199869702
C   C7        1.0  0.10762  0.19826  0.26367  1.0000 -0.0199869702
C   C8        1.0  0.89238  0.69826  0.23633  1.0000 -0.0199869702
C   C9        1.0  0.90611  0.73210  0.75197  1.0000 -0.0996794435
C   C10       1.0  0.09390  0.23210  0.74803  1.0000 -0.0996794435
C   C11       1.0  0.09390  0.26790  0.24803  1.0000 -0.0996794435
C   C12       1.0  0.90611  0.76790  0.25197  1.0000 -0.0996794435
C   C13       1.0  0.90951  0.68213  0.69920  1.0000 -0.0904740941
C   C14       1.0  0.09050  0.18213  0.80080  1.0000 -0.0904740941
C   C15       1.0  0.09050  0.31787  0.30080  1.0000 -0.0904740941
C   C16       1.0  0.90951  0.81787  0.19920  1.0000 -0.0904740941
C   C17       1.0  0.89716  0.70143  0.62972  1.0000 -0.0310040363
C   C18       1.0  0.10283  0.20143  0.87028  1.0000 -0.0310040363
C   C19       1.0  0.10283  0.29857  0.37028  1.0000 -0.0310040363
C   C20       1.0  0.89716  0.79857  0.12972  1.0000 -0.0310040363
C   C21       1.0  0.88470  0.77186  0.61375  1.0000 -0.1205878862
C   C22       1.0  0.11529  0.27186  0.88625  1.0000 -0.1205878862
C   C23       1.0  0.11529  0.22814  0.38625  1.0000 -0.1205878862
C   C24       1.0  0.88470  0.72814  0.11375  1.0000 -0.1205878862
C   C25       1.0  0.88280  0.82178  0.66693  1.0000 -0.1284485839
C   C26       1.0  0.11719  0.32178  0.83307  1.0000 -0.1284485839
C   C27       1.0  0.11719  0.17822  0.33307  1.0000 -0.1284485839
C   C28       1.0  0.88280  0.67822  0.16693  1.0000 -0.1284485839
C   C29       1.0  0.89562  0.64619  0.57274  1.0000 0.57738804
C   C30       1.0  0.10439  0.14619  0.92726  1.0000 0.57738804
C   C31       1.0  0.10439  0.35381  0.42726  1.0000 0.57738804
C   C32       1.0  0.89562  0.85381  0.07274  1.0000 0.57738804
C   C33       1.0  0.70347  0.97237  0.98325  1.0000 0.586773894
C   C34       1.0  0.29653  0.47237  0.51675  1.0000 0.586773894
C   C35       1.0  0.29653  0.02763  0.01675  1.0000 0.586773894
C   C36       1.0  0.70347  0.52763  0.48325  1.0000 0.586773894
C   C37       1.0  0.59798  0.98630  0.99091  1.0000 -0.0199869702
C   C38       1.0  0.40202  0.48630  0.50909  1.0000 -0.0199869702
C   C39       1.0  0.40202  0.01370  0.00909  1.0000 -0.0199869702
C   C40       1.0  0.59798  0.51370  0.49091  1.0000 -0.0199869702
C   C41       1.0  0.56690  0.03934  0.03445  1.0000 -0.0996794435
C   C42       1.0  0.43310  0.53934  0.46555  1.0000 -0.0996794435
C   C43       1.0  0.43310  0.96066  0.96555  1.0000 -0.0996794435
C   C44       1.0  0.56690  0.46066  0.53445  1.0000 -0.0996794435
C   C45       1.0  0.52968  0.94699  0.95624  1.0000 -0.1052416776
C   C46       1.0  0.47032  0.44699  0.54376  1.0000 -0.1052416776
C   C47       1.0  0.47032  0.05301  0.04376  1.0000 -0.1052416776
C   C48       1.0  0.52968  0.55301  0.45624  1.0000 -0.1052416776
C   C49       1.0  0.87811  0.33925  0.46130  1.0000 0.1009405248
C   C50       1.0  0.12190  0.83925  0.03870  1.0000 0.1009405248
C   C51       1.0  0.12190  0.66075  0.53870  1.0000 0.1009405248
C   C52       1.0  0.87811  0.16075  0.96130  1.0000 0.1009405248
C   C53       1.0  0.86311  0.26767  0.45420  1.0000 -0.1205878862
C   C54       1.0  0.13689  0.76767  0.04580  1.0000 -0.1205878862
C   C55       1.0  0.13689  0.73233  0.54580  1.0000 -0.1205878862
C   C56       1.0  0.86311  0.23233  0.95420  1.0000 -0.1205878862
C   C57       1.0  0.85720  0.22655  0.51310  1.0000 -0.0310040363
C   C58       1.0  0.14280  0.72655  0.98690  1.0000 -0.0310040363
C   C59       1.0  0.14280  0.77345  0.48690  1.0000 -0.0310040363
C   C60       1.0  0.85720  0.27345  0.01310  1.0000 -0.0310040363
C   C61       1.0  0.86401  0.25758  0.57873  1.0000 -0.0712230884
C   C62       1.0  0.13600  0.75758  0.92127  1.0000 -0.0712230884
C   C63       1.0  0.13600  0.74242  0.42127  1.0000 -0.0712230884
C   C64       1.0  0.86401  0.24242  0.07873  1.0000 -0.0712230884
C   C65       1.0  0.85641  0.21607  0.64400  1.0000 0.2696664699
C   C66       1.0  0.14360  0.71607  0.85600  1.0000 0.2696664699
C   C67       1.0  0.14360  0.78393  0.35600  1.0000 0.2696664699
C   C68       1.0  0.85641  0.28393  0.14400  1.0000 0.2696664699
C   C69       1.0  0.85461  0.25502  0.71470  1.0000 0.2757818319
C   C70       1.0  0.14539  0.75502  0.78530  1.0000 0.2757818319
C   C71       1.0  0.14539  0.74498  0.28530  1.0000 0.2757818319
C   C72       1.0  0.85461  0.24498  0.21470  1.0000 0.2757818319
C   C73       1.0  0.86216  0.33292  0.71319  1.0000 -0.0712230884
C   C74       1.0  0.13784  0.83292  0.78681  1.0000 -0.0712230884
C   C75       1.0  0.13784  0.66708  0.28681  1.0000 -0.0712230884
C   C76       1.0  0.86216  0.16708  0.21319  1.0000 -0.0712230884
C   C77       1.0  0.85491  0.37230  0.77426  1.0000 -0.0412959361
C   C78       1.0  0.14510  0.87230  0.72574  1.0000 -0.0412959361
C   C79       1.0  0.14510  0.62770  0.22574  1.0000 -0.0412959361
C   C80       1.0  0.85491  0.12770  0.27426  1.0000 -0.0412959361
C   C81       1.0  0.85981  0.44350  0.77087  1.0000 -0.0996794435
C   C82       1.0  0.14019  0.94350  0.72913  1.0000 -0.0996794435
C   C83       1.0  0.14019  0.55650  0.22913  1.0000 -0.0996794435
C   C84       1.0  0.85981  0.05650  0.27087  1.0000 -0.0996794435
C   C85       1.0  0.87250  0.47514  0.70555  1.0000 0.1196813761
C   C86       1.0  0.12749  0.97514  0.79445  1.0000 0.1196813761
C   C87       1.0  0.12749  0.52486  0.29445  1.0000 0.1196813761
C   C88       1.0  0.87250  0.02486  0.20555  1.0000 0.1196813761
C   C89       1.0  0.87406  0.36825  0.64964  1.0000 0.1394255054
C   C90       1.0  0.12595  0.86825  0.85036  1.0000 0.1394255054
C   C91       1.0  0.12595  0.63175  0.35036  1.0000 0.1394255054
C   C92       1.0  0.87406  0.13175  0.14964  1.0000 0.1394255054
C   C93       1.0  0.87621  0.33096  0.58177  1.0000 0.1514095731
C   C94       1.0  0.12380  0.83096  0.91823  1.0000 0.1514095731
C   C95       1.0  0.12380  0.66904  0.41823  1.0000 0.1514095731
C   C96       1.0  0.87621  0.16904  0.08177  1.0000 0.1514095731
C   C97       1.0  0.61347  0.14363  0.29349  1.0000 0.5422413416
C   C98       1.0  0.38654  0.64363  0.20651  1.0000 0.5422413416
C   C99       1.0  0.38654  0.85637  0.70651  1.0000 0.5422413416
C   C100      1.0  0.61347  0.35637  0.79349  1.0000 0.5422413416
C   C101      1.0  0.60762  0.19826  0.23633  1.0000 -0.0199869702
C   C102      1.0  0.39238  0.69826  0.26367  1.0000 -0.0199869702
C   C103      1.0  0.39238  0.80174  0.76367  1.0000 -0.0199869702
C   C104      1.0  0.60762  0.30174  0.73633  1.0000 -0.0199869702
C   C105      1.0  0.59389  0.26790  0.25197  1.0000 -0.0996794435
C   C106      1.0  0.40611  0.76790  0.24803  1.0000 -0.0996794435
C   C107      1.0  0.40611  0.73210  0.74803  1.0000 -0.0996794435
C   C108      1.0  0.59389  0.23210  0.75197  1.0000 -0.0996794435
C   C109      1.0  0.59050  0.31787  0.19920  1.0000 -0.0904740941
C   C110      1.0  0.40951  0.81787  0.30080  1.0000 -0.0904740941
C   C111      1.0  0.40951  0.68213  0.80080  1.0000 -0.0904740941
C   C112      1.0  0.59050  0.18213  0.69920  1.0000 -0.0904740941
C   C113      1.0  0.60284  0.29857  0.12972  1.0000 -0.0310040363
C   C114      1.0  0.39717  0.79857  0.37028  1.0000 -0.0310040363
C   C115      1.0  0.39717  0.70143  0.87028  1.0000 -0.0310040363
C   C116      1.0  0.60284  0.20143  0.62972  1.0000 -0.0310040363
C   C117      1.0  0.61530  0.22814  0.11375  1.0000 -0.1205878862
C   C118      1.0  0.38471  0.72814  0.38625  1.0000 -0.1205878862
C   C119      1.0  0.38471  0.77186  0.88625  1.0000 -0.1205878862
C   C120      1.0  0.61530  0.27186  0.61375  1.0000 -0.1205878862
C   C121      1.0  0.61720  0.17822  0.16693  1.0000 -0.1284485839
C   C122      1.0  0.38281  0.67822  0.33307  1.0000 -0.1284485839
C   C123      1.0  0.38281  0.82178  0.83307  1.0000 -0.1284485839
C   C124      1.0  0.61720  0.32178  0.66693  1.0000 -0.1284485839
C   C125      1.0  0.60439  0.35381  0.07274  1.0000 0.57738804
C   C126      1.0  0.39562  0.85381  0.42726  1.0000 0.57738804
C   C127      1.0  0.39562  0.64619  0.92726  1.0000 0.57738804
C   C128      1.0  0.60439  0.14619  0.57274  1.0000 0.57738804
C   C129      1.0  0.79653  0.02763  0.48325  1.0000 0.586773894
C   C130      1.0  0.20347  0.52763  0.01675  1.0000 0.586773894
C   C131      1.0  0.20347  0.97237  0.51675  1.0000 0.586773894
C   C132      1.0  0.79653  0.47237  0.98325  1.0000 0.586773894
C   C133      1.0  0.90202  0.01370  0.49091  1.0000 -0.0199869702
C   C134      1.0  0.09799  0.51370  0.00909  1.0000 -0.0199869702
C   C135      1.0  0.09799  0.98630  0.50909  1.0000 -0.0199869702
C   C136      1.0  0.90202  0.48630  0.99091  1.0000 -0.0199869702
C   C137      1.0  0.93310  0.96066  0.53445  1.0000 -0.0996794435
C   C138      1.0  0.06691  0.46066  0.96555  1.0000 -0.0996794435
C   C139      1.0  0.06691  0.03934  0.46555  1.0000 -0.0996794435
C   C140      1.0  0.93310  0.53934  0.03445  1.0000 -0.0996794435
C   C141      1.0  0.97032  0.05301  0.45624  1.0000 -0.1052416776
C   C142      1.0  0.02968  0.55301  0.04376  1.0000 -0.1052416776
C   C143      1.0  0.02968  0.94699  0.54376  1.0000 -0.1052416776
C   C144      1.0  0.97032  0.44699  0.95624  1.0000 -0.1052416776
C   C145      1.0  0.62190  0.66075  0.96130  1.0000 0.1009405248
C   C146      1.0  0.37811  0.16075  0.53870  1.0000 0.1009405248
C   C147      1.0  0.37811  0.33925  0.03870  1.0000 0.1009405248
C   C148      1.0  0.62190  0.83925  0.46130  1.0000 0.1009405248
C   C149      1.0  0.63689  0.73233  0.95420  1.0000 -0.1205878862
C   C150      1.0  0.36311  0.23233  0.54580  1.0000 -0.1205878862
C   C151      1.0  0.36311  0.26767  0.04580  1.0000 -0.1205878862
C   C152      1.0  0.63689  0.76767  0.45420  1.0000 -0.1205878862
C   C153      1.0  0.64280  0.77345  0.01310  1.0000 -0.0310040363
C   C154      1.0  0.35720  0.27345  0.48690  1.0000 -0.0310040363
C   C155      1.0  0.35720  0.22655  0.98690  1.0000 -0.0310040363
C   C156      1.0  0.64280  0.72655  0.51310  1.0000 -0.0310040363
C   C157      1.0  0.63599  0.74242  0.07873  1.0000 -0.0712230884
C   C158      1.0  0.36401  0.24242  0.42127  1.0000 -0.0712230884
C   C159      1.0  0.36401  0.25758  0.92127  1.0000 -0.0712230884
C   C160      1.0  0.63599  0.75758  0.57873  1.0000 -0.0712230884
C   C161      1.0  0.64360  0.78393  0.14400  1.0000 0.2696664699
C   C162      1.0  0.35641  0.28393  0.35600  1.0000 0.2696664699
C   C163      1.0  0.35641  0.21607  0.85600  1.0000 0.2696664699
C   C164      1.0  0.64360  0.71607  0.64400  1.0000 0.2696664699
C   C165      1.0  0.64540  0.74498  0.21470  1.0000 0.2757818319
C   C166      1.0  0.35461  0.24498  0.28530  1.0000 0.2757818319
C   C167      1.0  0.35461  0.25502  0.78530  1.0000 0.2757818319
C   C168      1.0  0.64540  0.75502  0.71470  1.0000 0.2757818319
C   C169      1.0  0.63784  0.66708  0.21319  1.0000 -0.0712230884
C   C170      1.0  0.36216  0.16708  0.28681  1.0000 -0.0712230884
C   C171      1.0  0.36216  0.33292  0.78681  1.0000 -0.0712230884
C   C172      1.0  0.63784  0.83292  0.71319  1.0000 -0.0712230884
C   C173      1.0  0.64509  0.62770  0.27426  1.0000 -0.0412959361
C   C174      1.0  0.35491  0.12770  0.22574  1.0000 -0.0412959361
C   C175      1.0  0.35491  0.37230  0.72574  1.0000 -0.0412959361
C   C176      1.0  0.64509  0.87230  0.77426  1.0000 -0.0412959361
C   C177      1.0  0.64019  0.55650  0.27087  1.0000 -0.0996794435
C   C178      1.0  0.35980  0.05650  0.22913  1.0000 -0.0996794435
C   C179      1.0  0.35980  0.44350  0.72913  1.0000 -0.0996794435
C   C180      1.0  0.64019  0.94350  0.77087  1.0000 -0.0996794435
C   C181      1.0  0.62750  0.52486  0.20555  1.0000 0.1196813761
C   C182      1.0  0.37250  0.02486  0.29445  1.0000 0.1196813761
C   C183      1.0  0.37250  0.47514  0.79445  1.0000 0.1196813761
C   C184      1.0  0.62750  0.97514  0.70555  1.0000 0.1196813761
C   C185      1.0  0.62594  0.63175  0.14964  1.0000 0.1394255054
C   C186      1.0  0.37406  0.13175  0.35036  1.0000 0.1394255054
C   C187      1.0  0.37406  0.36825  0.85036  1.0000 0.1394255054
C   C188      1.0  0.62594  0.86825  0.64964  1.0000 0.1394255054
C   C189      1.0  0.62379  0.66904  0.08177  1.0000 0.1514095731
C   C190      1.0  0.37621  0.16904  0.41823  1.0000 0.1514095731
C   C191      1.0  0.37621  0.33096  0.91823  1.0000 0.1514095731
C   C192      1.0  0.62379  0.83096  0.58177  1.0000 0.1514095731
N   N1        1.0  0.88540  0.37097  0.52395  1.0000 -0.2852232911
N   N2        1.0  0.11461  0.87097  0.97605  1.0000 -0.2852232911
N   N3        1.0  0.11461  0.62903  0.47605  1.0000 -0.2852232911
N   N4        1.0  0.88540  0.12903  0.02395  1.0000 -0.2852232911
N   N5        1.0  0.87979  0.43882  0.64602  1.0000 -0.2604028813
N   N6        1.0  0.12022  0.93882  0.85398  1.0000 -0.2604028813
N   N7        1.0  0.12022  0.56118  0.35398  1.0000 -0.2604028813
N   N8        1.0  0.87979  0.06118  0.14602  1.0000 -0.2604028813
N   N9        1.0  0.61461  0.62903  0.02395  1.0000 -0.2852232911
N   N10       1.0  0.38539  0.12903  0.47605  1.0000 -0.2852232911
N   N11       1.0  0.38539  0.37097  0.97605  1.0000 -0.2852232911
N   N12       1.0  0.61461  0.87097  0.52395  1.0000 -0.2852232911
N   N13       1.0  0.62021  0.56118  0.14602  1.0000 -0.2604028813
N   N14       1.0  0.37978  0.06118  0.35398  1.0000 -0.2604028813
N   N15       1.0  0.37978  0.43882  0.85398  1.0000 -0.2604028813
N   N16       1.0  0.62021  0.93882  0.64602  1.0000 -0.2604028813
O   O1        1.0  0.88731  0.83215  0.85580  1.0000 -0.5499661398
O   O2        1.0  0.11270  0.33215  0.64420  1.0000 -0.5499661398
O   O3        1.0  0.11270  0.16785  0.14420  1.0000 -0.5499661398
O   O4        1.0  0.88731  0.66785  0.35580  1.0000 -0.5499661398
O   O5        1.0  0.88092  0.91885  0.77868  1.0000 -0.5324995078
O   O6        1.0  0.11909  0.41885  0.72132  1.0000 -0.5324995078
O   O7        1.0  0.11909  0.08115  0.22132  1.0000 -0.5324995078
O   O8        1.0  0.88092  0.58115  0.27868  1.0000 -0.5324995078
O   O9        1.0  0.90877  0.58352  0.58997  1.0000 -0.5609036095
O   O10       1.0  0.09123  0.08352  0.91003  1.0000 -0.5609036095
O   O11       1.0  0.09123  0.41648  0.41003  1.0000 -0.5609036095
O   O12       1.0  0.90877  0.91648  0.08997  1.0000 -0.5609036095
O   O13       1.0  0.88126  0.66794  0.51092  1.0000 -0.5324995078
O   O14       1.0  0.11874  0.16794  0.98908  1.0000 -0.5324995078
O   O15       1.0  0.11874  0.33206  0.48908  1.0000 -0.5324995078
O   O16       1.0  0.88126  0.83206  0.01092  1.0000 -0.5324995078
O   O17       1.0  0.75930  0.00745  0.02071  1.0000 -0.5499661398
O   O18       1.0  0.24071  0.50745  0.47929  1.0000 -0.5499661398
O   O19       1.0  0.24071  0.99255  0.97929  1.0000 -0.5499661398
O   O20       1.0  0.75930  0.49255  0.52071  1.0000 -0.5499661398
O   O21       1.0  0.72852  0.92591  0.93885  1.0000 -0.5499661398
O   O22       1.0  0.27148  0.42591  0.56115  1.0000 -0.5499661398
O   O23       1.0  0.27148  0.07409  0.06115  1.0000 -0.5499661398
O   O24       1.0  0.72852  0.57409  0.43885  1.0000 -0.5499661398
O   O25       1.0  0.85161  0.15199  0.64360  1.0000 -0.3218939684
O   O26       1.0  0.14840  0.65199  0.85640  1.0000 -0.3218939684
O   O27       1.0  0.14840  0.84801  0.35640  1.0000 -0.3218939684
O   O28       1.0  0.85161  0.34801  0.14360  1.0000 -0.3218939684
O   O29       1.0  0.84661  0.22156  0.76833  1.0000 -0.3308717542
O   O30       1.0  0.15340  0.72156  0.73167  1.0000 -0.3308717542
O   O31       1.0  0.15340  0.77844  0.23167  1.0000 -0.3308717542
O   O32       1.0  0.84661  0.27844  0.26833  1.0000 -0.3308717542
O   O33       1.0  0.94546  0.98064  0.94334  1.0000 -0.7594209842
O   O34       1.0  0.05455  0.48064  0.55666  1.0000 -0.7594209842
O   O35       1.0  0.05455  0.01936  0.05666  1.0000 -0.7594209842
O   O36       1.0  0.94546  0.51936  0.44334  1.0000 -0.7594209842
O   O37       1.0  0.61269  0.16785  0.35580  1.0000 -0.5499661398
O   O38       1.0  0.38731  0.66785  0.14420  1.0000 -0.5499661398
O   O39       1.0  0.38731  0.83215  0.64420  1.0000 -0.5499661398
O   O40       1.0  0.61269  0.33215  0.85580  1.0000 -0.5499661398
O   O41       1.0  0.61909  0.08115  0.27868  1.0000 -0.5324995078
O   O42       1.0  0.38092  0.58115  0.22132  1.0000 -0.5324995078
O   O43       1.0  0.38092  0.91885  0.72132  1.0000 -0.5324995078
O   O44       1.0  0.61909  0.41885  0.77868  1.0000 -0.5324995078
O   O45       1.0  0.59123  0.41648  0.08997  1.0000 -0.5609036095
O   O46       1.0  0.40877  0.91648  0.41003  1.0000 -0.5609036095
O   O47       1.0  0.40877  0.58352  0.91003  1.0000 -0.5609036095
O   O48       1.0  0.59123  0.08352  0.58997  1.0000 -0.5609036095
O   O49       1.0  0.61874  0.33206  0.01092  1.0000 -0.5324995078
O   O50       1.0  0.38127  0.83206  0.48908  1.0000 -0.5324995078
O   O51       1.0  0.38127  0.66794  0.98908  1.0000 -0.5324995078
O   O52       1.0  0.61874  0.16794  0.51092  1.0000 -0.5324995078
O   O53       1.0  0.74071  0.99255  0.52071  1.0000 -0.5499661398
O   O54       1.0  0.25929  0.49255  0.97929  1.0000 -0.5499661398
O   O55       1.0  0.25929  0.00745  0.47929  1.0000 -0.5499661398
O   O56       1.0  0.74071  0.50745  0.02071  1.0000 -0.5499661398
O   O57       1.0  0.77149  0.07409  0.43885  1.0000 -0.5499661398
O   O58       1.0  0.22851  0.57409  0.06115  1.0000 -0.5499661398
O   O59       1.0  0.22851  0.92591  0.56115  1.0000 -0.5499661398
O   O60       1.0  0.77149  0.42591  0.93885  1.0000 -0.5499661398
O   O61       1.0  0.64840  0.84801  0.14360  1.0000 -0.3218939684
O   O62       1.0  0.35161  0.34801  0.35640  1.0000 -0.3218939684
O   O63       1.0  0.35161  0.15199  0.85640  1.0000 -0.3218939684
O   O64       1.0  0.64840  0.65199  0.64360  1.0000 -0.3218939684
O   O65       1.0  0.65339  0.77844  0.26833  1.0000 -0.3308717542
O   O66       1.0  0.34661  0.27844  0.23167  1.0000 -0.3308717542
O   O67       1.0  0.34661  0.22156  0.73167  1.0000 -0.3308717542
O   O68       1.0  0.65339  0.72156  0.76833  1.0000 -0.3308717542
O   O69       1.0  0.55454  0.01936  0.44334  1.0000 -0.7594209842
O   O70       1.0  0.44545  0.51936  0.05666  1.0000 -0.7594209842
O   O71       1.0  0.44545  0.98064  0.55666  1.0000 -0.7594209842
O   O72       1.0  0.55454  0.48064  0.94334  1.0000 -0.7594209842
