# DDEC6 charges by PACMAN v1.1 (https://github.com/mtap-research/PACMAN-charge/)
data_2008[Er][rtl]3[FSR]1
_chemical_formula_sum              "Er4 H64 C48 N4 O32"
_cell_length_a       9.5631
_cell_length_b       13.8741
_cell_length_c       17.5579
_cell_angle_alpha    90
_cell_angle_beta     119.555
_cell_angle_gamma    90

_symmetry_space_group_name_H-M    "P 1"
_symmetry_Int_Tables_number       1

loop_
  _symmetry_equiv_pos_as_xyz
  'x, y, z'

loop_
  _atom_site_type_symbol
  _atom_site_label
  _atom_site_symmetry_multiplicity
  _atom_site_fract_x
  _atom_site_fract_y
  _atom_site_fract_z
  _atom_site_occupancy
  _atom_site_charge
Er  Er1       1.0  0.62844  0.11095  0.08577  1.0000 1.9719567441
Er  Er2       1.0  0.37156  0.61095  0.41423  1.0000 1.9719567441
Er  Er3       1.0  0.37156  0.88905  0.91423  1.0000 1.9719567441
Er  Er4       1.0  0.62844  0.38905  0.58577  1.0000 1.9719567441
H   H1        1.0  0.42540  0.81130  0.18840  1.0000 0.110101117
H   H2        1.0  0.57460  0.31130  0.31160  1.0000 0.110101117
H   H3        1.0  0.57460  0.18870  0.81160  1.0000 0.110101117
H   H4        1.0  0.42540  0.68870  0.68840  1.0000 0.110101117
H   H5        1.0  0.41740  0.89300  0.24800  1.0000 0.110101117
H   H6        1.0  0.58260  0.39300  0.25200  1.0000 0.110101117
H   H7        1.0  0.58260  0.10700  0.75200  1.0000 0.110101117
H   H8        1.0  0.41740  0.60700  0.74800  1.0000 0.110101117
H   H9        1.0  0.15750  0.76500  0.14440  1.0000 0.0992810123
H   H10       1.0  0.84250  0.26500  0.35560  1.0000 0.0992810123
H   H11       1.0  0.84250  0.23500  0.85560  1.0000 0.0992810123
H   H12       1.0  0.15750  0.73500  0.64440  1.0000 0.0992810123
H   H13       1.0  0.01380  0.83470  0.20490  1.0000 0.1224104457
H   H14       1.0  0.98620  0.33470  0.29510  1.0000 0.1224104457
H   H15       1.0  0.98620  0.16530  0.79510  1.0000 0.1224104457
H   H16       1.0  0.01380  0.66530  0.70490  1.0000 0.1224104457
H   H17       1.0  0.15660  0.90530  0.26120  1.0000 0.0992810123
H   H18       1.0  0.84340  0.40530  0.23880  1.0000 0.0992810123
H   H19       1.0  0.84340  0.09470  0.73880  1.0000 0.0992810123
H   H20       1.0  0.15660  0.59470  0.76120  1.0000 0.0992810123
H   H21       1.0  0.98210  0.90450  0.07500  1.0000 0.110101117
H   H22       1.0  0.01790  0.40450  0.42500  1.0000 0.110101117
H   H23       1.0  0.01790  0.09550  0.92500  1.0000 0.110101117
H   H24       1.0  0.98210  0.59550  0.57500  1.0000 0.110101117
H   H25       1.0  0.12430  0.03730  0.07160  1.0000 0.110101117
H   H26       1.0  0.87570  0.53730  0.42840  1.0000 0.110101117
H   H27       1.0  0.87570  0.96270  0.92840  1.0000 0.110101117
H   H28       1.0  0.12430  0.46270  0.57160  1.0000 0.110101117
H   H29       1.0  0.22740  0.03630  0.17410  1.0000 0.110101117
H   H30       1.0  0.77260  0.53630  0.32590  1.0000 0.110101117
H   H31       1.0  0.77260  0.96370  0.82590  1.0000 0.110101117
H   H32       1.0  0.22740  0.46370  0.67410  1.0000 0.110101117
H   H33       1.0  0.22800  0.88770  0.06370  1.0000 0.110101117
H   H34       1.0  0.77200  0.38770  0.43630  1.0000 0.110101117
H   H35       1.0  0.77200  0.11230  0.93630  1.0000 0.110101117
H   H36       1.0  0.22800  0.61230  0.56370  1.0000 0.110101117
H   H37       1.0  0.48430  0.31650  0.98260  1.0000 0.1224104457
H   H38       1.0  0.51570  0.81650  0.51740  1.0000 0.1224104457
H   H39       1.0  0.51570  0.68350  0.01740  1.0000 0.1224104457
H   H40       1.0  0.48430  0.18350  0.48260  1.0000 0.1224104457
H   H41       1.0  0.40460  0.45810  0.90490  1.0000 0.1297941014
H   H42       1.0  0.59540  0.95810  0.59510  1.0000 0.1297941014
H   H43       1.0  0.59540  0.54190  0.09510  1.0000 0.1297941014
H   H44       1.0  0.40460  0.04190  0.40490  1.0000 0.1297941014
H   H45       1.0  0.55080  0.52460  0.92400  1.0000 0.1297941014
H   H46       1.0  0.44920  0.02460  0.57600  1.0000 0.1297941014
H   H47       1.0  0.44920  0.47540  0.07600  1.0000 0.1297941014
H   H48       1.0  0.55080  0.97540  0.42400  1.0000 0.1297941014
H   H49       1.0  0.46770  0.46330  0.83780  1.0000 0.1461887905
H   H50       1.0  0.53230  0.96330  0.66220  1.0000 0.1461887905
H   H51       1.0  0.53230  0.53670  0.16220  1.0000 0.1461887905
H   H52       1.0  0.46770  0.03670  0.33780  1.0000 0.1461887905
H   H53       1.0  0.81700  0.33750  0.96740  1.0000 0.1401001903
H   H54       1.0  0.18300  0.83750  0.53260  1.0000 0.1401001903
H   H55       1.0  0.18300  0.66250  0.03260  1.0000 0.1401001903
H   H56       1.0  0.81700  0.16250  0.46740  1.0000 0.1401001903
H   H57       1.0  0.72040  0.38700  0.87560  1.0000 0.1461887905
H   H58       1.0  0.27960  0.88700  0.62440  1.0000 0.1461887905
H   H59       1.0  0.27960  0.61300  0.12440  1.0000 0.1461887905
H   H60       1.0  0.72040  0.11300  0.37560  1.0000 0.1401001903
H   H61       1.0  0.80390  0.45010  0.96060  1.0000 0.1401001903
H   H62       1.0  0.19610  0.95010  0.53940  1.0000 0.1401001903
H   H63       1.0  0.19610  0.54990  0.03940  1.0000 0.1401001903
H   H64       1.0  0.80390  0.04990  0.46060  1.0000 0.1401001903
C   C1        1.0  0.35470  0.85720  0.19410  1.0000 -0.1899160402
C   C2        1.0  0.64530  0.35720  0.30590  1.0000 -0.1899160402
C   C3        1.0  0.64530  0.14280  0.80590  1.0000 -0.1899160402
C   C4        1.0  0.35470  0.64280  0.69410  1.0000 -0.1899160402
C   C5        1.0  0.21720  0.80260  0.19830  1.0000 -0.1096984379
C   C6        1.0  0.78280  0.30260  0.30170  1.0000 -0.1096984379
C   C7        1.0  0.78280  0.19740  0.80170  1.0000 -0.1096984379
C   C8        1.0  0.21720  0.69740  0.69830  1.0000 -0.1096984379
C   C9        1.0  0.10170  0.87080  0.20610  1.0000 -0.1899160402
C   C10       1.0  0.89830  0.37080  0.29390  1.0000 -0.1899160402
C   C11       1.0  0.89830  0.12920  0.79390  1.0000 -0.1899160402
C   C12       1.0  0.10170  0.62920  0.70610  1.0000 -0.1899160402
C   C13       1.0  0.03400  0.94440  0.12780  1.0000 -0.1036705755
C   C14       1.0  0.96600  0.44440  0.37220  1.0000 -0.1036705755
C   C15       1.0  0.96600  0.05560  0.87220  1.0000 -0.1036705755
C   C16       1.0  0.03400  0.55560  0.62780  1.0000 -0.1036705755
C   C17       1.0  0.16970  0.99580  0.12280  1.0000 -0.1899160402
C   C18       1.0  0.83030  0.49580  0.37720  1.0000 -0.1899160402
C   C19       1.0  0.83030  0.00420  0.87720  1.0000 -0.1899160402
C   C20       1.0  0.16970  0.50420  0.62280  1.0000 -0.1899160402
C   C21       1.0  0.28700  0.92570  0.11740  1.0000 -0.1251194037
C   C22       1.0  0.71300  0.42570  0.38260  1.0000 -0.1238722188
C   C23       1.0  0.71300  0.07430  0.88260  1.0000 -0.1238722188
C   C24       1.0  0.28700  0.57430  0.61740  1.0000 -0.1238722188
C   C25       1.0  0.41850  0.98050  0.11190  1.0000 0.6104989939
C   C26       1.0  0.58150  0.48050  0.38810  1.0000 0.6104989939
C   C27       1.0  0.58150  0.01950  0.88810  1.0000 0.6104989939
C   C28       1.0  0.41850  0.51950  0.61190  1.0000 0.6104989939
C   C29       1.0  0.27890  0.73480  0.27520  1.0000 0.5716072463
C   C30       1.0  0.72110  0.23480  0.22480  1.0000 0.5716072463
C   C31       1.0  0.72110  0.26520  0.72480  1.0000 0.5716072463
C   C32       1.0  0.27890  0.76520  0.77520  1.0000 0.5716072463
C   C33       1.0  0.90310  0.00880  0.12260  1.0000 0.5524662875
C   C34       1.0  0.09690  0.50880  0.37740  1.0000 0.5524662875
C   C35       1.0  0.09690  0.99120  0.87740  1.0000 0.5524662875
C   C36       1.0  0.90310  0.49120  0.62260  1.0000 0.5524662875
C   C37       1.0  0.58080  0.31500  0.98180  1.0000 0.3001753383
C   C38       1.0  0.41920  0.81500  0.51820  1.0000 0.3001753383
C   C39       1.0  0.41920  0.68500  0.01820  1.0000 0.3001753383
C   C40       1.0  0.58080  0.18500  0.48180  1.0000 0.3001753383
C   C41       1.0  0.49900  0.46500  0.89900  1.0000 -0.3323385499
C   C42       1.0  0.50100  0.96500  0.60100  1.0000 -0.3323385499
C   C43       1.0  0.50100  0.53500  0.10100  1.0000 -0.3323385499
C   C44       1.0  0.49900  0.03500  0.39900  1.0000 -0.3323385499
C   C45       1.0  0.74800  0.39100  0.93600  1.0000 -0.291971349
C   C46       1.0  0.25200  0.89100  0.56400  1.0000 -0.291971349
C   C47       1.0  0.25200  0.60900  0.06400  1.0000 -0.291971349
C   C48       1.0  0.74800  0.10900  0.43600  1.0000 -0.291971349
N   N1        1.0  0.60590  0.38680  0.94290  1.0000 0.0218955402
N   N2        1.0  0.39410  0.88680  0.55710  1.0000 0.0218955402
N   N3        1.0  0.39410  0.61320  0.05710  1.0000 0.0218955402
N   N4        1.0  0.60590  0.11320  0.44290  1.0000 0.0218955402
O   O1        1.0  0.50120  0.04430  0.16520  1.0000 -0.5616561331
O   O2        1.0  0.49880  0.54430  0.33480  1.0000 -0.5616561331
O   O3        1.0  0.49880  0.95570  0.83480  1.0000 -0.5616561331
O   O4        1.0  0.50120  0.45570  0.66520  1.0000 -0.5616561331
O   O5        1.0  0.36290  0.16520  0.98940  1.0000 -0.3841652132
O   O6        1.0  0.63710  0.66520  0.51060  1.0000 -0.3909335591
O   O7        1.0  0.63710  0.83480  0.01060  1.0000 -0.3909335591
O   O8        1.0  0.36290  0.33480  0.48940  1.0000 -0.3841652132
O   O9        1.0  0.44250  0.96250  0.04830  1.0000 -0.6540141858
O   O10       1.0  0.55750  0.46250  0.45170  1.0000 -0.6540141858
O   O11       1.0  0.55750  0.03750  0.95170  1.0000 -0.6540141858
O   O12       1.0  0.44250  0.53750  0.54830  1.0000 -0.6540141858
O   O13       1.0  0.41160  0.74630  0.34400  1.0000 -0.5928743191
O   O14       1.0  0.58840  0.24630  0.15600  1.0000 -0.5928743191
O   O15       1.0  0.58840  0.25370  0.65600  1.0000 -0.5928743191
O   O16       1.0  0.41160  0.75370  0.84400  1.0000 -0.5928743191
O   O17       1.0  0.19190  0.66330  0.26960  1.0000 -0.6165388979
O   O18       1.0  0.80810  0.16330  0.23040  1.0000 -0.6165388979
O   O19       1.0  0.80810  0.33670  0.73040  1.0000 -0.6165388979
O   O20       1.0  0.19190  0.83670  0.76960  1.0000 -0.6165388979
O   O21       1.0  0.89510  0.09430  0.10120  1.0000 -0.5816467859
O   O22       1.0  0.10490  0.59430  0.39880  1.0000 -0.5816467859
O   O23       1.0  0.10490  0.90570  0.89880  1.0000 -0.5816467859
O   O24       1.0  0.89510  0.40570  0.60120  1.0000 -0.5816467859
O   O25       1.0  0.79530  0.97090  0.13650  1.0000 -0.5616561331
O   O26       1.0  0.20470  0.47090  0.36350  1.0000 -0.5616561331
O   O27       1.0  0.20470  0.02910  0.86350  1.0000 -0.5616561331
O   O28       1.0  0.79530  0.52910  0.63650  1.0000 -0.5616561331
O   O29       1.0  0.66640  0.24750  0.01710  1.0000 -0.4756868936
O   O30       1.0  0.33360  0.74750  0.48290  1.0000 -0.4756868936
O   O31       1.0  0.33360  0.75250  0.98290  1.0000 -0.4756868936
O   O32       1.0  0.66640  0.25250  0.51710  1.0000 -0.4756868936
