# DDEC6 charges by PACMAN v1.1 (https://github.com/mtap-research/PACMAN-charge/)
data_2008[In][dia]3[FSR]1
_chemical_formula_sum              "In4 H16 C48 S8 O32"
_cell_length_a       13.5065
_cell_length_b       13.5065
_cell_length_c       15.9076
_cell_angle_alpha    90
_cell_angle_beta     90
_cell_angle_gamma    90

_symmetry_space_group_name_H-M    "P 1"
_symmetry_Int_Tables_number       1

loop_
  _symmetry_equiv_pos_as_xyz
  'x, y, z'

loop_
  _atom_site_type_symbol
  _atom_site_label
  _atom_site_symmetry_multiplicity
  _atom_site_fract_x
  _atom_site_fract_y
  _atom_site_fract_z
  _atom_site_occupancy
  _atom_site_charge
In  In1       1.0  0.00000  0.58199  0.50000  1.0000 1.3505328952
In  In2       1.0  0.41801  0.00000  0.25000  1.0000 1.3505328952
In  In3       1.0  0.00000  0.41801  0.00000  1.0000 1.3505328952
In  In4       1.0  0.58199  0.00000  0.75000  1.0000 1.3505328952
H   H1        1.0  0.06900  0.39450  0.24110  1.0000 0.1466665438
H   H2        1.0  0.60550  0.06900  0.99110  1.0000 0.1466665438
H   H3        1.0  0.93100  0.60550  0.74110  1.0000 0.1466665438
H   H4        1.0  0.39450  0.93100  0.49110  1.0000 0.1466665438
H   H5        1.0  0.06900  0.60550  0.25890  1.0000 0.1466665438
H   H6        1.0  0.39450  0.06900  0.00890  1.0000 0.1466665438
H   H7        1.0  0.93100  0.39450  0.75890  1.0000 0.1466665438
H   H8        1.0  0.60550  0.93100  0.50890  1.0000 0.1466665438
H   H9        1.0  0.14750  0.24300  0.18480  1.0000 0.1384534055
H   H10       1.0  0.75700  0.14750  0.93480  1.0000 0.1384534055
H   H11       1.0  0.85250  0.75700  0.68480  1.0000 0.1384534055
H   H12       1.0  0.24300  0.85250  0.43480  1.0000 0.1384534055
H   H13       1.0  0.14750  0.75700  0.31520  1.0000 0.1384534055
H   H14       1.0  0.24300  0.14750  0.06520  1.0000 0.1384534055
H   H15       1.0  0.85250  0.24300  0.81520  1.0000 0.1384534055
H   H16       1.0  0.75700  0.85250  0.56520  1.0000 0.1384534055
C   C1        1.0  0.22620  0.22890  0.29380  1.0000 -0.1362256275
C   C2        1.0  0.77110  0.22620  0.04380  1.0000 -0.1362256275
C   C3        1.0  0.77380  0.77110  0.79380  1.0000 -0.1362256275
C   C4        1.0  0.22890  0.77380  0.54380  1.0000 -0.1362256275
C   C5        1.0  0.22620  0.77110  0.20620  1.0000 -0.1362256275
C   C6        1.0  0.22890  0.22620  0.95620  1.0000 -0.1362256275
C   C7        1.0  0.77380  0.22890  0.70620  1.0000 -0.1362256275
C   C8        1.0  0.77110  0.77380  0.45620  1.0000 -0.1362256275
C   C9        1.0  0.13490  0.36610  0.35600  1.0000 -0.0858790705
C   C10       1.0  0.63390  0.13490  0.10600  1.0000 -0.0858790705
C   C11       1.0  0.86510  0.63390  0.85600  1.0000 -0.0858790705
C   C12       1.0  0.36610  0.86510  0.60600  1.0000 -0.0858790705
C   C13       1.0  0.13490  0.63390  0.14400  1.0000 -0.0858790705
C   C14       1.0  0.36610  0.13490  0.89400  1.0000 -0.0858790705
C   C15       1.0  0.86510  0.36610  0.64400  1.0000 -0.0858790705
C   C16       1.0  0.63390  0.86510  0.39400  1.0000 -0.0858790705
C   C17       1.0  0.09290  0.44850  0.40970  1.0000 0.5578551723
C   C18       1.0  0.55150  0.09290  0.15970  1.0000 0.5578551723
C   C19       1.0  0.90710  0.55150  0.90970  1.0000 0.5578551723
C   C20       1.0  0.44850  0.90710  0.65970  1.0000 0.5578551723
C   C21       1.0  0.09290  0.55150  0.09030  1.0000 0.5578551723
C   C22       1.0  0.44850  0.09290  0.84030  1.0000 0.5578551723
C   C23       1.0  0.90710  0.44850  0.59030  1.0000 0.5578551723
C   C24       1.0  0.55150  0.90710  0.34030  1.0000 0.5578551723
C   C25       1.0  0.29110  0.14740  0.27980  1.0000 0.5465578867
C   C26       1.0  0.85260  0.29110  0.02980  1.0000 0.5465578867
C   C27       1.0  0.70890  0.85260  0.77980  1.0000 0.5465578867
C   C28       1.0  0.14740  0.70890  0.52980  1.0000 0.5465578867
C   C29       1.0  0.29110  0.85260  0.22020  1.0000 0.5465578867
C   C30       1.0  0.14740  0.29110  0.97020  1.0000 0.5465578867
C   C31       1.0  0.70890  0.14740  0.72020  1.0000 0.5465578867
C   C32       1.0  0.85260  0.70890  0.47020  1.0000 0.5465578867
C   C33       1.0  0.11100  0.35330  0.27150  1.0000 -0.0979721581
C   C34       1.0  0.64670  0.11100  0.02150  1.0000 -0.0979721581
C   C35       1.0  0.88900  0.64670  0.77150  1.0000 -0.0979721581
C   C36       1.0  0.35330  0.88900  0.52150  1.0000 -0.0979721581
C   C37       1.0  0.11100  0.64670  0.22850  1.0000 -0.0979721581
C   C38       1.0  0.35330  0.11100  0.97850  1.0000 -0.0979721581
C   C39       1.0  0.88900  0.35330  0.72850  1.0000 -0.0979721581
C   C40       1.0  0.64670  0.88900  0.47850  1.0000 -0.0979721581
C   C41       1.0  0.15950  0.26860  0.23810  1.0000 -0.0710897686
C   C42       1.0  0.73140  0.15950  0.98810  1.0000 -0.0710897686
C   C43       1.0  0.84050  0.73140  0.73810  1.0000 -0.0710897686
C   C44       1.0  0.26860  0.84050  0.48810  1.0000 -0.0710897686
C   C45       1.0  0.15950  0.73140  0.26190  1.0000 -0.0710897686
C   C46       1.0  0.26860  0.15950  0.01190  1.0000 -0.0710897686
C   C47       1.0  0.84050  0.26860  0.76190  1.0000 -0.0710897686
C   C48       1.0  0.73140  0.84050  0.51190  1.0000 -0.0710897686
S   S1        1.0  0.22110  0.28670  0.39020  1.0000 0.3824763356
S   S2        1.0  0.71330  0.22110  0.14020  1.0000 0.4059236406
S   S3        1.0  0.77890  0.71330  0.89020  1.0000 0.3858841915
S   S4        1.0  0.28670  0.77890  0.64020  1.0000 0.4020471532
S   S5        1.0  0.22110  0.71330  0.10980  1.0000 0.4020471532
S   S6        1.0  0.28670  0.22110  0.85980  1.0000 0.4020471532
S   S7        1.0  0.77890  0.28670  0.60980  1.0000 0.3858841915
S   S8        1.0  0.71330  0.77890  0.35980  1.0000 0.3858841915
O   O1        1.0  0.12110  0.45610  0.48360  1.0000 -0.5175349803
O   O2        1.0  0.54390  0.12110  0.23360  1.0000 -0.5175349803
O   O3        1.0  0.87890  0.54390  0.98360  1.0000 -0.5175349803
O   O4        1.0  0.45610  0.87890  0.73360  1.0000 -0.5175349803
O   O5        1.0  0.12110  0.54390  0.01640  1.0000 -0.5175349803
O   O6        1.0  0.45610  0.12110  0.76640  1.0000 -0.5175349803
O   O7        1.0  0.87890  0.45610  0.51640  1.0000 -0.5175349803
O   O8        1.0  0.54390  0.87890  0.26640  1.0000 -0.5175349803
O   O9        1.0  0.02490  0.50270  0.38030  1.0000 -0.5101615095
O   O10       1.0  0.49730  0.02490  0.13030  1.0000 -0.5101615095
O   O11       1.0  0.97510  0.49730  0.88030  1.0000 -0.5101615095
O   O12       1.0  0.50270  0.97510  0.63030  1.0000 -0.5101615095
O   O13       1.0  0.02490  0.49730  0.11970  1.0000 -0.5101615095
O   O14       1.0  0.50270  0.02490  0.86970  1.0000 -0.5101615095
O   O15       1.0  0.97510  0.50270  0.61970  1.0000 -0.5101615095
O   O16       1.0  0.49730  0.97510  0.36970  1.0000 -0.5101615095
O   O17       1.0  0.29960  0.10610  0.20710  1.0000 -0.529799083
O   O18       1.0  0.89390  0.29960  0.95710  1.0000 -0.529799083
O   O19       1.0  0.70040  0.89390  0.70710  1.0000 -0.529799083
O   O20       1.0  0.10610  0.70040  0.45710  1.0000 -0.529799083
O   O21       1.0  0.29960  0.89390  0.29290  1.0000 -0.529799083
O   O22       1.0  0.10610  0.29960  0.04290  1.0000 -0.529799083
O   O23       1.0  0.70040  0.10610  0.79290  1.0000 -0.529799083
O   O24       1.0  0.89390  0.70040  0.54290  1.0000 -0.529799083
O   O25       1.0  0.34850  0.11390  0.34000  1.0000 -0.5101615095
O   O26       1.0  0.88610  0.34850  0.09000  1.0000 -0.5101615095
O   O27       1.0  0.65150  0.88610  0.84000  1.0000 -0.5101615095
O   O28       1.0  0.11390  0.65150  0.59000  1.0000 -0.5101615095
O   O29       1.0  0.34850  0.88610  0.16000  1.0000 -0.5101615095
O   O30       1.0  0.11390  0.34850  0.91000  1.0000 -0.5101615095
O   O31       1.0  0.65150  0.11390  0.66000  1.0000 -0.5101615095
O   O32       1.0  0.88610  0.65150  0.41000  1.0000 -0.5101615095
