# DDEC6 charges by PACMAN v1.1 (https://github.com/mtap-research/PACMAN-charge/)
data_2008[Ga][bpq]3[FSR]1
_chemical_formula_sum              "Ga4 H16 C32 O20"
_cell_length_a       6.7216
_cell_length_b       11.893
_cell_length_c       17.525
_cell_angle_alpha    90
_cell_angle_beta     90
_cell_angle_gamma    90

_symmetry_space_group_name_H-M    "P 1"
_symmetry_Int_Tables_number       1

loop_
  _symmetry_equiv_pos_as_xyz
  'x, y, z'

loop_
  _atom_site_type_symbol
  _atom_site_label
  _atom_site_symmetry_multiplicity
  _atom_site_fract_x
  _atom_site_fract_y
  _atom_site_fract_z
  _atom_site_occupancy
  _atom_site_charge
Ga  Ga1       1.0  0.50000  0.00000  0.50000  1.0000 1.3469612473
Ga  Ga2       1.0  0.50000  0.50000  0.00000  1.0000 1.3469612473
Ga  Ga3       1.0  0.00000  0.50000  0.00000  1.0000 1.3469612473
Ga  Ga4       1.0  0.00000  0.00000  0.50000  1.0000 1.3469612473
H   H1        1.0  0.54870  0.77930  0.31720  1.0000 0.132165494
H   H2        1.0  0.45130  0.27930  0.18280  1.0000 0.132165494
H   H3        1.0  0.95130  0.72070  0.81720  1.0000 0.132165494
H   H4        1.0  0.04870  0.22070  0.68280  1.0000 0.132165494
H   H5        1.0  0.45130  0.22070  0.68280  1.0000 0.132165494
H   H6        1.0  0.54870  0.72070  0.81720  1.0000 0.132165494
H   H7        1.0  0.04870  0.27930  0.18280  1.0000 0.132165494
H   H8        1.0  0.95130  0.77930  0.31720  1.0000 0.132165494
H   H9        1.0  0.54860  0.68210  0.20280  1.0000 0.132165494
H   H10       1.0  0.45140  0.18210  0.29720  1.0000 0.132165494
H   H11       1.0  0.95140  0.81790  0.70280  1.0000 0.132165494
H   H12       1.0  0.04860  0.31790  0.79720  1.0000 0.132165494
H   H13       1.0  0.45140  0.31790  0.79720  1.0000 0.132165494
H   H14       1.0  0.54860  0.81790  0.70280  1.0000 0.132165494
H   H15       1.0  0.04860  0.18210  0.29720  1.0000 0.132165494
H   H16       1.0  0.95140  0.68210  0.20280  1.0000 0.132165494
C   C1        1.0  0.25000  0.85730  0.40000  1.0000 0.5918089324
C   C2        1.0  0.75000  0.35730  0.10000  1.0000 0.5918089324
C   C3        1.0  0.25000  0.64270  0.90000  1.0000 0.5918089324
C   C4        1.0  0.75000  0.14270  0.60000  1.0000 0.5918089324
C   C5        1.0  0.25000  0.78930  0.32790  1.0000 -0.0183203048
C   C6        1.0  0.75000  0.28930  0.17210  1.0000 -0.0183203048
C   C7        1.0  0.25000  0.71070  0.82790  1.0000 -0.0183203048
C   C8        1.0  0.75000  0.21070  0.67210  1.0000 -0.0183203048
C   C9        1.0  0.42900  0.75990  0.29400  1.0000 -0.0892207739
C   C10       1.0  0.57100  0.25990  0.20600  1.0000 -0.0892207739
C   C11       1.0  0.07100  0.74010  0.79400  1.0000 -0.0892207739
C   C12       1.0  0.92900  0.24010  0.70600  1.0000 -0.0892207739
C   C13       1.0  0.57100  0.24010  0.70600  1.0000 -0.0892207739
C   C14       1.0  0.42900  0.74010  0.79400  1.0000 -0.0892207739
C   C15       1.0  0.92900  0.25990  0.20600  1.0000 -0.0892207739
C   C16       1.0  0.07100  0.75990  0.29400  1.0000 -0.0892207739
C   C17       1.0  0.42890  0.70190  0.22580  1.0000 -0.0892207739
C   C18       1.0  0.57110  0.20190  0.27420  1.0000 -0.0892207739
C   C19       1.0  0.07110  0.79810  0.72580  1.0000 -0.0892207739
C   C20       1.0  0.92890  0.29810  0.77420  1.0000 -0.0892207739
C   C21       1.0  0.57110  0.29810  0.77420  1.0000 -0.0892207739
C   C22       1.0  0.42890  0.79810  0.72580  1.0000 -0.0892207739
C   C23       1.0  0.92890  0.20190  0.27420  1.0000 -0.0892207739
C   C24       1.0  0.07110  0.70190  0.22580  1.0000 -0.0892207739
C   C25       1.0  0.25000  0.67310  0.19150  1.0000 -0.0252243424
C   C26       1.0  0.75000  0.17310  0.30850  1.0000 -0.0252243424
C   C27       1.0  0.25000  0.82690  0.69150  1.0000 -0.0252243424
C   C28       1.0  0.75000  0.32690  0.80850  1.0000 -0.0252243424
C   C29       1.0  0.25000  0.61330  0.11650  1.0000 0.5918089324
C   C30       1.0  0.75000  0.11330  0.38350  1.0000 0.5918089324
C   C31       1.0  0.25000  0.88670  0.61650  1.0000 0.5918089324
C   C32       1.0  0.75000  0.38670  0.88350  1.0000 0.5918089324
O   O1        1.0  0.25000  0.07320  0.49394  1.0000 -0.7086583948
O   O2        1.0  0.75000  0.57320  0.00606  1.0000 -0.7086583948
O   O3        1.0  0.25000  0.42680  0.99394  1.0000 -0.7086583948
O   O4        1.0  0.75000  0.92680  0.50606  1.0000 -0.7086583948
O   O5        1.0  0.41770  0.88340  0.42665  1.0000 -0.4875387377
O   O6        1.0  0.58230  0.38340  0.07335  1.0000 -0.4875387377
O   O7        1.0  0.08230  0.61660  0.92665  1.0000 -0.4875387377
O   O8        1.0  0.91770  0.11660  0.57335  1.0000 -0.4875387377
O   O9        1.0  0.58230  0.11660  0.57335  1.0000 -0.4875387377
O   O10       1.0  0.41770  0.61660  0.92665  1.0000 -0.4875387377
O   O11       1.0  0.91770  0.38340  0.07335  1.0000 -0.4875387377
O   O12       1.0  0.08230  0.88340  0.42665  1.0000 -0.4875387377
O   O13       1.0  0.41790  0.59040  0.08859  1.0000 -0.4875387377
O   O14       1.0  0.58210  0.09040  0.41141  1.0000 -0.4875387377
O   O15       1.0  0.08210  0.90960  0.58859  1.0000 -0.4875387377
O   O16       1.0  0.91790  0.40960  0.91141  1.0000 -0.4875387377
O   O17       1.0  0.58210  0.40960  0.91141  1.0000 -0.4875387377
O   O18       1.0  0.41790  0.90960  0.58859  1.0000 -0.4875387377
O   O19       1.0  0.91790  0.09040  0.41141  1.0000 -0.4875387377
O   O20       1.0  0.08210  0.59040  0.08859  1.0000 -0.4875387377
