# DDEC6 charges by PACMAN v1.1 (https://github.com/mtap-research/PACMAN-charge/)
data_2008[ZnMn][nan]3[FSR]1
_chemical_formula_sum              "Mn3 Zn6 H70 C104 N4 O42"
_cell_length_a       10.426
_cell_length_b       14.962
_cell_length_c       21.102
_cell_angle_alpha    100.01
_cell_angle_beta     93.54
_cell_angle_gamma    106.9

_symmetry_space_group_name_H-M    "P 1"
_symmetry_Int_Tables_number       1

loop_
  _symmetry_equiv_pos_as_xyz
  'x, y, z'

loop_
  _atom_site_type_symbol
  _atom_site_label
  _atom_site_symmetry_multiplicity
  _atom_site_fract_x
  _atom_site_fract_y
  _atom_site_fract_z
  _atom_site_occupancy
  _atom_site_charge
Mn  Mn1       1.0  0.76349  0.01221  0.80225  1.0000 1.1004312478
Mn  Mn2       1.0  0.23651  0.98779  0.19775  1.0000 1.1004312478
Mn  Mn3       1.0  0.00000  0.50000  0.50000  1.0000 1.1004312478
Zn  Zn1       1.0  0.58434  0.01513  0.26206  1.0000 0.8249046447
Zn  Zn2       1.0  0.41566  0.98487  0.73794  1.0000 0.8249046447
Zn  Zn3       1.0  0.82690  0.67666  0.49701  1.0000 0.8288838508
Zn  Zn4       1.0  0.17310  0.32334  0.50299  1.0000 0.8288838508
Zn  Zn5       1.0  0.00896  0.05120  0.93602  1.0000 0.9269479158
Zn  Zn6       1.0  0.99104  0.94880  0.06398  1.0000 0.9269479158
H   H1        1.0  0.08120  0.20960  0.01560  1.0000 0.3630069834
H   H2        1.0  0.91880  0.79040  0.98440  1.0000 0.3630069834
H   H3        1.0  0.97480  0.16130  0.04650  1.0000 0.3630069834
H   H4        1.0  0.02520  0.83870  0.95350  1.0000 0.3630069834
H   H5        1.0  0.13680  0.83700  0.37430  1.0000 0.1201546746
H   H6        1.0  0.86320  0.16300  0.62570  1.0000 0.1201546746
H   H7        1.0  0.91200  0.80100  0.69560  1.0000 0.1201546746
H   H8        1.0  0.08800  0.19900  0.30440  1.0000 0.1201546746
H   H9        1.0  0.68930  0.95920  0.07160  1.0000 0.1308691728
H   H10       1.0  0.31070  0.04080  0.92840  1.0000 0.1308691728
H   H11       1.0  0.51120  0.85240  0.88910  1.0000 0.1308691728
H   H12       1.0  0.48880  0.14760  0.11090  1.0000 0.1308691728
H   H13       1.0  0.63110  0.35720  0.85500  1.0000 0.3630069834
H   H14       1.0  0.36890  0.64280  0.14500  1.0000 0.3630069834
H   H15       1.0  0.11800  0.61300  0.69700  1.0000 0.1201546746
H   H16       1.0  0.88200  0.38700  0.30300  1.0000 0.1201546746
H   H17       1.0  0.30810  0.79070  0.92840  1.0000 0.1110860809
H   H18       1.0  0.69190  0.20930  0.07160  1.0000 0.1110860809
H   H19       1.0  0.32050  0.24130  0.84620  1.0000 0.1308691728
H   H20       1.0  0.67950  0.75870  0.15380  1.0000 0.1308691728
H   H21       1.0  0.70890  0.79200  0.59640  1.0000 0.1201546746
H   H22       1.0  0.29110  0.20800  0.40360  1.0000 0.1201546746
H   H23       1.0  0.29100  0.82460  0.03810  1.0000 0.1308691728
H   H24       1.0  0.70900  0.17540  0.96190  1.0000 0.1308691728
H   H25       1.0  0.14690  0.81090  0.85570  1.0000 0.1110860809
H   H26       1.0  0.85310  0.18910  0.14430  1.0000 0.1110860809
H   H27       1.0  0.97950  0.25880  0.76010  1.0000 0.1201546746
H   H28       1.0  0.02050  0.74120  0.23990  1.0000 0.1201546746
H   H29       1.0  0.77470  0.14300  0.37190  1.0000 0.1110860809
H   H30       1.0  0.22530  0.85700  0.62810  1.0000 0.1110860809
H   H31       1.0  0.17930  0.58460  0.39300  1.0000 0.1308691728
H   H32       1.0  0.82070  0.41540  0.60700  1.0000 0.1308691728
H   H33       1.0  0.10460  0.37010  0.70650  1.0000 0.1201546746
H   H34       1.0  0.89540  0.62990  0.29350  1.0000 0.1201546746
H   H35       1.0  0.42100  0.74620  0.28790  1.0000 0.1110860809
H   H36       1.0  0.57900  0.25380  0.71210  1.0000 0.1110860809
H   H37       1.0  0.04530  0.93600  0.45870  1.0000 0.1201546746
H   H38       1.0  0.95470  0.06400  0.54130  1.0000 0.1201546746
H   H39       1.0  0.11370  0.04660  0.47410  1.0000 0.1201546746
H   H40       1.0  0.88630  0.95340  0.52590  1.0000 0.1201546746
H   H41       1.0  0.38270  0.92320  0.48030  1.0000 0.1201546746
H   H42       1.0  0.61730  0.07680  0.51970  1.0000 0.1201546746
H   H43       1.0  0.44150  0.96790  0.55280  1.0000 0.1201546746
H   H44       1.0  0.55850  0.03210  0.44720  1.0000 0.1201546746
H   H45       1.0  0.92340  0.13410  0.45290  1.0000 0.140724683
H   H46       1.0  0.07660  0.86590  0.54710  1.0000 0.140724683
H   H47       1.0  0.57950  0.89180  0.60240  1.0000 0.1491763832
H   H48       1.0  0.42050  0.10820  0.39760  1.0000 0.1491763832
H   H49       1.0  0.21120  0.68490  0.80230  1.0000 0.1201546746
H   H50       1.0  0.78880  0.31510  0.19770  1.0000 0.1201546746
H   H51       1.0  0.55930  0.86660  0.41100  1.0000 0.140724683
H   H52       1.0  0.44070  0.13340  0.58900  1.0000 0.140724683
H   H53       1.0  0.77880  0.90170  0.27290  1.0000 0.1110860809
H   H54       1.0  0.22120  0.09830  0.72710  1.0000 0.1110860809
H   H55       1.0  0.92320  0.88380  0.35140  1.0000 0.1491763832
H   H56       1.0  0.07680  0.11620  0.64860  1.0000 0.1491763832
H   H57       1.0  0.34680  0.60470  0.32560  1.0000 0.1201546746
H   H58       1.0  0.65320  0.39530  0.67440  1.0000 0.1201546746
H   H59       1.0  0.68000  0.75910  0.40950  1.0000 0.1110860809
H   H60       1.0  0.32000  0.24090  0.59050  1.0000 0.1110860809
H   H61       1.0  0.33450  0.42290  0.72700  1.0000 0.1201546746
H   H62       1.0  0.66550  0.57710  0.27300  1.0000 0.1201546746
H   H63       1.0  0.65830  0.30190  0.36750  1.0000 0.1201546746
H   H64       1.0  0.34170  0.69810  0.63250  1.0000 0.1201546746
H   H65       1.0  0.47560  0.50590  0.38460  1.0000 0.1201546746
H   H66       1.0  0.52440  0.49410  0.61540  1.0000 0.1201546746
H   H67       1.0  0.31160  0.41280  0.30250  1.0000 0.1201546746
H   H68       1.0  0.68840  0.58720  0.69750  1.0000 0.1201546746
H   H69       1.0  0.31530  0.26260  0.25550  1.0000 0.1201546746
H   H70       1.0  0.68470  0.73740  0.74450  1.0000 0.1201546746
C   C1        1.0  0.62140  0.91200  0.97770  1.0000 -0.039875039
C   C2        1.0  0.37860  0.08800  0.02230  1.0000 -0.039875039
C   C3        1.0  0.97920  0.89980  0.81650  1.0000 0.5882039758
C   C4        1.0  0.02080  0.10020  0.18350  1.0000 0.5882039758
C   C5        1.0  0.18170  0.79150  0.36600  1.0000 -0.1358372477
C   C6        1.0  0.81830  0.20850  0.63400  1.0000 -0.1358372477
C   C7        1.0  0.97010  0.77680  0.71760  1.0000 -0.1214975363
C   C8        1.0  0.02990  0.22320  0.28240  1.0000 -0.1214975363
C   C9        1.0  0.75200  0.95520  0.95390  1.0000 0.5882039758
C   C10       1.0  0.24800  0.04480  0.04610  1.0000 0.5882039758
C   C11       1.0  0.61210  0.92720  0.04260  1.0000 -0.1000413853
C   C12       1.0  0.38790  0.07280  0.95740  1.0000 -0.1000413853
C   C13       1.0  0.47820  0.92540  0.13770  1.0000 0.5808486981
C   C14       1.0  0.52180  0.07460  0.86230  1.0000 0.5808486981
C   C15       1.0  0.94940  0.65410  0.61650  1.0000 0.5808486981
C   C16       1.0  0.05060  0.34590  0.38350  1.0000 0.5808486981
C   C17       1.0  0.00490  0.69830  0.68610  1.0000 -0.039875039
C   C18       1.0  0.99510  0.30170  0.31390  1.0000 -0.039875039
C   C19       1.0  0.28660  0.80630  0.32860  1.0000 -0.039875039
C   C20       1.0  0.71340  0.19370  0.67140  1.0000 -0.039875039
C   C21       1.0  0.50590  0.86190  0.93350  1.0000 -0.1000413853
C   C22       1.0  0.49410  0.13810  0.06650  1.0000 -0.1000413853
C   C23       1.0  0.48710  0.89510  0.06630  1.0000 -0.0146964916
C   C24       1.0  0.51290  0.10490  0.93370  1.0000 -0.0146964916
C   C25       1.0  0.02130  0.81820  0.78100  1.0000 -0.0317429237
C   C26       1.0  0.97870  0.18180  0.21900  1.0000 -0.0317429237
C   C27       1.0  0.13770  0.23920  0.80960  1.0000 -0.0248169397
C   C28       1.0  0.86230  0.76080  0.19040  1.0000 -0.0248169397
C   C29       1.0  0.33760  0.89630  0.30460  1.0000 0.5882039758
C   C30       1.0  0.66240  0.10370  0.69540  1.0000 0.5882039758
C   C31       1.0  0.48920  0.17030  0.27560  1.0000 0.5741324665
C   C32       1.0  0.51080  0.82970  0.72440  1.0000 0.5741324665
C   C33       1.0  0.69960  0.47780  0.43470  1.0000 0.5882039758
C   C34       1.0  0.30040  0.52220  0.56530  1.0000 0.5882039758
C   C35       1.0  0.05840  0.16780  0.84660  1.0000 0.5808486981
C   C36       1.0  0.94160  0.83220  0.15340  1.0000 0.5808486981
C   C37       1.0  0.09430  0.66480  0.71810  1.0000 -0.0921262755
C   C38       1.0  0.90570  0.33520  0.28190  1.0000 -0.0921262755
C   C39       1.0  0.38410  0.82700  0.95700  1.0000 -0.0921262755
C   C40       1.0  0.61590  0.17300  0.04300  1.0000 -0.0921262755
C   C41       1.0  0.27640  0.26830  0.81890  1.0000 -0.1255910641
C   C42       1.0  0.72360  0.73170  0.18110  1.0000 -0.1255910641
C   C43       1.0  0.67650  0.80550  0.55830  1.0000 0.0757154169
C   C44       1.0  0.32350  0.19450  0.44170  1.0000 0.0757154169
C   C45       1.0  0.37430  0.84570  0.02310  1.0000 -0.0921262755
C   C46       1.0  0.62570  0.15430  0.97690  1.0000 -0.0921262755
C   C47       1.0  0.11170  0.78310  0.81280  1.0000 -0.1000413853
C   C48       1.0  0.88830  0.21690  0.18720  1.0000 -0.1000413853
C   C49       1.0  0.93840  0.00580  0.41320  1.0000 0.1676561291
C   C50       1.0  0.06160  0.99420  0.58680  1.0000 0.1676561291
C   C51       1.0  0.07330  0.27810  0.76720  1.0000 -0.1000413853
C   C52       1.0  0.92670  0.72190  0.23280  1.0000 -0.1000413853
C   C53       1.0  0.50380  0.37270  0.80360  1.0000 0.5427389982
C   C54       1.0  0.49620  0.62730  0.19640  1.0000 0.5427389982
C   C55       1.0  0.14200  0.70900  0.39140  1.0000 -0.039875039
C   C56       1.0  0.85800  0.29100  0.60860  1.0000 -0.039875039
C   C57       1.0  0.80360  0.08920  0.36810  1.0000 0.0731316971
C   C58       1.0  0.19640  0.91080  0.63190  1.0000 0.0731316971
C   C59       1.0  0.58850  0.41520  0.38400  1.0000 -0.0317429237
C   C60       1.0  0.41150  0.58480  0.61600  1.0000 -0.0317429237
C   C61       1.0  0.20530  0.63990  0.37640  1.0000 -0.0921262755
C   C62       1.0  0.79470  0.36010  0.62360  1.0000 -0.0921262755
C   C63       1.0  0.35170  0.33730  0.78820  1.0000 -0.0317429237
C   C64       1.0  0.64830  0.66270  0.21180  1.0000 -0.0317429237
C   C65       1.0  0.14810  0.34540  0.73570  1.0000 -0.0921262755
C   C66       1.0  0.85190  0.65460  0.26430  1.0000 -0.0921262755
C   C67       1.0  0.35040  0.73660  0.31340  1.0000 -0.0921262755
C   C68       1.0  0.64960  0.26340  0.68660  1.0000 -0.0921262755
C   C69       1.0  0.02790  0.99680  0.46920  1.0000 -0.2438799722
C   C70       1.0  0.97210  0.00320  0.53080  1.0000 -0.2438799722
C   C71       1.0  0.55050  0.88710  0.50710  1.0000 0.1676561291
C   C72       1.0  0.44950  0.11290  0.49290  1.0000 0.1676561291
C   C73       1.0  0.46560  0.95460  0.50920  1.0000 -0.2337435641
C   C74       1.0  0.53440  0.04540  0.49080  1.0000 -0.2337435641
C   C75       1.0  0.89320  0.08430  0.41710  1.0000 -0.1929448006
C   C76       1.0  0.10680  0.91570  0.58290  1.0000 -0.1929448006
C   C77       1.0  0.59910  0.86560  0.56230  1.0000 -0.1844612268
C   C78       1.0  0.40090  0.13440  0.43770  1.0000 -0.1844612268
C   C79       1.0  0.14940  0.70710  0.78120  1.0000 -0.0921262755
C   C80       1.0  0.85060  0.29290  0.21880  1.0000 -0.0921262755
C   C81       1.0  0.58530  0.85020  0.44930  1.0000 -0.1929448006
C   C82       1.0  0.41470  0.14980  0.55070  1.0000 -0.1929448006
C   C83       1.0  0.80570  0.94840  0.31060  1.0000 0.0854747014
C   C84       1.0  0.19430  0.05160  0.68940  1.0000 0.0854747014
C   C85       1.0  0.89370  0.93730  0.35740  1.0000 -0.1929448006
C   C86       1.0  0.10630  0.06270  0.64260  1.0000 -0.1929448006
C   C87       1.0  0.30700  0.65260  0.33670  1.0000 -0.0921262755
C   C88       1.0  0.69300  0.34740  0.66330  1.0000 -0.0921262755
C   C89       1.0  0.66100  0.78740  0.44920  1.0000 0.0731316971
C   C90       1.0  0.33900  0.21260  0.55080  1.0000 0.0731316971
C   C91       1.0  0.28520  0.37570  0.74710  1.0000 -0.0921262755
C   C92       1.0  0.71480  0.62430  0.25290  1.0000 -0.0921262755
C   C93       1.0  0.58900  0.32470  0.35450  1.0000 -0.1214975363
C   C94       1.0  0.41100  0.67530  0.64550  1.0000 -0.1214975363
C   C95       1.0  0.48000  0.44660  0.36450  1.0000 -0.0921262755
C   C96       1.0  0.52000  0.55340  0.63550  1.0000 -0.0921262755
C   C97       1.0  0.38100  0.39050  0.31610  1.0000 -0.0828805847
C   C98       1.0  0.61900  0.60950  0.68390  1.0000 -0.0828805847
C   C99       1.0  0.48800  0.26780  0.30610  1.0000 -0.0464433973
C   C100      1.0  0.51200  0.73220  0.69390  1.0000 -0.0464433973
C   C101      1.0  0.38400  0.30090  0.28760  1.0000 -0.1000413853
C   C102      1.0  0.61600  0.69910  0.71240  1.0000 -0.0921262755
C   C103      1.0  0.03140  0.69240  0.43290  1.0000 0.5643465164
C   C104      1.0  0.96860  0.30760  0.56710  1.0000 0.5643465164
N   N1        1.0  0.70780  0.76550  0.50250  1.0000 -0.2337435641
N   N2        1.0  0.29220  0.23450  0.49750  1.0000 -0.2337435641
N   N3        1.0  0.75660  0.02070  0.31570  1.0000 -0.2337435641
N   N4        1.0  0.24340  0.97930  0.68430  1.0000 -0.2337435641
O   O1        1.0  0.86020  0.97670  0.99250  1.0000 -0.5791041014
O   O2        1.0  0.13980  0.02330  0.00750  1.0000 -0.5791041014
O   O3        1.0  0.90760  0.93490  0.78460  1.0000 -0.5598944707
O   O4        1.0  0.09240  0.06510  0.21540  1.0000 -0.5598944707
O   O5        1.0  0.01820  0.92640  0.87690  1.0000 -0.5791041014
O   O6        1.0  0.98180  0.07360  0.12310  1.0000 -0.5791041014
O   O7        1.0  0.75760  0.97280  0.89880  1.0000 -0.5318625527
O   O8        1.0  0.24240  0.02720  0.10120  1.0000 -0.5318625527
O   O9        1.0  0.89180  0.70260  0.58760  1.0000 -0.5598944707
O   O10       1.0  0.10820  0.29740  0.41240  1.0000 -0.5598944707
O   O11       1.0  0.58430  0.14400  0.29580  1.0000 -0.5318625527
O   O12       1.0  0.41570  0.85600  0.70420  1.0000 -0.5400611092
O   O13       1.0  0.46480  0.92400  0.30410  1.0000 -0.5667368231
O   O14       1.0  0.53520  0.07600  0.69590  1.0000 -0.5667368231
O   O15       1.0  0.96390  0.57650  0.59180  1.0000 -0.5598944707
O   O16       1.0  0.03610  0.42350  0.40820  1.0000 -0.5598944707
O   O17       1.0  0.25830  0.93880  0.28830  1.0000 -0.5598944707
O   O18       1.0  0.74170  0.06120  0.71170  1.0000 -0.5598944707
O   O19       1.0  0.00030  0.17300  0.01050  1.0000 -0.6407818256
O   O20       1.0  0.99970  0.82700  0.98950  1.0000 -0.6407818256
O   O21       1.0  0.58940  0.96950  0.17260  1.0000 -0.5400611092
O   O22       1.0  0.41060  0.03050  0.82740  1.0000 -0.5400611092
O   O23       1.0  0.39640  0.11980  0.23210  1.0000 -0.5667368231
O   O24       1.0  0.60360  0.88020  0.76790  1.0000 -0.5667368231
O   O25       1.0  0.01090  0.62510  0.46300  1.0000 -0.5598944707
O   O26       1.0  0.98910  0.37490  0.53700  1.0000 -0.5598944707
O   O27       1.0  0.78660  0.44660  0.45670  1.0000 -0.5477204976
O   O28       1.0  0.21340  0.55340  0.54330  1.0000 -0.5477204976
O   O29       1.0  0.69670  0.56330  0.44940  1.0000 -0.5598944707
O   O30       1.0  0.30330  0.43670  0.55060  1.0000 -0.5598944707
O   O31       1.0  0.12580  0.14340  0.88750  1.0000 -0.5400611092
O   O32       1.0  0.87420  0.85660  0.11250  1.0000 -0.5400611092
O   O33       1.0  0.93270  0.13960  0.83570  1.0000 -0.5598944707
O   O34       1.0  0.06730  0.86040  0.16430  1.0000 -0.5598944707
O   O35       1.0  0.55210  0.32710  0.84140  1.0000 -0.4641644118
O   O36       1.0  0.44790  0.67290  0.15860  1.0000 -0.4641644118
O   O37       1.0  0.57030  0.43960  0.78160  1.0000 -0.5176237283
O   O38       1.0  0.42970  0.56040  0.21840  1.0000 -0.5176237283
O   O39       1.0  0.36510  0.90630  0.15740  1.0000 -0.5598944707
O   O40       1.0  0.63490  0.09370  0.84260  1.0000 -0.5598944707
O   O41       1.0  0.95930  0.74710  0.43950  1.0000 -0.5400611092
O   O42       1.0  0.04070  0.25290  0.56050  1.0000 -0.5400611092
