# DDEC6 charges by PACMAN v1.1 (https://github.com/mtap-research/PACMAN-charge/)
data_2008[Ag][nan]3[FSR]4
_chemical_formula_sum              "Ag8 H60 C60 N8 O18"
_cell_length_a       14.4802
_cell_length_b       14.4802
_cell_length_c       8.7884
_cell_angle_alpha    90
_cell_angle_beta     90
_cell_angle_gamma    120

_symmetry_space_group_name_H-M    "P 1"
_symmetry_Int_Tables_number       1

loop_
  _symmetry_equiv_pos_as_xyz
  'x, y, z'

loop_
  _atom_site_type_symbol
  _atom_site_label
  _atom_site_symmetry_multiplicity
  _atom_site_fract_x
  _atom_site_fract_y
  _atom_site_fract_z
  _atom_site_occupancy
  _atom_site_charge
Ag  Ag1       1.0  0.66667  0.33333  0.68141  1.0000 0.4707814204
Ag  Ag2       1.0  0.33333  0.66667  0.31859  1.0000 0.4707814204
Ag  Ag3       1.0  0.89594  0.59922  0.10093  1.0000 0.3913648623
Ag  Ag4       1.0  0.40078  0.29672  0.10093  1.0000 0.3913648623
Ag  Ag5       1.0  0.70328  0.10406  0.10093  1.0000 0.3913648623
Ag  Ag6       1.0  0.10406  0.40078  0.89907  1.0000 0.3913648623
Ag  Ag7       1.0  0.59922  0.70328  0.89907  1.0000 0.3913648623
Ag  Ag8       1.0  0.29672  0.89594  0.89907  1.0000 0.3913648623
H   H1        1.0  0.95530  0.69760  0.62460  1.0000 0.1184978094
H   H2        1.0  0.30240  0.25770  0.62460  1.0000 0.1184978094
H   H3        1.0  0.74230  0.04470  0.62460  1.0000 0.1184978094
H   H4        1.0  0.04470  0.30240  0.37540  1.0000 0.1184978094
H   H5        1.0  0.69760  0.74230  0.37540  1.0000 0.1184978094
H   H6        1.0  0.25770  0.95530  0.37540  1.0000 0.1184978094
H   H7        1.0  0.00290  0.81690  0.43320  1.0000 0.1073317989
H   H8        1.0  0.18310  0.18600  0.43320  1.0000 0.1073317989
H   H9        1.0  0.81400  0.99710  0.43320  1.0000 0.1073317989
H   H10       1.0  0.99710  0.18310  0.56680  1.0000 0.1073317989
H   H11       1.0  0.81690  0.81400  0.56680  1.0000 0.1073317989
H   H12       1.0  0.18600  0.00290  0.56680  1.0000 0.1073317989
H   H13       1.0  0.07620  0.79460  0.20730  1.0000 0.1073317989
H   H14       1.0  0.20540  0.28160  0.20730  1.0000 0.1073317989
H   H15       1.0  0.71840  0.92380  0.20730  1.0000 0.1073317989
H   H16       1.0  0.92380  0.20540  0.79270  1.0000 0.1073317989
H   H17       1.0  0.79460  0.71840  0.79270  1.0000 0.1073317989
H   H18       1.0  0.28160  0.07620  0.79270  1.0000 0.1073317989
H   H19       1.0  0.09740  0.64900  0.17640  1.0000 0.1184978094
H   H20       1.0  0.35100  0.44840  0.17640  1.0000 0.1184978094
H   H21       1.0  0.55160  0.90260  0.17640  1.0000 0.1184978094
H   H22       1.0  0.90260  0.35100  0.82360  1.0000 0.1184978094
H   H23       1.0  0.64900  0.55160  0.82360  1.0000 0.1184978094
H   H24       1.0  0.44840  0.09740  0.82360  1.0000 0.1184978094
H   H25       1.0  0.50640  0.25160  0.39790  1.0000 0.1073317989
H   H26       1.0  0.74840  0.25480  0.39790  1.0000 0.1073317989
H   H27       1.0  0.74520  0.49360  0.39790  1.0000 0.1073317989
H   H28       1.0  0.49360  0.74840  0.60210  1.0000 0.1073317989
H   H29       1.0  0.25160  0.74520  0.60210  1.0000 0.1073317989
H   H30       1.0  0.25480  0.50640  0.60210  1.0000 0.1073317989
H   H31       1.0  0.55390  0.37560  0.39820  1.0000 0.0902693096
H   H32       1.0  0.62440  0.17830  0.39820  1.0000 0.0902693096
H   H33       1.0  0.82170  0.44610  0.39820  1.0000 0.0902693096
H   H34       1.0  0.44610  0.62440  0.60180  1.0000 0.0902693096
H   H35       1.0  0.37560  0.82170  0.60180  1.0000 0.0902693096
H   H36       1.0  0.17830  0.55390  0.60180  1.0000 0.0902693096
H   H37       1.0  0.65250  0.42240  0.02770  1.0000 0.1184978094
H   H38       1.0  0.57760  0.23010  0.02770  1.0000 0.1184978094
H   H39       1.0  0.76990  0.34750  0.02770  1.0000 0.1184978094
H   H40       1.0  0.34750  0.57760  0.97230  1.0000 0.1184978094
H   H41       1.0  0.42240  0.76990  0.97230  1.0000 0.1184978094
H   H42       1.0  0.23010  0.65250  0.97230  1.0000 0.1184978094
H   H43       1.0  0.64300  0.47930  0.17400  1.0000 0.1011466059
H   H44       1.0  0.52070  0.16370  0.17400  1.0000 0.1011466059
H   H45       1.0  0.83630  0.35700  0.17400  1.0000 0.1011466059
H   H46       1.0  0.35700  0.52070  0.82600  1.0000 0.1011466059
H   H47       1.0  0.47930  0.83630  0.82600  1.0000 0.1011466059
H   H48       1.0  0.16370  0.64300  0.82600  1.0000 0.1011466059
H   H49       1.0  0.85010  0.77400  0.11800  1.0000 0.3703025478
H   H50       1.0  0.22600  0.07610  0.11800  1.0000 0.3703025478
H   H51       1.0  0.92390  0.14990  0.11800  1.0000 0.3703025478
H   H52       1.0  0.14990  0.22600  0.88200  1.0000 0.3703025478
H   H53       1.0  0.77400  0.92390  0.88200  1.0000 0.3703025478
H   H54       1.0  0.07610  0.85010  0.88200  1.0000 0.3703025478
H   H55       1.0  0.75400  0.65900  0.09500  1.0000 0.3703025478
H   H56       1.0  0.34100  0.09500  0.09500  1.0000 0.3703025478
H   H57       1.0  0.90500  0.24600  0.09500  1.0000 0.3703025478
H   H58       1.0  0.24600  0.34100  0.90500  1.0000 0.3703025478
H   H59       1.0  0.65900  0.90500  0.90500  1.0000 0.3703025478
H   H60       1.0  0.09500  0.75400  0.90500  1.0000 0.3703025478
C   C1        1.0  0.91100  0.53060  0.78390  1.0000 0.5638040501
C   C2        1.0  0.46940  0.38040  0.78390  1.0000 0.5638040501
C   C3        1.0  0.61960  0.08900  0.78390  1.0000 0.5638040501
C   C4        1.0  0.08900  0.46940  0.21610  1.0000 0.5638040501
C   C5        1.0  0.53060  0.61960  0.21610  1.0000 0.5638040501
C   C6        1.0  0.38040  0.91100  0.21610  1.0000 0.5638040501
C   C7        1.0  0.95690  0.51520  0.63610  1.0000 -0.1401357379
C   C8        1.0  0.48480  0.44170  0.63610  1.0000 -0.1401357379
C   C9        1.0  0.55830  0.04310  0.63610  1.0000 -0.1401357379
C   C10       1.0  0.04310  0.48480  0.36390  1.0000 -0.1401357379
C   C11       1.0  0.51520  0.55830  0.36390  1.0000 -0.1401357379
C   C12       1.0  0.44170  0.95690  0.36390  1.0000 -0.1401357379
C   C13       1.0  0.99230  0.59320  0.52200  1.0000 0.0365934214
C   C14       1.0  0.40680  0.39910  0.52200  1.0000 0.0365934214
C   C15       1.0  0.60090  0.00770  0.52200  1.0000 0.0365934214
C   C16       1.0  0.00770  0.40680  0.47800  1.0000 0.0365934214
C   C17       1.0  0.59320  0.60090  0.47800  1.0000 0.0365934214
C   C18       1.0  0.39910  0.99230  0.47800  1.0000 0.0365934214
C   C19       1.0  0.98250  0.68630  0.53520  1.0000 -0.1509239105
C   C20       1.0  0.31370  0.29620  0.53520  1.0000 -0.1509239105
C   C21       1.0  0.70380  0.01750  0.53520  1.0000 -0.1509239105
C   C22       1.0  0.01750  0.31370  0.46480  1.0000 -0.1509239105
C   C23       1.0  0.68630  0.70380  0.46480  1.0000 -0.1509239105
C   C24       1.0  0.29620  0.98250  0.46480  1.0000 -0.1509239105
C   C25       1.0  0.01160  0.75790  0.42190  1.0000 -0.1075383427
C   C26       1.0  0.24210  0.25370  0.42190  1.0000 -0.1075383427
C   C27       1.0  0.74630  0.98840  0.42190  1.0000 -0.1075383427
C   C28       1.0  0.98840  0.24210  0.57810  1.0000 -0.1075383427
C   C29       1.0  0.75790  0.74630  0.57810  1.0000 -0.1075383427
C   C30       1.0  0.25370  0.01160  0.57810  1.0000 -0.1075383427
C   C31       1.0  0.05570  0.74420  0.28460  1.0000 -0.1220471737
C   C32       1.0  0.25580  0.31150  0.28460  1.0000 -0.1220471737
C   C33       1.0  0.68850  0.94430  0.28460  1.0000 -0.1220471737
C   C34       1.0  0.94430  0.25580  0.71540  1.0000 -0.1220471737
C   C35       1.0  0.74420  0.68850  0.71540  1.0000 -0.1220471737
C   C36       1.0  0.31150  0.05570  0.71540  1.0000 -0.1220471737
C   C37       1.0  0.06790  0.65690  0.26610  1.0000 -0.2005566907
C   C38       1.0  0.34310  0.41100  0.26610  1.0000 -0.2005566907
C   C39       1.0  0.58900  0.93210  0.26610  1.0000 -0.2005566907
C   C40       1.0  0.93210  0.34310  0.73390  1.0000 -0.2005566907
C   C41       1.0  0.65690  0.58900  0.73390  1.0000 -0.2005566907
C   C42       1.0  0.41100  0.06790  0.73390  1.0000 -0.2005566907
C   C43       1.0  0.96410  0.42230  0.61700  1.0000 0.0365934214
C   C44       1.0  0.57770  0.54180  0.61700  1.0000 0.0365934214
C   C45       1.0  0.45820  0.03590  0.61700  1.0000 0.0365934214
C   C46       1.0  0.03590  0.57770  0.38300  1.0000 0.0365934214
C   C47       1.0  0.42230  0.45820  0.38300  1.0000 0.0365934214
C   C48       1.0  0.54180  0.96410  0.38300  1.0000 0.0365934214
C   C49       1.0  0.56460  0.31870  0.36070  1.0000 -0.0399531311
C   C50       1.0  0.68130  0.24590  0.36070  1.0000 -0.0399531311
C   C51       1.0  0.75410  0.43540  0.36070  1.0000 -0.0399531311
C   C52       1.0  0.43540  0.68130  0.63930  1.0000 -0.0399531311
C   C53       1.0  0.31870  0.75410  0.63930  1.0000 -0.0399531311
C   C54       1.0  0.24590  0.56460  0.63930  1.0000 -0.0399531311
C   C55       1.0  0.65260  0.42130  0.13810  1.0000 -0.0399531311
C   C56       1.0  0.57870  0.23130  0.13810  1.0000 -0.0399531311
C   C57       1.0  0.76870  0.34740  0.13810  1.0000 -0.0399531311
C   C58       1.0  0.34740  0.57870  0.86190  1.0000 -0.0399531311
C   C59       1.0  0.42130  0.76870  0.86190  1.0000 -0.0399531311
C   C60       1.0  0.23130  0.65260  0.86190  1.0000 -0.0399531311
N   N1        1.0  0.66667  0.33333  0.42060  1.0000 -0.1509239105
N   N2        1.0  0.33333  0.66667  0.57940  1.0000 -0.1509239105
N   N3        1.0  0.56280  0.31860  0.19230  1.0000 -0.1401357379
N   N4        1.0  0.68140  0.24420  0.19230  1.0000 -0.1401357379
N   N5        1.0  0.75580  0.43720  0.19230  1.0000 -0.1401357379
N   N6        1.0  0.43720  0.68140  0.80770  1.0000 -0.1401357379
N   N7        1.0  0.31860  0.75580  0.80770  1.0000 -0.1401357379
N   N8        1.0  0.24420  0.56280  0.80770  1.0000 -0.1401357379
O   O1        1.0  0.81330  0.47480  0.80900  1.0000 -0.5504700643
O   O2        1.0  0.52520  0.33850  0.80900  1.0000 -0.5504700643
O   O3        1.0  0.66150  0.18670  0.80900  1.0000 -0.5504700643
O   O4        1.0  0.18670  0.52520  0.19100  1.0000 -0.5504700643
O   O5        1.0  0.47480  0.66150  0.19100  1.0000 -0.5504700643
O   O6        1.0  0.33850  0.81330  0.19100  1.0000 -0.5504700643
O   O7        1.0  0.81890  0.70850  0.09410  1.0000 -0.7023007773
O   O8        1.0  0.29150  0.11040  0.09410  1.0000 -0.7023007773
O   O9        1.0  0.88960  0.18110  0.09410  1.0000 -0.7023007773
O   O10       1.0  0.18110  0.29150  0.90590  1.0000 -0.7023007773
O   O11       1.0  0.70850  0.88960  0.90590  1.0000 -0.7023007773
O   O12       1.0  0.11040  0.81890  0.90590  1.0000 -0.7023007773
O   O13       1.0  0.97660  0.60080  0.87330  1.0000 -0.5504700643
O   O14       1.0  0.39920  0.37580  0.87330  1.0000 -0.5504700643
O   O15       1.0  0.62420  0.02340  0.87330  1.0000 -0.5504700643
O   O16       1.0  0.02340  0.39920  0.12670  1.0000 -0.5504700643
O   O17       1.0  0.60080  0.62420  0.12670  1.0000 -0.5504700643
O   O18       1.0  0.37580  0.97660  0.12670  1.0000 -0.5504700643
