# DDEC6 charges by PACMAN v1.1 (https://github.com/mtap-research/PACMAN-charge/)
data_2008[Zn][pcu]3[FSR]5
_chemical_formula_sum              "Zn8 H72 C88 N8 O40"
_cell_length_a       8.7994
_cell_length_b       53.888
_cell_length_c       8.8039
_cell_angle_alpha    90
_cell_angle_beta     90.111
_cell_angle_gamma    90

_symmetry_space_group_name_H-M    "P 1"
_symmetry_Int_Tables_number       1

loop_
  _symmetry_equiv_pos_as_xyz
  'x, y, z'

loop_
  _atom_site_type_symbol
  _atom_site_label
  _atom_site_symmetry_multiplicity
  _atom_site_fract_x
  _atom_site_fract_y
  _atom_site_fract_z
  _atom_site_occupancy
  _atom_site_charge
Zn  Zn1       1.0  0.73435  0.74649  0.82303  1.0000 0.852503824
Zn  Zn2       1.0  0.26565  0.24649  0.17697  1.0000 0.852503824
Zn  Zn3       1.0  0.77244  0.80212  0.78812  1.0000 0.8390635727
Zn  Zn4       1.0  0.22756  0.30212  0.21188  1.0000 0.8390635727
Zn  Zn5       1.0  0.43161  0.54848  0.66286  1.0000 0.8235094426
Zn  Zn6       1.0  0.56839  0.04848  0.33714  1.0000 0.8235094426
Zn  Zn7       1.0  0.60378  0.99407  0.37088  1.0000 0.8235094426
Zn  Zn8       1.0  0.39622  0.49407  0.62912  1.0000 0.8235094426
H   H1        1.0  0.87300  0.70690  0.06190  1.0000 0.1408207919
H   H2        1.0  0.12700  0.20690  0.93810  1.0000 0.1408207919
H   H3        1.0  0.72290  0.72100  0.10200  1.0000 0.1408207919
H   H4        1.0  0.27710  0.22100  0.89800  1.0000 0.1408207919
H   H5        1.0  0.65160  0.69150  0.28240  1.0000 0.1204045308
H   H6        1.0  0.34840  0.19150  0.71760  1.0000 0.1204045308
H   H7        1.0  0.82800  0.69360  0.30910  1.0000 0.1204045308
H   H8        1.0  0.17200  0.19360  0.69090  1.0000 0.1204045308
H   H9        1.0  0.86890  0.65970  0.15290  1.0000 0.0893677464
H   H10       1.0  0.13110  0.15970  0.84710  1.0000 0.0893677464
H   H11       1.0  0.66890  0.63580  0.05610  1.0000 0.0691748842
H   H12       1.0  0.33110  0.13580  0.94390  1.0000 0.0691748842
H   H13       1.0  0.54420  0.67090  0.58820  1.0000 0.129515603
H   H14       1.0  0.45580  0.17090  0.41180  1.0000 0.129515603
H   H15       1.0  0.61270  0.71170  0.61890  1.0000 0.1204045308
H   H16       1.0  0.38730  0.21170  0.38110  1.0000 0.1204045308
H   H17       1.0  0.61500  0.58970  0.53560  1.0000 0.1115811576
H   H18       1.0  0.38500  0.08970  0.46440  1.0000 0.1115811576
H   H19       1.0  0.68100  0.62990  0.58710  1.0000 0.129515603
H   H20       1.0  0.31900  0.12990  0.41290  1.0000 0.129515603
H   H21       1.0  0.39930  0.62820  0.94530  1.0000 0.129515603
H   H22       1.0  0.60070  0.12820  0.05470  1.0000 0.129515603
H   H23       1.0  0.35070  0.58740  0.89170  1.0000 0.1204045308
H   H24       1.0  0.64930  0.08740  0.10830  1.0000 0.1204045308
H   H25       1.0  0.77010  0.63370  0.31720  1.0000 0.3237190126
H   H26       1.0  0.22990  0.13370  0.68280  1.0000 0.3237190126
H   H27       1.0  0.49500  0.64610  0.22530  1.0000 0.3363965181
H   H28       1.0  0.50500  0.14610  0.77470  1.0000 0.3363965181
H   H29       1.0  0.99700  0.85060  0.92920  1.0000 0.1408207919
H   H30       1.0  0.00300  0.35060  0.07080  1.0000 0.1408207919
H   H31       1.0  0.02250  0.82870  0.81440  1.0000 0.1408207919
H   H32       1.0  0.97750  0.32870  0.18560  1.0000 0.1408207919
H   H33       1.0  0.19290  0.85540  0.65800  1.0000 0.1204045308
H   H34       1.0  0.80710  0.35540  0.34200  1.0000 0.1204045308
H   H35       1.0  0.25710  0.85570  0.82590  1.0000 0.1204045308
H   H36       1.0  0.74290  0.35570  0.17410  1.0000 0.1204045308
H   H37       1.0  0.09490  0.89220  0.87600  1.0000 0.0788077541
H   H38       1.0  0.90510  0.39220  0.12400  1.0000 0.0788077541
H   H39       1.0  0.99110  0.91120  0.64720  1.0000 0.0691748842
H   H40       1.0  0.00890  0.41120  0.35280  1.0000 0.0691748842
H   H41       1.0  0.52960  0.87450  0.55600  1.0000 0.129515603
H   H42       1.0  0.47040  0.37450  0.44400  1.0000 0.129515603
H   H43       1.0  0.58080  0.83270  0.61780  1.0000 0.1204045308
H   H44       1.0  0.41920  0.33270  0.38220  1.0000 0.1204045308
H   H45       1.0  0.53010  0.96070  0.62050  1.0000 0.1115811576
H   H46       1.0  0.46990  0.46070  0.37950  1.0000 0.1115811576
H   H47       1.0  0.51380  0.91710  0.66380  1.0000 0.129515603
H   H48       1.0  0.48620  0.41710  0.33620  1.0000 0.129515603
H   H49       1.0  0.85980  0.91160  0.36540  1.0000 0.1408207919
H   H50       1.0  0.14020  0.41160  0.63460  1.0000 0.1408207919
H   H51       1.0  0.76620  0.94850  0.25870  1.0000 0.1204045308
H   H52       1.0  0.23380  0.44850  0.74130  1.0000 0.1204045308
H   H53       1.0  0.25550  0.91440  0.73570  1.0000 0.3268551705
H   H54       1.0  0.74450  0.41440  0.26430  1.0000 0.3268551705
H   H55       1.0  0.13710  0.89560  0.46520  1.0000 0.3363965181
H   H56       1.0  0.86290  0.39560  0.53480  1.0000 0.3363965181
H   H57       1.0  0.25970  0.79770  0.79090  1.0000 0.1408207919
H   H58       1.0  0.74030  0.29770  0.20910  1.0000 0.1408207919
H   H59       1.0  0.24220  0.74670  0.81360  1.0000 0.1408207919
H   H60       1.0  0.75780  0.24670  0.18640  1.0000 0.1408207919
H   H61       1.0  0.73850  0.80190  0.29800  1.0000 0.1408207919
H   H62       1.0  0.26150  0.30190  0.70200  1.0000 0.1408207919
H   H63       1.0  0.76530  0.75080  0.30990  1.0000 0.1408207919
H   H64       1.0  0.23470  0.25080  0.69010  1.0000 0.1408207919
H   H65       1.0  0.91470  0.54630  0.64610  1.0000 0.1485143183
H   H66       1.0  0.08530  0.04630  0.35390  1.0000 0.1485143183
H   H67       1.0  0.91230  0.49620  0.63310  1.0000 0.1559216259
H   H68       1.0  0.08770  0.99620  0.36690  1.0000 0.1559216259
H   H69       1.0  0.41810  0.49630  0.14350  1.0000 0.1408207919
H   H70       1.0  0.58190  0.99630  0.85650  1.0000 0.1408207919
H   H71       1.0  0.41850  0.54710  0.14760  1.0000 0.1408207919
H   H72       1.0  0.58150  0.04710  0.85240  1.0000 0.1408207919
C   C1        1.0  0.69150  0.69368  0.95250  1.0000 0.2104306025
C   C2        1.0  0.30850  0.19368  0.04750  1.0000 0.2104306025
C   C3        1.0  0.76600  0.70472  0.08450  1.0000 -0.2520192796
C   C4        1.0  0.23400  0.20472  0.91550  1.0000 -0.2520192796
C   C5        1.0  0.75040  0.68872  0.23680  1.0000 -0.2200183971
C   C6        1.0  0.24960  0.18872  0.76320  1.0000 -0.2200183971
C   C7        1.0  0.76820  0.66214  0.19780  1.0000 0.0788077541
C   C8        1.0  0.23180  0.16214  0.80220  1.0000 0.0788077541
C   C9        1.0  0.64730  0.65307  0.08410  1.0000 0.0691748842
C   C10       1.0  0.35270  0.15307  0.91590  1.0000 0.0691748842
C   C11       1.0  0.64520  0.66902  0.94170  1.0000 -0.0595694995
C   C12       1.0  0.35480  0.16902  0.05830  1.0000 -0.0595694995
C   C13       1.0  0.58910  0.65994  0.80450  1.0000 0.0691748842
C   C14       1.0  0.41090  0.15994  0.19550  1.0000 0.0691748842
C   C15       1.0  0.58020  0.67638  0.68170  1.0000 -0.2120836703
C   C16       1.0  0.41980  0.17638  0.31830  1.0000 -0.2120836703
C   C17       1.0  0.62500  0.70071  0.69960  1.0000 0.0983264189
C   C18       1.0  0.37500  0.20071  0.30040  1.0000 0.0983264189
C   C19       1.0  0.57250  0.59751  0.61950  1.0000 0.0788077541
C   C20       1.0  0.42750  0.09751  0.38050  1.0000 0.0788077541
C   C21       1.0  0.61200  0.62168  0.64920  1.0000 -0.2120836703
C   C22       1.0  0.38800  0.12168  0.35080  1.0000 -0.2120836703
C   C23       1.0  0.54680  0.63396  0.77520  1.0000 0.1115811576
C   C24       1.0  0.45320  0.13396  0.22480  1.0000 0.1115811576
C   C25       1.0  0.44640  0.62069  0.86280  1.0000 -0.2000709943
C   C26       1.0  0.55360  0.12069  0.13720  1.0000 -0.2000709943
C   C27       1.0  0.41550  0.59624  0.82800  1.0000 0.0893677464
C   C28       1.0  0.58450  0.09624  0.17200  1.0000 0.0893677464
C   C29       1.0  0.88740  0.85506  0.73410  1.0000 0.221425849
C   C30       1.0  0.11260  0.35506  0.26590  1.0000 0.221425849
C   C31       1.0  0.01330  0.84650  0.82300  1.0000 -0.268477452
C   C32       1.0  0.98670  0.34650  0.17700  1.0000 -0.268477452
C   C33       1.0  0.17090  0.86000  0.76220  1.0000 -0.2366652014
C   C34       1.0  0.82910  0.36000  0.23780  1.0000 -0.2366652014
C   C35       1.0  0.13150  0.88730  0.77530  1.0000 0.1115811576
C   C36       1.0  0.86850  0.38730  0.22470  1.0000 0.1115811576
C   C37       1.0  0.01710  0.89360  0.64170  1.0000 0.0691748842
C   C38       1.0  0.98290  0.39360  0.35830  1.0000 0.0691748842
C   C39       1.0  0.87370  0.87847  0.67270  1.0000 -0.0595694995
C   C40       1.0  0.12630  0.37847  0.32730  1.0000 -0.0595694995
C   C41       1.0  0.74400  0.88584  0.60040  1.0000 0.0691748842
C   C42       1.0  0.25600  0.38584  0.39960  1.0000 0.0691748842
C   C43       1.0  0.62420  0.86950  0.59250  1.0000 -0.2120836703
C   C44       1.0  0.37580  0.36950  0.40750  1.0000 -0.2120836703
C   C45       1.0  0.65070  0.84500  0.64200  1.0000 0.1115811576
C   C46       1.0  0.34930  0.34500  0.35800  1.0000 0.1115811576
C   C47       1.0  0.58100  0.94960  0.55790  1.0000 0.0983264189
C   C48       1.0  0.41900  0.44960  0.44210  1.0000 0.0983264189
C   C49       1.0  0.58630  0.92460  0.60210  1.0000 -0.2200183971
C   C50       1.0  0.41370  0.42460  0.39790  1.0000 -0.2200183971
C   C51       1.0  0.71700  0.91170  0.54120  1.0000 0.1115811576
C   C52       1.0  0.28300  0.41170  0.45880  1.0000 0.1115811576
C   C53       1.0  0.78330  0.92057  0.41360  1.0000 -0.1928598704
C   C54       1.0  0.21670  0.42057  0.58640  1.0000 -0.1928598704
C   C55       1.0  0.73420  0.94363  0.35480  1.0000 0.0983264189
C   C56       1.0  0.26580  0.44363  0.64520  1.0000 0.0983264189
C   C57       1.0  0.46100  0.77840  0.80190  1.0000 0.6293220101
C   C58       1.0  0.53900  0.27840  0.19810  1.0000 0.6293220101
C   C59       1.0  0.29870  0.78180  0.79910  1.0000 -0.2200183971
C   C60       1.0  0.70130  0.28180  0.20090  1.0000 -0.2200183971
C   C61       1.0  0.20230  0.76263  0.80810  1.0000 -0.1928598704
C   C62       1.0  0.79770  0.26263  0.19190  1.0000 -0.1928598704
C   C63       1.0  0.03650  0.76560  0.80960  1.0000 0.6293220101
C   C64       1.0  0.96350  0.26560  0.19040  1.0000 0.6293220101
C   C65       1.0  0.75540  0.78397  0.08820  1.0000 0.6293220101
C   C66       1.0  0.24460  0.28397  0.91180  1.0000 0.6293220101
C   C67       1.0  0.74880  0.78617  0.25610  1.0000 -0.1778816777
C   C68       1.0  0.25120  0.28617  0.74390  1.0000 -0.1778816777
C   C69       1.0  0.75680  0.76670  0.35080  1.0000 -0.2200183971
C   C70       1.0  0.24320  0.26670  0.64920  1.0000 -0.2200183971
C   C71       1.0  0.75270  0.76951  0.51460  1.0000 0.6293220101
C   C72       1.0  0.24730  0.26951  0.48540  1.0000 0.6293220101
C   C73       1.0  0.13340  0.52795  0.64180  1.0000 0.6136570452
C   C74       1.0  0.86660  0.02795  0.35820  1.0000 0.6136570452
C   C75       1.0  0.95710  0.53051  0.64300  1.0000 -0.142186624
C   C76       1.0  0.04290  0.03051  0.35700  1.0000 -0.142186624
C   C77       1.0  0.86940  0.51189  0.63990  1.0000 -0.1778816777
C   C78       1.0  0.13060  0.01189  0.36010  1.0000 -0.1778816777
C   C79       1.0  0.70170  0.51393  0.64650  1.0000 0.6293220101
C   C80       1.0  0.29830  0.01393  0.35350  1.0000 0.6293220101
C   C81       1.0  0.40340  0.51426  0.93050  1.0000 0.6293220101
C   C82       1.0  0.59660  0.01426  0.06950  1.0000 0.6293220101
C   C83       1.0  0.41350  0.51209  0.10060  1.0000 -0.1660843613
C   C84       1.0  0.58650  0.01209  0.89940  1.0000 -0.1660843613
C   C85       1.0  0.41600  0.53136  0.19050  1.0000 -0.2000709943
C   C86       1.0  0.58400  0.03136  0.80950  1.0000 -0.2000709943
C   C87       1.0  0.41510  0.52906  0.35760  1.0000 0.6293220101
C   C88       1.0  0.58490  0.02906  0.64240  1.0000 0.6293220101
N   N1        1.0  0.68580  0.70912  0.82930  1.0000 -0.268477452
N   N2        1.0  0.31420  0.20912  0.17070  1.0000 -0.268477452
N   N3        1.0  0.47390  0.58456  0.70770  1.0000 -0.2120836703
N   N4        1.0  0.52610  0.08456  0.29230  1.0000 -0.2120836703
N   N5        1.0  0.77280  0.83916  0.72270  1.0000 -0.2520192796
N   N6        1.0  0.22720  0.33916  0.27730  1.0000 -0.2520192796
N   N7        1.0  0.64430  0.95835  0.43280  1.0000 -0.2000709943
N   N8        1.0  0.35570  0.45835  0.56720  1.0000 -0.2000709943
O   O1        1.0  0.76050  0.64851  0.33540  1.0000 -0.4790806519
O   O2        1.0  0.23950  0.14851  0.66460  1.0000 -0.4790806519
O   O3        1.0  0.49870  0.65457  0.14780  1.0000 -0.4577992084
O   O4        1.0  0.50130  0.15457  0.85220  1.0000 -0.4577992084
O   O5        1.0  0.26720  0.89930  0.73130  1.0000 -0.4790806519
O   O6        1.0  0.73280  0.39930  0.26870  1.0000 -0.4790806519
O   O7        1.0  0.06020  0.88780  0.48740  1.0000 -0.4689926924
O   O8        1.0  0.93980  0.38780  0.51260  1.0000 -0.4689926924
O   O9        1.0  0.51760  0.75636  0.79300  1.0000 -0.5655613265
O   O10       1.0  0.48240  0.25636  0.20700  1.0000 -0.5655613265
O   O11       1.0  0.53910  0.79806  0.80700  1.0000 -0.5655613265
O   O12       1.0  0.46090  0.29806  0.19300  1.0000 -0.5655613265
O   O13       1.0  0.95800  0.74582  0.84300  1.0000 -0.5655613265
O   O14       1.0  0.04200  0.24582  0.15700  1.0000 -0.5655613265
O   O15       1.0  0.97730  0.78629  0.78700  1.0000 -0.5494687082
O   O16       1.0  0.02270  0.28629  0.21300  1.0000 -0.5494687082
O   O17       1.0  0.72410  0.76339  0.03130  1.0000 -0.5605850937
O   O18       1.0  0.27590  0.26339  0.96870  1.0000 -0.5605850937
O   O19       1.0  0.77920  0.80374  0.01550  1.0000 -0.538838488
O   O20       1.0  0.22080  0.30374  0.98450  1.0000 -0.538838488
O   O21       1.0  0.75730  0.75027  0.59240  1.0000 -0.5494687082
O   O22       1.0  0.24270  0.25027  0.40760  1.0000 -0.5494687082
O   O23       1.0  0.75290  0.79053  0.56890  1.0000 -0.5292894663
O   O24       1.0  0.24710  0.29053  0.43110  1.0000 -0.5292894663
O   O25       1.0  0.20320  0.54702  0.65260  1.0000 -0.5057679536
O   O26       1.0  0.79680  0.04702  0.34740  1.0000 -0.5057679536
O   O27       1.0  0.18050  0.50674  0.63590  1.0000 -0.5190269174
O   O28       1.0  0.81950  0.00674  0.36410  1.0000 -0.5190269174
O   O29       1.0  0.64810  0.53526  0.65310  1.0000 -0.5292894663
O   O30       1.0  0.35190  0.03526  0.34690  1.0000 -0.5292894663
O   O31       1.0  0.62620  0.49452  0.64060  1.0000 -0.5292894663
O   O32       1.0  0.37380  0.99452  0.35940  1.0000 -0.5292894663
O   O33       1.0  0.41820  0.53522  0.87710  1.0000 -0.538838488
O   O34       1.0  0.58180  0.03522  0.12290  1.0000 -0.538838488
O   O35       1.0  0.39700  0.49462  0.85840  1.0000 -0.538838488
O   O36       1.0  0.60300  0.99462  0.14160  1.0000 -0.538838488
O   O37       1.0  0.43520  0.54888  0.43330  1.0000 -0.5494687082
O   O38       1.0  0.56480  0.04888  0.56670  1.0000 -0.5494687082
O   O39       1.0  0.41100  0.50730  0.41580  1.0000 -0.5766941132
O   O40       1.0  0.58900  0.00730  0.58420  1.0000 -0.5766941132
