# DDEC6 charges by PACMAN v1.1 (https://github.com/mtap-research/PACMAN-charge/)
data_2009[Zn][pcu]3[FSR]8
_chemical_formula_sum              "Zn8 H112 C160 N16 O32"
_cell_length_a       13.5707
_cell_length_b       15.006
_cell_length_c       20.074
_cell_angle_alpha    90
_cell_angle_beta     90
_cell_angle_gamma    90

_symmetry_space_group_name_H-M    "P 1"
_symmetry_Int_Tables_number       1

loop_
  _symmetry_equiv_pos_as_xyz
  'x, y, z'

loop_
  _atom_site_type_symbol
  _atom_site_label
  _atom_site_symmetry_multiplicity
  _atom_site_fract_x
  _atom_site_fract_y
  _atom_site_fract_z
  _atom_site_occupancy
  _atom_site_charge
Zn  Zn1       1.0  0.00248  0.39026  0.06487  1.0000 0.7998399668
Zn  Zn2       1.0  0.99752  0.89026  0.43513  1.0000 0.7998399668
Zn  Zn3       1.0  0.99752  0.60974  0.93513  1.0000 0.7998399668
Zn  Zn4       1.0  0.00248  0.10974  0.56487  1.0000 0.7998399668
Zn  Zn5       1.0  0.49752  0.60974  0.56487  1.0000 0.7998399668
Zn  Zn6       1.0  0.50248  0.10974  0.93513  1.0000 0.7998399668
Zn  Zn7       1.0  0.50248  0.39026  0.43513  1.0000 0.7998399668
Zn  Zn8       1.0  0.49752  0.89026  0.06487  1.0000 0.7998399668
H   H1        1.0  0.81300  0.46040  0.13450  1.0000 0.1114393135
H   H2        1.0  0.18700  0.96040  0.36550  1.0000 0.1114393135
H   H3        1.0  0.18700  0.53960  0.86550  1.0000 0.1114393135
H   H4        1.0  0.81300  0.03960  0.63450  1.0000 0.1114393135
H   H5        1.0  0.64640  0.48150  0.11610  1.0000 0.1327618592
H   H6        1.0  0.35360  0.98150  0.38390  1.0000 0.1327618592
H   H7        1.0  0.35360  0.51850  0.88390  1.0000 0.1327618592
H   H8        1.0  0.64640  0.01850  0.61610  1.0000 0.1327618592
H   H9        1.0  0.66930  0.32640  0.95500  1.0000 0.1388692827
H   H10       1.0  0.33070  0.82640  0.54500  1.0000 0.1388692827
H   H11       1.0  0.33070  0.67360  0.04500  1.0000 0.1388692827
H   H12       1.0  0.66930  0.17360  0.45500  1.0000 0.1388692827
H   H13       1.0  0.83380  0.31100  0.97780  1.0000 0.0992731088
H   H14       1.0  0.16620  0.81100  0.52220  1.0000 0.0992731088
H   H15       1.0  0.16620  0.68900  0.02220  1.0000 0.0992731088
H   H16       1.0  0.83380  0.18900  0.47780  1.0000 0.0992731088
H   H17       1.0  0.50840  0.38220  0.98410  1.0000 0.1114393135
H   H18       1.0  0.49160  0.88220  0.51590  1.0000 0.1114393135
H   H19       1.0  0.49160  0.61780  0.01590  1.0000 0.1114393135
H   H20       1.0  0.50840  0.11780  0.48410  1.0000 0.1114393135
H   H21       1.0  0.19100  0.33240  0.98930  1.0000 0.0992731088
H   H22       1.0  0.80900  0.83240  0.51070  1.0000 0.0992731088
H   H23       1.0  0.80900  0.66760  0.01070  1.0000 0.0992731088
H   H24       1.0  0.19100  0.16760  0.48930  1.0000 0.0992731088
H   H25       1.0  0.35510  0.36370  0.97970  1.0000 0.1388692827
H   H26       1.0  0.64490  0.86370  0.52030  1.0000 0.1388692827
H   H27       1.0  0.64490  0.63630  0.02030  1.0000 0.1388692827
H   H28       1.0  0.35510  0.13630  0.47970  1.0000 0.1388692827
H   H29       1.0  0.33620  0.50050  0.15020  1.0000 0.1388692827
H   H30       1.0  0.66380  0.00050  0.34980  1.0000 0.1388692827
H   H31       1.0  0.66380  0.49950  0.84980  1.0000 0.1388692827
H   H32       1.0  0.33620  0.99950  0.65020  1.0000 0.1388692827
H   H33       1.0  0.17140  0.46540  0.15430  1.0000 0.1114393135
H   H34       1.0  0.82860  0.96540  0.34570  1.0000 0.1114393135
H   H35       1.0  0.82860  0.53460  0.84570  1.0000 0.1114393135
H   H36       1.0  0.17140  0.03460  0.65430  1.0000 0.1114393135
H   H37       1.0  0.49310  0.50360  0.09020  1.0000 0.0891353446
H   H38       1.0  0.50690  0.00360  0.40980  1.0000 0.0891353446
H   H39       1.0  0.50690  0.49640  0.90980  1.0000 0.0891353446
H   H40       1.0  0.49310  0.99640  0.59020  1.0000 0.0891353446
H   H41       1.0  0.99630  0.34510  0.28480  1.0000 0.1193534964
H   H42       1.0  0.00370  0.84510  0.21520  1.0000 0.1193534964
H   H43       1.0  0.00370  0.65490  0.71520  1.0000 0.1193534964
H   H44       1.0  0.99630  0.15490  0.78480  1.0000 0.1193534964
H   H45       1.0  0.99920  0.27750  0.38810  1.0000 0.1114393135
H   H46       1.0  0.00080  0.77750  0.11190  1.0000 0.1114393135
H   H47       1.0  0.00080  0.72250  0.61190  1.0000 0.1114393135
H   H48       1.0  0.99920  0.22250  0.88810  1.0000 0.1114393135
H   H49       1.0  0.01080  0.03640  0.29890  1.0000 0.1193534964
H   H50       1.0  0.98920  0.53640  0.20110  1.0000 0.1193534964
H   H51       1.0  0.98920  0.96360  0.70110  1.0000 0.1193534964
H   H52       1.0  0.01080  0.46360  0.79890  1.0000 0.1193534964
H   H53       1.0  0.00740  0.10680  0.19630  1.0000 0.1114393135
H   H54       1.0  0.99260  0.60680  0.30370  1.0000 0.1114393135
H   H55       1.0  0.99260  0.89320  0.80370  1.0000 0.1114393135
H   H56       1.0  0.00740  0.39320  0.69630  1.0000 0.1114393135
H   H57       1.0  0.68700  0.53960  0.63450  1.0000 0.1114393135
H   H58       1.0  0.31300  0.03960  0.86550  1.0000 0.1114393135
H   H59       1.0  0.31300  0.46040  0.36550  1.0000 0.1114393135
H   H60       1.0  0.68700  0.96040  0.13450  1.0000 0.1114393135
H   H61       1.0  0.85360  0.51850  0.61610  1.0000 0.1327618592
H   H62       1.0  0.14640  0.01850  0.88390  1.0000 0.1327618592
H   H63       1.0  0.14640  0.48150  0.38390  1.0000 0.1327618592
H   H64       1.0  0.85360  0.98150  0.11610  1.0000 0.1327618592
H   H65       1.0  0.83070  0.67360  0.45500  1.0000 0.1388692827
H   H66       1.0  0.16930  0.17360  0.04500  1.0000 0.1388692827
H   H67       1.0  0.16930  0.32640  0.54500  1.0000 0.1388692827
H   H68       1.0  0.83070  0.82640  0.95500  1.0000 0.1388692827
H   H69       1.0  0.66620  0.68900  0.47780  1.0000 0.0992731088
H   H70       1.0  0.33380  0.18900  0.02220  1.0000 0.0992731088
H   H71       1.0  0.33380  0.31100  0.52220  1.0000 0.0992731088
H   H72       1.0  0.66620  0.81100  0.97780  1.0000 0.0992731088
H   H73       1.0  0.99160  0.61780  0.48410  1.0000 0.1114393135
H   H74       1.0  0.00840  0.11780  0.01590  1.0000 0.1114393135
H   H75       1.0  0.00840  0.38220  0.51590  1.0000 0.1114393135
H   H76       1.0  0.99160  0.88220  0.98410  1.0000 0.1114393135
H   H77       1.0  0.30900  0.66760  0.48930  1.0000 0.0992731088
H   H78       1.0  0.69100  0.16760  0.01070  1.0000 0.0992731088
H   H79       1.0  0.69100  0.33240  0.51070  1.0000 0.0992731088
H   H80       1.0  0.30900  0.83240  0.98930  1.0000 0.0992731088
H   H81       1.0  0.14490  0.63630  0.47970  1.0000 0.1388692827
H   H82       1.0  0.85510  0.13630  0.02030  1.0000 0.1388692827
H   H83       1.0  0.85510  0.36370  0.52030  1.0000 0.1388692827
H   H84       1.0  0.14490  0.86370  0.97970  1.0000 0.1388692827
H   H85       1.0  0.16380  0.49950  0.65020  1.0000 0.1388692827
H   H86       1.0  0.83620  0.99950  0.84980  1.0000 0.1388692827
H   H87       1.0  0.83620  0.50050  0.34980  1.0000 0.1388692827
H   H88       1.0  0.16380  0.00050  0.15020  1.0000 0.1388692827
H   H89       1.0  0.32860  0.53460  0.65430  1.0000 0.1114393135
H   H90       1.0  0.67140  0.03460  0.84570  1.0000 0.1114393135
H   H91       1.0  0.67140  0.46540  0.34570  1.0000 0.1114393135
H   H92       1.0  0.32860  0.96540  0.15430  1.0000 0.1114393135
H   H93       1.0  0.00690  0.49640  0.59020  1.0000 0.0891353446
H   H94       1.0  0.99310  0.99640  0.90980  1.0000 0.0891353446
H   H95       1.0  0.99310  0.50360  0.40980  1.0000 0.0891353446
H   H96       1.0  0.00690  0.00360  0.09020  1.0000 0.0891353446
H   H97       1.0  0.50370  0.65490  0.78480  1.0000 0.1193534964
H   H98       1.0  0.49630  0.15490  0.71520  1.0000 0.1193534964
H   H99       1.0  0.49630  0.34510  0.21520  1.0000 0.1193534964
H   H100      1.0  0.50370  0.84510  0.28480  1.0000 0.1193534964
H   H101      1.0  0.50080  0.72250  0.88810  1.0000 0.1114393135
H   H102      1.0  0.49920  0.22250  0.61190  1.0000 0.1114393135
H   H103      1.0  0.49920  0.27750  0.11190  1.0000 0.1114393135
H   H104      1.0  0.50080  0.77750  0.38810  1.0000 0.1114393135
H   H105      1.0  0.48920  0.96360  0.79890  1.0000 0.1193534964
H   H106      1.0  0.51080  0.46360  0.70110  1.0000 0.1193534964
H   H107      1.0  0.51080  0.03640  0.20110  1.0000 0.1193534964
H   H108      1.0  0.48920  0.53640  0.29890  1.0000 0.1193534964
H   H109      1.0  0.49260  0.89320  0.69630  1.0000 0.1114393135
H   H110      1.0  0.50740  0.39320  0.80370  1.0000 0.1114393135
H   H111      1.0  0.50740  0.10680  0.30370  1.0000 0.1114393135
H   H112      1.0  0.49260  0.60680  0.19630  1.0000 0.1114393135
C   C1        1.0  0.78440  0.43540  0.09680  1.0000 0.0891353446
C   C2        1.0  0.21560  0.93540  0.40320  1.0000 0.0891353446
C   C3        1.0  0.21560  0.56460  0.90320  1.0000 0.0891353446
C   C4        1.0  0.78440  0.06460  0.59680  1.0000 0.0891353446
C   C5        1.0  0.68360  0.44870  0.08590  1.0000 -0.2080073907
C   C6        1.0  0.31640  0.94870  0.41410  1.0000 -0.2080073907
C   C7        1.0  0.31640  0.55130  0.91410  1.0000 -0.2080073907
C   C8        1.0  0.68360  0.05130  0.58590  1.0000 -0.2080073907
C   C9        1.0  0.64010  0.41270  0.03010  1.0000 0.1388692827
C   C10       1.0  0.35990  0.91270  0.46990  1.0000 0.1388692827
C   C11       1.0  0.35990  0.58730  0.96990  1.0000 0.1388692827
C   C12       1.0  0.64010  0.08730  0.53010  1.0000 0.1388692827
C   C13       1.0  0.69720  0.35700  0.99060  1.0000 -0.2009060505
C   C14       1.0  0.30280  0.85700  0.50940  1.0000 -0.2009060505
C   C15       1.0  0.30280  0.64300  0.00940  1.0000 -0.2009060505
C   C16       1.0  0.69720  0.14300  0.49060  1.0000 -0.2009060505
C   C17       1.0  0.79630  0.34790  0.00510  1.0000 0.0799256531
C   C18       1.0  0.20370  0.84790  0.49490  1.0000 0.0891353446
C   C19       1.0  0.20370  0.65210  0.99490  1.0000 0.0799256531
C   C20       1.0  0.79630  0.15210  0.50510  1.0000 0.0799256531
C   C21       1.0  0.53880  0.43530  0.00390  1.0000 -0.0995136416
C   C22       1.0  0.46120  0.93530  0.49610  1.0000 -0.0995136416
C   C23       1.0  0.46120  0.56470  0.99610  1.0000 -0.0995136416
C   C24       1.0  0.53880  0.06470  0.50390  1.0000 -0.0995136416
C   C25       1.0  0.22040  0.36870  0.02120  1.0000 0.0799256531
C   C26       1.0  0.77960  0.86870  0.47880  1.0000 0.0799256531
C   C27       1.0  0.77960  0.63130  0.97880  1.0000 0.0799256531
C   C28       1.0  0.22040  0.13130  0.52120  1.0000 0.0799256531
C   C29       1.0  0.31900  0.38770  0.01470  1.0000 -0.2009060505
C   C30       1.0  0.68100  0.88770  0.48530  1.0000 -0.2009060505
C   C31       1.0  0.68100  0.61230  0.98530  1.0000 -0.2009060505
C   C32       1.0  0.31900  0.11230  0.51470  1.0000 -0.2009060505
C   C33       1.0  0.36420  0.44310  0.06090  1.0000 0.1388692827
C   C34       1.0  0.63580  0.94310  0.43910  1.0000 0.1388692827
C   C35       1.0  0.63580  0.55690  0.93910  1.0000 0.1388692827
C   C36       1.0  0.36420  0.05690  0.56090  1.0000 0.1388692827
C   C37       1.0  0.30760  0.46870  0.11550  1.0000 -0.2080073907
C   C38       1.0  0.69240  0.96870  0.38450  1.0000 -0.2080073907
C   C39       1.0  0.69240  0.53130  0.88450  1.0000 -0.2080073907
C   C40       1.0  0.30760  0.03130  0.61550  1.0000 -0.2080073907
C   C41       1.0  0.20850  0.44650  0.11800  1.0000 0.0992731088
C   C42       1.0  0.79150  0.94650  0.38200  1.0000 0.0992731088
C   C43       1.0  0.79150  0.55350  0.88200  1.0000 0.0992731088
C   C44       1.0  0.20850  0.05350  0.61800  1.0000 0.0992731088
C   C45       1.0  0.46270  0.48470  0.04830  1.0000 -0.0868829629
C   C46       1.0  0.53730  0.98470  0.45170  1.0000 -0.0868829629
C   C47       1.0  0.53730  0.51530  0.95170  1.0000 -0.0868829629
C   C48       1.0  0.46270  0.01530  0.54830  1.0000 -0.0868829629
C   C49       1.0  0.00070  0.27850  0.16330  1.0000 0.54016319
C   C50       1.0  0.99930  0.77850  0.33670  1.0000 0.54016319
C   C51       1.0  0.99930  0.72150  0.83670  1.0000 0.54016319
C   C52       1.0  0.00070  0.22150  0.66330  1.0000 0.54016319
C   C53       1.0  0.00240  0.23250  0.23080  1.0000 -0.0074511859
C   C54       1.0  0.99760  0.73250  0.26920  1.0000 -0.0074511859
C   C55       1.0  0.99760  0.76750  0.76920  1.0000 -0.0074511859
C   C56       1.0  0.00240  0.26750  0.73080  1.0000 -0.0074511859
C   C57       1.0  0.99950  0.28340  0.28790  1.0000 -0.1130855322
C   C58       1.0  0.00050  0.78340  0.21210  1.0000 -0.1130855322
C   C59       1.0  0.00050  0.71660  0.71210  1.0000 -0.1130855322
C   C60       1.0  0.99950  0.21660  0.78790  1.0000 -0.1130855322
C   C61       1.0  0.00130  0.24300  0.34970  1.0000 -0.1188706896
C   C62       1.0  0.99870  0.74300  0.15030  1.0000 -0.1188706896
C   C63       1.0  0.99870  0.75700  0.65030  1.0000 -0.1188706896
C   C64       1.0  0.00130  0.25700  0.84970  1.0000 -0.1188706896
C   C65       1.0  0.00620  0.15060  0.35440  1.0000 -0.0223252355
C   C66       1.0  0.99380  0.65060  0.14560  1.0000 -0.0223252355
C   C67       1.0  0.99380  0.84940  0.64560  1.0000 -0.0223252355
C   C68       1.0  0.00620  0.34940  0.85440  1.0000 -0.0223252355
C   C69       1.0  0.00820  0.09830  0.29630  1.0000 -0.1288889563
C   C70       1.0  0.99180  0.59830  0.20370  1.0000 -0.1288889563
C   C71       1.0  0.99180  0.90170  0.70370  1.0000 -0.1288889563
C   C72       1.0  0.00820  0.40170  0.79630  1.0000 -0.1288889563
C   C73       1.0  0.00620  0.14070  0.23510  1.0000 -0.1130855322
C   C74       1.0  0.99380  0.64070  0.26490  1.0000 -0.1130855322
C   C75       1.0  0.99380  0.85930  0.76490  1.0000 -0.1130855322
C   C76       1.0  0.00620  0.35930  0.73510  1.0000 -0.1130855322
C   C77       1.0  0.00830  0.10640  0.42170  1.0000 0.5601487392
C   C78       1.0  0.99170  0.60640  0.07830  1.0000 0.5601487392
C   C79       1.0  0.99170  0.89360  0.57830  1.0000 0.5601487392
C   C80       1.0  0.00830  0.39360  0.92170  1.0000 0.5601487392
C   C81       1.0  0.71560  0.56460  0.59680  1.0000 0.0891353446
C   C82       1.0  0.28440  0.06460  0.90320  1.0000 0.0891353446
C   C83       1.0  0.28440  0.43540  0.40320  1.0000 0.0891353446
C   C84       1.0  0.71560  0.93540  0.09680  1.0000 0.0891353446
C   C85       1.0  0.81640  0.55130  0.58590  1.0000 -0.2080073907
C   C86       1.0  0.18360  0.05130  0.91410  1.0000 -0.2080073907
C   C87       1.0  0.18360  0.44870  0.41410  1.0000 -0.2080073907
C   C88       1.0  0.81640  0.94870  0.08590  1.0000 -0.2080073907
C   C89       1.0  0.85990  0.58730  0.53010  1.0000 0.1388692827
C   C90       1.0  0.14010  0.08730  0.96990  1.0000 0.1388692827
C   C91       1.0  0.14010  0.41270  0.46990  1.0000 0.1388692827
C   C92       1.0  0.85990  0.91270  0.03010  1.0000 0.1388692827
C   C93       1.0  0.80280  0.64300  0.49060  1.0000 -0.2009060505
C   C94       1.0  0.19720  0.14300  0.00940  1.0000 -0.2009060505
C   C95       1.0  0.19720  0.35700  0.50940  1.0000 -0.2009060505
C   C96       1.0  0.80280  0.85700  0.99060  1.0000 -0.2009060505
C   C97       1.0  0.70370  0.65210  0.50510  1.0000 0.0891353446
C   C98       1.0  0.29630  0.15210  0.99490  1.0000 0.0799256531
C   C99       1.0  0.29630  0.34790  0.49490  1.0000 0.0799256531
C   C100      1.0  0.70370  0.84790  0.00510  1.0000 0.0891353446
C   C101      1.0  0.96120  0.56470  0.50390  1.0000 -0.0995136416
C   C102      1.0  0.03880  0.06470  0.99610  1.0000 -0.0995136416
C   C103      1.0  0.03880  0.43530  0.49610  1.0000 -0.0995136416
C   C104      1.0  0.96120  0.93530  0.00390  1.0000 -0.0995136416
C   C105      1.0  0.27960  0.63130  0.52120  1.0000 0.0799256531
C   C106      1.0  0.72040  0.13130  0.97880  1.0000 0.0799256531
C   C107      1.0  0.72040  0.36870  0.47880  1.0000 0.0799256531
C   C108      1.0  0.27960  0.86870  0.02120  1.0000 0.0799256531
C   C109      1.0  0.18100  0.61230  0.51470  1.0000 -0.2009060505
C   C110      1.0  0.81900  0.11230  0.98530  1.0000 -0.2009060505
C   C111      1.0  0.81900  0.38770  0.48530  1.0000 -0.2009060505
C   C112      1.0  0.18100  0.88770  0.01470  1.0000 -0.2009060505
C   C113      1.0  0.13580  0.55690  0.56090  1.0000 0.1388692827
C   C114      1.0  0.86420  0.05690  0.93910  1.0000 0.1388692827
C   C115      1.0  0.86420  0.44310  0.43910  1.0000 0.1388692827
C   C116      1.0  0.13580  0.94310  0.06090  1.0000 0.1388692827
C   C117      1.0  0.19240  0.53130  0.61550  1.0000 -0.2080073907
C   C118      1.0  0.80760  0.03130  0.88450  1.0000 -0.2080073907
C   C119      1.0  0.80760  0.46870  0.38450  1.0000 -0.2080073907
C   C120      1.0  0.19240  0.96870  0.11550  1.0000 -0.2080073907
C   C121      1.0  0.29150  0.55350  0.61800  1.0000 0.0992731088
C   C122      1.0  0.70850  0.05350  0.88200  1.0000 0.0992731088
C   C123      1.0  0.70850  0.44650  0.38200  1.0000 0.0992731088
C   C124      1.0  0.29150  0.94650  0.11800  1.0000 0.0992731088
C   C125      1.0  0.03730  0.51530  0.54830  1.0000 -0.0868829629
C   C126      1.0  0.96270  0.01530  0.95170  1.0000 -0.0868829629
C   C127      1.0  0.96270  0.48470  0.45170  1.0000 -0.0868829629
C   C128      1.0  0.03730  0.98470  0.04830  1.0000 -0.0868829629
C   C129      1.0  0.49930  0.72150  0.66330  1.0000 0.54016319
C   C130      1.0  0.50070  0.22150  0.83670  1.0000 0.54016319
C   C131      1.0  0.50070  0.27850  0.33670  1.0000 0.54016319
C   C132      1.0  0.49930  0.77850  0.16330  1.0000 0.54016319
C   C133      1.0  0.49760  0.76750  0.73080  1.0000 -0.0074511859
C   C134      1.0  0.50240  0.26750  0.76920  1.0000 -0.0074511859
C   C135      1.0  0.50240  0.23250  0.26920  1.0000 -0.0074511859
C   C136      1.0  0.49760  0.73250  0.23080  1.0000 -0.0074511859
C   C137      1.0  0.50050  0.71660  0.78790  1.0000 -0.1130855322
C   C138      1.0  0.49950  0.21660  0.71210  1.0000 -0.1130855322
C   C139      1.0  0.49950  0.28340  0.21210  1.0000 -0.1130855322
C   C140      1.0  0.50050  0.78340  0.28790  1.0000 -0.1130855322
C   C141      1.0  0.49870  0.75700  0.84970  1.0000 -0.1188706896
C   C142      1.0  0.50130  0.25700  0.65030  1.0000 -0.1188706896
C   C143      1.0  0.50130  0.24300  0.15030  1.0000 -0.1188706896
C   C144      1.0  0.49870  0.74300  0.34970  1.0000 -0.1188706896
C   C145      1.0  0.49380  0.84940  0.85440  1.0000 -0.0223252355
C   C146      1.0  0.50620  0.34940  0.64560  1.0000 -0.0223252355
C   C147      1.0  0.50620  0.15060  0.14560  1.0000 -0.0223252355
C   C148      1.0  0.49380  0.65060  0.35440  1.0000 -0.0223252355
C   C149      1.0  0.49180  0.90170  0.79630  1.0000 -0.1288889563
C   C150      1.0  0.50820  0.40170  0.70370  1.0000 -0.1288889563
C   C151      1.0  0.50820  0.09830  0.20370  1.0000 -0.1288889563
C   C152      1.0  0.49180  0.59830  0.29630  1.0000 -0.1288889563
C   C153      1.0  0.49380  0.85930  0.73510  1.0000 -0.1130855322
C   C154      1.0  0.50620  0.35930  0.76490  1.0000 -0.1130855322
C   C155      1.0  0.50620  0.14070  0.26490  1.0000 -0.1130855322
C   C156      1.0  0.49380  0.64070  0.23510  1.0000 -0.1130855322
C   C157      1.0  0.49170  0.89360  0.92170  1.0000 0.5601487392
C   C158      1.0  0.50830  0.39360  0.57830  1.0000 0.5601487392
C   C159      1.0  0.50830  0.10640  0.07830  1.0000 0.5601487392
C   C160      1.0  0.49170  0.60640  0.42170  1.0000 0.5601487392
N   N1        1.0  0.84150  0.38820  0.05510  1.0000 -0.2305982924
N   N2        1.0  0.15850  0.88820  0.44490  1.0000 -0.2305982924
N   N3        1.0  0.15850  0.61180  0.94490  1.0000 -0.2305982924
N   N4        1.0  0.84150  0.11180  0.55510  1.0000 -0.2305982924
N   N5        1.0  0.16470  0.39950  0.07070  1.0000 -0.2232010393
N   N6        1.0  0.83530  0.89950  0.42930  1.0000 -0.2232010393
N   N7        1.0  0.83530  0.60050  0.92930  1.0000 -0.2232010393
N   N8        1.0  0.16470  0.10050  0.57070  1.0000 -0.2232010393
N   N9        1.0  0.65850  0.61180  0.55510  1.0000 -0.2305982924
N   N10       1.0  0.34150  0.11180  0.94490  1.0000 -0.2305982924
N   N11       1.0  0.34150  0.38820  0.44490  1.0000 -0.2305982924
N   N12       1.0  0.65850  0.88820  0.05510  1.0000 -0.2305982924
N   N13       1.0  0.33530  0.60050  0.57070  1.0000 -0.2232010393
N   N14       1.0  0.66470  0.10050  0.92930  1.0000 -0.2232010393
N   N15       1.0  0.66470  0.39950  0.42930  1.0000 -0.2232010393
N   N16       1.0  0.33530  0.89950  0.07070  1.0000 -0.2232010393
O   O1        1.0  0.99520  0.36170  0.16320  1.0000 -0.5421073204
O   O2        1.0  0.00480  0.86170  0.33680  1.0000 -0.5421073204
O   O3        1.0  0.00480  0.63830  0.83680  1.0000 -0.5421073204
O   O4        1.0  0.99520  0.13830  0.66320  1.0000 -0.5421073204
O   O5        1.0  0.00680  0.23230  0.11160  1.0000 -0.5674244529
O   O6        1.0  0.99320  0.73230  0.38840  1.0000 -0.5674244529
O   O7        1.0  0.99320  0.76770  0.88840  1.0000 -0.5674244529
O   O8        1.0  0.00680  0.26770  0.61160  1.0000 -0.5674244529
O   O9        1.0  0.01270  0.15870  0.47210  1.0000 -0.5491896412
O   O10       1.0  0.98730  0.65870  0.02790  1.0000 -0.5491896412
O   O11       1.0  0.98730  0.84130  0.52790  1.0000 -0.5491896412
O   O12       1.0  0.01270  0.34130  0.97210  1.0000 -0.5491896412
O   O13       1.0  0.00480  0.02500  0.42430  1.0000 -0.5421073204
O   O14       1.0  0.99520  0.52500  0.07570  1.0000 -0.5421073204
O   O15       1.0  0.99520  0.97500  0.57570  1.0000 -0.5421073204
O   O16       1.0  0.00480  0.47500  0.92430  1.0000 -0.5421073204
O   O17       1.0  0.50480  0.63830  0.66320  1.0000 -0.5421073204
O   O18       1.0  0.49520  0.13830  0.83680  1.0000 -0.5421073204
O   O19       1.0  0.49520  0.36170  0.33680  1.0000 -0.5421073204
O   O20       1.0  0.50480  0.86170  0.16320  1.0000 -0.5421073204
O   O21       1.0  0.49320  0.76770  0.61160  1.0000 -0.5674244529
O   O22       1.0  0.50680  0.26770  0.88840  1.0000 -0.5674244529
O   O23       1.0  0.50680  0.23230  0.38840  1.0000 -0.5674244529
O   O24       1.0  0.49320  0.73230  0.11160  1.0000 -0.5674244529
O   O25       1.0  0.48730  0.84130  0.97210  1.0000 -0.5491896412
O   O26       1.0  0.51270  0.34130  0.52790  1.0000 -0.5491896412
O   O27       1.0  0.51270  0.15870  0.02790  1.0000 -0.5491896412
O   O28       1.0  0.48730  0.65870  0.47210  1.0000 -0.5491896412
O   O29       1.0  0.49520  0.97500  0.92430  1.0000 -0.5421073204
O   O30       1.0  0.50480  0.47500  0.57570  1.0000 -0.5421073204
O   O31       1.0  0.50480  0.02500  0.07570  1.0000 -0.5421073204
O   O32       1.0  0.49520  0.52500  0.42430  1.0000 -0.5421073204
