# DDEC6 charges by PACMAN v1.1 (https://github.com/mtap-research/PACMAN-charge/)
data_2009[Cd][nuc]3[FSR]5
_chemical_formula_sum              "Cd4 H144 C192 N48"
_cell_length_a       15.8698
_cell_length_b       15.8698
_cell_length_c       21.641
_cell_angle_alpha    90
_cell_angle_beta     90
_cell_angle_gamma    90

_symmetry_space_group_name_H-M    "P 1"
_symmetry_Int_Tables_number       1

loop_
  _symmetry_equiv_pos_as_xyz
  'x, y, z'

loop_
  _atom_site_type_symbol
  _atom_site_label
  _atom_site_symmetry_multiplicity
  _atom_site_fract_x
  _atom_site_fract_y
  _atom_site_fract_z
  _atom_site_occupancy
  _atom_site_charge
Cd  Cd1       1.0  0.94014  0.05986  0.75000  1.0000 0.6435033745
Cd  Cd2       1.0  0.05986  0.94014  0.25000  1.0000 0.6435033745
Cd  Cd3       1.0  0.44014  0.44014  0.50000  1.0000 0.6435033745
Cd  Cd4       1.0  0.55986  0.55986  0.00000  1.0000 0.6435033745
H   H1        1.0  0.49260  0.74050  0.07260  1.0000 0.0987831852
H   H2        1.0  0.50740  0.25950  0.57260  1.0000 0.0987831852
H   H3        1.0  0.75950  0.99260  0.82260  1.0000 0.0987831852
H   H4        1.0  0.24050  0.00740  0.32260  1.0000 0.0987831852
H   H5        1.0  0.00740  0.24050  0.67740  1.0000 0.0987831852
H   H6        1.0  0.99260  0.75950  0.17740  1.0000 0.0987831852
H   H7        1.0  0.74050  0.49260  0.92740  1.0000 0.0987831852
H   H8        1.0  0.25950  0.50740  0.42740  1.0000 0.0987831852
H   H9        1.0  0.40110  0.85100  0.06240  1.0000 0.1265667659
H   H10       1.0  0.59890  0.14900  0.56240  1.0000 0.1265667659
H   H11       1.0  0.64900  0.90110  0.81240  1.0000 0.1265667659
H   H12       1.0  0.35100  0.09890  0.31240  1.0000 0.1265667659
H   H13       1.0  0.09890  0.35100  0.68760  1.0000 0.1265667659
H   H14       1.0  0.90110  0.64900  0.18760  1.0000 0.1265667659
H   H15       1.0  0.85100  0.40110  0.93760  1.0000 0.1265667659
H   H16       1.0  0.14900  0.59890  0.43760  1.0000 0.1265667659
H   H17       1.0  0.34840  0.76790  0.89270  1.0000 0.1265667659
H   H18       1.0  0.65160  0.23210  0.39270  1.0000 0.1265667659
H   H19       1.0  0.73210  0.84840  0.64270  1.0000 0.1265667659
H   H20       1.0  0.26790  0.15160  0.14270  1.0000 0.1265667659
H   H21       1.0  0.15160  0.26790  0.85730  1.0000 0.1265667659
H   H22       1.0  0.84840  0.73210  0.35730  1.0000 0.1265667659
H   H23       1.0  0.76790  0.34840  0.10730  1.0000 0.1265667659
H   H24       1.0  0.23210  0.65160  0.60730  1.0000 0.1265667659
H   H25       1.0  0.44260  0.66110  0.90800  1.0000 0.0987831852
H   H26       1.0  0.55740  0.33890  0.40800  1.0000 0.0987831852
H   H27       1.0  0.83890  0.94260  0.65800  1.0000 0.0987831852
H   H28       1.0  0.16110  0.05740  0.15800  1.0000 0.0987831852
H   H29       1.0  0.05740  0.16110  0.84200  1.0000 0.0987831852
H   H30       1.0  0.94260  0.83890  0.34200  1.0000 0.0987831852
H   H31       1.0  0.66110  0.44260  0.09200  1.0000 0.0987831852
H   H32       1.0  0.33890  0.55740  0.59200  1.0000 0.0987831852
H   H33       1.0  0.33750  0.96690  0.03580  1.0000 0.1094027414
H   H34       1.0  0.66250  0.03310  0.53580  1.0000 0.1094027414
H   H35       1.0  0.53310  0.83750  0.78580  1.0000 0.1094027414
H   H36       1.0  0.46690  0.16250  0.28580  1.0000 0.1094027414
H   H37       1.0  0.16250  0.46690  0.71420  1.0000 0.1094027414
H   H38       1.0  0.83750  0.53310  0.21420  1.0000 0.1094027414
H   H39       1.0  0.96690  0.33750  0.96420  1.0000 0.1094027414
H   H40       1.0  0.03310  0.66250  0.46420  1.0000 0.1094027414
H   H41       1.0  0.23320  0.06700  0.02640  1.0000 0.1094027414
H   H42       1.0  0.76680  0.93300  0.52640  1.0000 0.1094027414
H   H43       1.0  0.43300  0.73320  0.77640  1.0000 0.1094027414
H   H44       1.0  0.56700  0.26680  0.27640  1.0000 0.1094027414
H   H45       1.0  0.26680  0.56700  0.72360  1.0000 0.1094027414
H   H46       1.0  0.73320  0.43300  0.22360  1.0000 0.1094027414
H   H47       1.0  0.06700  0.23320  0.97360  1.0000 0.1094027414
H   H48       1.0  0.93300  0.76680  0.47360  1.0000 0.1094027414
H   H49       1.0  0.12220  0.04630  0.95930  1.0000 0.1094027414
H   H50       1.0  0.87780  0.95370  0.45930  1.0000 0.1094027414
H   H51       1.0  0.45370  0.62220  0.70930  1.0000 0.1094027414
H   H52       1.0  0.54630  0.37780  0.20930  1.0000 0.1094027414
H   H53       1.0  0.37780  0.54630  0.79070  1.0000 0.1094027414
H   H54       1.0  0.62220  0.45370  0.29070  1.0000 0.1094027414
H   H55       1.0  0.04630  0.12220  0.04070  1.0000 0.1094027414
H   H56       1.0  0.95370  0.87780  0.54070  1.0000 0.1094027414
H   H57       1.0  0.22480  0.82760  0.90560  1.0000 0.0987831852
H   H58       1.0  0.77520  0.17240  0.40560  1.0000 0.0987831852
H   H59       1.0  0.67240  0.72480  0.65560  1.0000 0.0987831852
H   H60       1.0  0.32760  0.27520  0.15560  1.0000 0.0987831852
H   H61       1.0  0.27520  0.32760  0.84440  1.0000 0.0987831852
H   H62       1.0  0.72480  0.67240  0.34440  1.0000 0.0987831852
H   H63       1.0  0.82760  0.22480  0.09440  1.0000 0.0987831852
H   H64       1.0  0.17240  0.77520  0.59440  1.0000 0.0987831852
H   H65       1.0  0.00410  0.80000  0.70830  1.0000 0.1094027414
H   H66       1.0  0.99590  0.20000  0.20830  1.0000 0.1094027414
H   H67       1.0  0.70000  0.50410  0.45830  1.0000 0.1094027414
H   H68       1.0  0.30000  0.49590  0.95830  1.0000 0.1094027414
H   H69       1.0  0.49590  0.30000  0.04170  1.0000 0.1094027414
H   H70       1.0  0.50410  0.70000  0.54170  1.0000 0.1094027414
H   H71       1.0  0.80000  0.00410  0.29170  1.0000 0.1094027414
H   H72       1.0  0.20000  0.99590  0.79170  1.0000 0.1094027414
H   H73       1.0  0.91120  0.70620  0.66410  1.0000 0.1094027414
H   H74       1.0  0.08880  0.29380  0.16410  1.0000 0.1094027414
H   H75       1.0  0.79380  0.41120  0.41410  1.0000 0.1094027414
H   H76       1.0  0.20620  0.58880  0.91410  1.0000 0.1094027414
H   H77       1.0  0.58880  0.20620  0.08590  1.0000 0.1094027414
H   H78       1.0  0.41120  0.79380  0.58590  1.0000 0.1094027414
H   H79       1.0  0.70620  0.91120  0.33590  1.0000 0.1094027414
H   H80       1.0  0.29380  0.08880  0.83590  1.0000 0.1094027414
H   H81       1.0  0.79650  0.65690  0.71820  1.0000 0.0937343752
H   H82       1.0  0.20350  0.34310  0.21820  1.0000 0.0937343752
H   H83       1.0  0.84310  0.29650  0.46820  1.0000 0.0937343752
H   H84       1.0  0.15690  0.70350  0.96820  1.0000 0.0937343752
H   H85       1.0  0.70350  0.15690  0.03180  1.0000 0.0937343752
H   H86       1.0  0.29650  0.84310  0.53180  1.0000 0.0937343752
H   H87       1.0  0.65690  0.79650  0.28180  1.0000 0.0937343752
H   H88       1.0  0.34310  0.20350  0.78180  1.0000 0.0937343752
H   H89       1.0  0.85980  0.80470  0.86090  1.0000 0.1094027414
H   H90       1.0  0.14020  0.19530  0.36090  1.0000 0.1094027414
H   H91       1.0  0.69530  0.35980  0.61090  1.0000 0.1094027414
H   H92       1.0  0.30470  0.64020  0.11090  1.0000 0.1094027414
H   H93       1.0  0.64020  0.30470  0.88910  1.0000 0.1094027414
H   H94       1.0  0.35980  0.69530  0.38910  1.0000 0.1094027414
H   H95       1.0  0.80470  0.85980  0.13910  1.0000 0.1094027414
H   H96       1.0  0.19530  0.14020  0.63910  1.0000 0.1094027414
H   H97       1.0  0.73830  0.78990  0.89460  1.0000 0.1265667659
H   H98       1.0  0.26170  0.21010  0.39460  1.0000 0.1265667659
H   H99       1.0  0.71010  0.23830  0.64460  1.0000 0.1265667659
H   H100      1.0  0.28990  0.76170  0.14460  1.0000 0.1265667659
H   H101      1.0  0.76170  0.28990  0.85540  1.0000 0.1265667659
H   H102      1.0  0.23830  0.71010  0.35540  1.0000 0.1265667659
H   H103      1.0  0.78990  0.73830  0.10540  1.0000 0.1265667659
H   H104      1.0  0.21010  0.26170  0.60540  1.0000 0.1265667659
H   H105      1.0  0.64120  0.73190  0.95800  1.0000 0.0987831852
H   H106      1.0  0.35880  0.26810  0.45800  1.0000 0.0987831852
H   H107      1.0  0.76810  0.14120  0.70800  1.0000 0.0987831852
H   H108      1.0  0.23190  0.85880  0.20800  1.0000 0.0987831852
H   H109      1.0  0.85880  0.23190  0.79200  1.0000 0.0987831852
H   H110      1.0  0.14120  0.76810  0.29200  1.0000 0.0987831852
H   H111      1.0  0.73190  0.64120  0.04200  1.0000 0.0987831852
H   H112      1.0  0.26810  0.35880  0.54200  1.0000 0.0987831852
H   H113      1.0  0.61350  0.53870  0.84940  1.0000 0.0987831852
H   H114      1.0  0.38650  0.46130  0.34940  1.0000 0.0987831852
H   H115      1.0  0.96130  0.11350  0.59940  1.0000 0.0987831852
H   H116      1.0  0.03870  0.88650  0.09940  1.0000 0.0987831852
H   H117      1.0  0.88650  0.03870  0.90060  1.0000 0.0987831852
H   H118      1.0  0.11350  0.96130  0.40060  1.0000 0.0987831852
H   H119      1.0  0.53870  0.61350  0.15060  1.0000 0.0987831852
H   H120      1.0  0.46130  0.38650  0.65060  1.0000 0.0987831852
H   H121      1.0  0.71420  0.58880  0.78390  1.0000 0.1265667659
H   H122      1.0  0.28580  0.41120  0.28390  1.0000 0.1265667659
H   H123      1.0  0.91120  0.21420  0.53390  1.0000 0.1265667659
H   H124      1.0  0.08880  0.78580  0.03390  1.0000 0.1265667659
H   H125      1.0  0.78580  0.08880  0.96610  1.0000 0.1265667659
H   H126      1.0  0.21420  0.91120  0.46610  1.0000 0.1265667659
H   H127      1.0  0.58880  0.71420  0.21610  1.0000 0.1265667659
H   H128      1.0  0.41120  0.28580  0.71610  1.0000 0.1265667659
H   H129      1.0  0.09650  0.74140  0.84830  1.0000 0.2410562514
H   H130      1.0  0.90350  0.25860  0.34830  1.0000 0.2410562514
H   H131      1.0  0.75860  0.59650  0.59830  1.0000 0.2410562514
H   H132      1.0  0.24140  0.40350  0.09830  1.0000 0.2410562514
H   H133      1.0  0.40350  0.24140  0.90170  1.0000 0.2410562514
H   H134      1.0  0.59650  0.75860  0.40170  1.0000 0.2410562514
H   H135      1.0  0.74140  0.09650  0.15170  1.0000 0.2410562514
H   H136      1.0  0.25860  0.90350  0.65170  1.0000 0.2410562514
H   H137      1.0  0.03120  0.74610  0.89530  1.0000 0.2458226337
H   H138      1.0  0.96880  0.25390  0.39530  1.0000 0.2458226337
H   H139      1.0  0.75390  0.53120  0.64530  1.0000 0.2458226337
H   H140      1.0  0.24610  0.46880  0.14530  1.0000 0.2458226337
H   H141      1.0  0.46880  0.24610  0.85470  1.0000 0.2458226337
H   H142      1.0  0.53120  0.75390  0.35470  1.0000 0.2458226337
H   H143      1.0  0.74610  0.03120  0.10470  1.0000 0.2458226337
H   H144      1.0  0.25390  0.96880  0.60470  1.0000 0.2458226337
C   C1        1.0  0.46290  0.74580  0.03580  1.0000 0.0538626994
C   C2        1.0  0.53710  0.25420  0.53580  1.0000 0.0538626994
C   C3        1.0  0.75420  0.96290  0.78580  1.0000 0.0538626994
C   C4        1.0  0.24580  0.03710  0.28580  1.0000 0.0538626994
C   C5        1.0  0.03710  0.24580  0.71420  1.0000 0.0538626994
C   C6        1.0  0.96290  0.75420  0.21420  1.0000 0.0538626994
C   C7        1.0  0.74580  0.46290  0.96420  1.0000 0.0538626994
C   C8        1.0  0.25420  0.53710  0.46420  1.0000 0.0538626994
C   C9        1.0  0.40700  0.81260  0.03030  1.0000 -0.2085027182
C   C10       1.0  0.59300  0.18740  0.53030  1.0000 -0.2085027182
C   C11       1.0  0.68740  0.90700  0.78030  1.0000 -0.2085027182
C   C12       1.0  0.31260  0.09300  0.28030  1.0000 -0.2085027182
C   C13       1.0  0.09300  0.31260  0.71970  1.0000 -0.2085027182
C   C14       1.0  0.90700  0.68740  0.21970  1.0000 -0.2085027182
C   C15       1.0  0.81260  0.40700  0.96970  1.0000 -0.2085027182
C   C16       1.0  0.18740  0.59300  0.46970  1.0000 -0.2085027182
C   C17       1.0  0.36010  0.82180  0.97680  1.0000 0.1094027414
C   C18       1.0  0.63990  0.17820  0.47680  1.0000 0.1094027414
C   C19       1.0  0.67820  0.86010  0.72680  1.0000 0.1094027414
C   C20       1.0  0.32180  0.13990  0.22680  1.0000 0.1094027414
C   C21       1.0  0.13990  0.32180  0.77320  1.0000 0.1094027414
C   C22       1.0  0.86010  0.67820  0.27320  1.0000 0.1094027414
C   C23       1.0  0.82180  0.36010  0.02320  1.0000 0.1094027414
C   C24       1.0  0.17820  0.63990  0.52320  1.0000 0.1094027414
C   C25       1.0  0.37630  0.76360  0.93030  1.0000 -0.2000159965
C   C26       1.0  0.62370  0.23640  0.43030  1.0000 -0.2000159965
C   C27       1.0  0.73640  0.87630  0.68030  1.0000 -0.2000159965
C   C28       1.0  0.26360  0.12370  0.18030  1.0000 -0.2000159965
C   C29       1.0  0.12370  0.26360  0.81970  1.0000 -0.2000159965
C   C30       1.0  0.87630  0.73640  0.31970  1.0000 -0.2000159965
C   C31       1.0  0.76360  0.37630  0.06970  1.0000 -0.2000159965
C   C32       1.0  0.23640  0.62370  0.56970  1.0000 -0.2000159965
C   C33       1.0  0.43370  0.69930  0.93990  1.0000 0.0688276978
C   C34       1.0  0.56630  0.30070  0.43990  1.0000 0.0688276978
C   C35       1.0  0.80070  0.93370  0.68990  1.0000 0.0688276978
C   C36       1.0  0.19930  0.06630  0.18990  1.0000 0.0688276978
C   C37       1.0  0.06630  0.19930  0.81010  1.0000 0.0688276978
C   C38       1.0  0.93370  0.80070  0.31010  1.0000 0.0688276978
C   C39       1.0  0.69930  0.43370  0.06010  1.0000 0.0688276978
C   C40       1.0  0.30070  0.56630  0.56010  1.0000 0.0688276978
C   C41       1.0  0.29360  0.88790  0.97060  1.0000 0.0688276978
C   C42       1.0  0.70640  0.11210  0.47060  1.0000 0.0688276978
C   C43       1.0  0.61210  0.79360  0.72060  1.0000 0.0688276978
C   C44       1.0  0.38790  0.20640  0.22060  1.0000 0.0688276978
C   C45       1.0  0.20640  0.38790  0.77940  1.0000 0.0688276978
C   C46       1.0  0.79360  0.61210  0.27940  1.0000 0.0688276978
C   C47       1.0  0.88790  0.29360  0.02940  1.0000 0.0688276978
C   C48       1.0  0.11210  0.70640  0.52940  1.0000 0.0688276978
C   C49       1.0  0.29420  0.95900  0.00740  1.0000 -0.1593232778
C   C50       1.0  0.70580  0.04100  0.50740  1.0000 -0.1593232778
C   C51       1.0  0.54100  0.79420  0.75740  1.0000 -0.1593232778
C   C52       1.0  0.45900  0.20580  0.25740  1.0000 -0.1593232778
C   C53       1.0  0.20580  0.45900  0.74260  1.0000 -0.1593232778
C   C54       1.0  0.79420  0.54100  0.24260  1.0000 -0.1593232778
C   C55       1.0  0.95900  0.29420  0.99260  1.0000 -0.1593232778
C   C56       1.0  0.04100  0.70580  0.49260  1.0000 -0.1593232778
C   C57       1.0  0.23110  0.01850  0.00240  1.0000 -0.1112028705
C   C58       1.0  0.76890  0.98150  0.50240  1.0000 -0.1112028705
C   C59       1.0  0.48150  0.73110  0.75240  1.0000 -0.1112028705
C   C60       1.0  0.51850  0.26890  0.25240  1.0000 -0.1112028705
C   C61       1.0  0.26890  0.51850  0.74760  1.0000 -0.1112028705
C   C62       1.0  0.73110  0.48150  0.24760  1.0000 -0.1112028705
C   C63       1.0  0.01850  0.23110  0.99760  1.0000 -0.1112028705
C   C64       1.0  0.98150  0.76890  0.49760  1.0000 -0.1112028705
C   C65       1.0  0.16500  0.00640  0.96210  1.0000 -0.1593232778
C   C66       1.0  0.83500  0.99360  0.46210  1.0000 -0.1593232778
C   C67       1.0  0.49360  0.66500  0.71210  1.0000 -0.1593232778
C   C68       1.0  0.50640  0.33500  0.21210  1.0000 -0.1593232778
C   C69       1.0  0.33500  0.50640  0.78790  1.0000 -0.1593232778
C   C70       1.0  0.66500  0.49360  0.28790  1.0000 -0.1593232778
C   C71       1.0  0.00640  0.16500  0.03790  1.0000 -0.1593232778
C   C72       1.0  0.99360  0.83500  0.53790  1.0000 -0.1593232778
C   C73       1.0  0.16220  0.93420  0.92550  1.0000 0.0356990957
C   C74       1.0  0.83780  0.06580  0.42550  1.0000 0.0356990957
C   C75       1.0  0.56580  0.66220  0.67550  1.0000 0.0356990957
C   C76       1.0  0.43420  0.33780  0.17550  1.0000 0.0356990957
C   C77       1.0  0.33780  0.43420  0.82450  1.0000 0.0356990957
C   C78       1.0  0.66220  0.56580  0.32450  1.0000 0.0356990957
C   C79       1.0  0.93420  0.16220  0.07450  1.0000 0.0356990957
C   C80       1.0  0.06580  0.83780  0.57450  1.0000 0.0356990957
C   C81       1.0  0.22640  0.87580  0.93000  1.0000 -0.2000159965
C   C82       1.0  0.77360  0.12420  0.43000  1.0000 -0.2000159965
C   C83       1.0  0.62420  0.72640  0.68000  1.0000 -0.2000159965
C   C84       1.0  0.37580  0.27360  0.18000  1.0000 -0.2000159965
C   C85       1.0  0.27360  0.37580  0.82000  1.0000 -0.2000159965
C   C86       1.0  0.72640  0.62420  0.32000  1.0000 -0.2000159965
C   C87       1.0  0.87580  0.22640  0.07000  1.0000 -0.2000159965
C   C88       1.0  0.12420  0.77360  0.57000  1.0000 -0.2000159965
C   C89       1.0  0.09200  0.92600  0.88171  1.0000 0.1802505059
C   C90       1.0  0.90800  0.07400  0.38171  1.0000 0.1802505059
C   C91       1.0  0.57400  0.59200  0.63171  1.0000 0.1802505059
C   C92       1.0  0.42600  0.40800  0.13171  1.0000 0.1802505059
C   C93       1.0  0.40800  0.42600  0.86829  1.0000 0.1802505059
C   C94       1.0  0.59200  0.57400  0.36829  1.0000 0.1802505059
C   C95       1.0  0.92600  0.09200  0.11829  1.0000 0.1802505059
C   C96       1.0  0.07400  0.90800  0.61829  1.0000 0.1802505059
C   C97       1.0  0.99580  0.87520  0.81976  1.0000 0.1709753266
C   C98       1.0  0.00420  0.12480  0.31976  1.0000 0.1709753266
C   C99       1.0  0.62480  0.49580  0.56976  1.0000 0.1709753266
C   C100      1.0  0.37520  0.50420  0.06976  1.0000 0.1709753266
C   C101      1.0  0.50420  0.37520  0.93024  1.0000 0.1709753266
C   C102      1.0  0.49580  0.62480  0.43024  1.0000 0.1709753266
C   C103      1.0  0.87520  0.99580  0.18024  1.0000 0.1709753266
C   C104      1.0  0.12480  0.00420  0.68024  1.0000 0.1709753266
C   C105      1.0  0.94040  0.81320  0.78924  1.0000 0.0209643008
C   C106      1.0  0.05960  0.18680  0.28924  1.0000 0.0209643008
C   C107      1.0  0.68680  0.44040  0.53924  1.0000 0.0209643008
C   C108      1.0  0.31320  0.55960  0.03924  1.0000 0.0209643008
C   C109      1.0  0.55960  0.31320  0.96076  1.0000 0.0209643008
C   C110      1.0  0.44040  0.68680  0.46076  1.0000 0.0209643008
C   C111      1.0  0.81320  0.94040  0.21076  1.0000 0.0209643008
C   C112      1.0  0.18680  0.05960  0.71076  1.0000 0.0209643008
C   C113      1.0  0.95670  0.78230  0.73000  1.0000 -0.1715059187
C   C114      1.0  0.04330  0.21770  0.23000  1.0000 -0.1715059187
C   C115      1.0  0.71770  0.45670  0.48000  1.0000 -0.1715059187
C   C116      1.0  0.28230  0.54330  0.98000  1.0000 -0.1715059187
C   C117      1.0  0.54330  0.28230  0.02000  1.0000 -0.1715059187
C   C118      1.0  0.45670  0.71770  0.52000  1.0000 -0.1715059187
C   C119      1.0  0.78230  0.95670  0.27000  1.0000 -0.1715059187
C   C120      1.0  0.21770  0.04330  0.77000  1.0000 -0.1715059187
C   C121      1.0  0.90160  0.72540  0.70410  1.0000 -0.1026643374
C   C122      1.0  0.09840  0.27460  0.20410  1.0000 -0.1026643374
C   C123      1.0  0.77460  0.40160  0.45410  1.0000 -0.1026643374
C   C124      1.0  0.22540  0.59840  0.95410  1.0000 -0.1026643374
C   C125      1.0  0.59840  0.22540  0.04590  1.0000 -0.1026643374
C   C126      1.0  0.40160  0.77460  0.54590  1.0000 -0.1026643374
C   C127      1.0  0.72540  0.90160  0.29590  1.0000 -0.1026643374
C   C128      1.0  0.27460  0.09840  0.79590  1.0000 -0.1026643374
C   C129      1.0  0.83240  0.69620  0.73630  1.0000 -0.1715059187
C   C130      1.0  0.16760  0.30380  0.23630  1.0000 -0.1715059187
C   C131      1.0  0.80380  0.33240  0.48630  1.0000 -0.1715059187
C   C132      1.0  0.19620  0.66760  0.98630  1.0000 -0.1715059187
C   C133      1.0  0.66760  0.19620  0.01370  1.0000 -0.1715059187
C   C134      1.0  0.33240  0.80380  0.51370  1.0000 -0.1715059187
C   C135      1.0  0.69620  0.83240  0.26370  1.0000 -0.1715059187
C   C136      1.0  0.30380  0.16760  0.76370  1.0000 -0.1715059187
C   C137      1.0  0.81610  0.72540  0.79600  1.0000 0.0688276978
C   C138      1.0  0.18390  0.27460  0.29600  1.0000 0.0688276978
C   C139      1.0  0.77460  0.31610  0.54600  1.0000 0.0688276978
C   C140      1.0  0.22540  0.68390  0.04600  1.0000 0.0688276978
C   C141      1.0  0.68390  0.22540  0.95400  1.0000 0.0688276978
C   C142      1.0  0.31610  0.77460  0.45400  1.0000 0.0688276978
C   C143      1.0  0.72540  0.81610  0.20400  1.0000 0.0688276978
C   C144      1.0  0.27460  0.18390  0.70400  1.0000 0.0688276978
C   C145      1.0  0.87040  0.78410  0.82140  1.0000 -0.2085027182
C   C146      1.0  0.12960  0.21590  0.32140  1.0000 -0.2085027182
C   C147      1.0  0.71590  0.37040  0.57140  1.0000 -0.2085027182
C   C148      1.0  0.28410  0.62960  0.07140  1.0000 -0.2085027182
C   C149      1.0  0.62960  0.28410  0.92860  1.0000 -0.2085027182
C   C150      1.0  0.37040  0.71590  0.42860  1.0000 -0.2085027182
C   C151      1.0  0.78410  0.87040  0.17860  1.0000 -0.2085027182
C   C152      1.0  0.21590  0.12960  0.67860  1.0000 -0.2085027182
C   C153      1.0  0.74370  0.69340  0.83350  1.0000 0.115953533
C   C154      1.0  0.25630  0.30660  0.33350  1.0000 0.115953533
C   C155      1.0  0.80660  0.24370  0.58350  1.0000 0.115953533
C   C156      1.0  0.19340  0.75630  0.08350  1.0000 0.115953533
C   C157      1.0  0.75630  0.19340  0.91650  1.0000 0.115953533
C   C158      1.0  0.24370  0.80660  0.41650  1.0000 0.115953533
C   C159      1.0  0.69340  0.74370  0.16650  1.0000 0.115953533
C   C160      1.0  0.30660  0.25630  0.66650  1.0000 0.115953533
C   C161      1.0  0.71630  0.73700  0.88550  1.0000 -0.2085027182
C   C162      1.0  0.28370  0.26300  0.38550  1.0000 -0.2085027182
C   C163      1.0  0.76300  0.21630  0.63550  1.0000 -0.2085027182
C   C164      1.0  0.23700  0.78370  0.13550  1.0000 -0.2085027182
C   C165      1.0  0.78370  0.23700  0.86450  1.0000 -0.2085027182
C   C166      1.0  0.21630  0.76300  0.36450  1.0000 -0.2085027182
C   C167      1.0  0.73700  0.71630  0.11450  1.0000 -0.2085027182
C   C168      1.0  0.26300  0.28370  0.61450  1.0000 -0.2085027182
C   C169      1.0  0.65720  0.70200  0.92300  1.0000 0.0295579108
C   C170      1.0  0.34280  0.29800  0.42300  1.0000 0.0295579108
C   C171      1.0  0.79800  0.15720  0.67300  1.0000 0.0295579108
C   C172      1.0  0.20200  0.84280  0.17300  1.0000 0.0295579108
C   C173      1.0  0.84280  0.20200  0.82700  1.0000 0.0295579108
C   C174      1.0  0.15720  0.79800  0.32700  1.0000 0.0295579108
C   C175      1.0  0.70200  0.65720  0.07700  1.0000 0.0295579108
C   C176      1.0  0.29800  0.34280  0.57700  1.0000 0.0295579108
C   C177      1.0  0.64120  0.58830  0.85980  1.0000 0.0576838453
C   C178      1.0  0.35880  0.41170  0.35980  1.0000 0.0576838453
C   C179      1.0  0.91170  0.14120  0.60980  1.0000 0.0576838453
C   C180      1.0  0.08830  0.85880  0.10980  1.0000 0.0576838453
C   C181      1.0  0.85880  0.08830  0.89020  1.0000 0.0576838453
C   C182      1.0  0.14120  0.91170  0.39020  1.0000 0.0576838453
C   C183      1.0  0.58830  0.64120  0.14020  1.0000 0.0576838453
C   C184      1.0  0.41170  0.35880  0.64020  1.0000 0.0576838453
C   C185      1.0  0.70150  0.61830  0.81980  1.0000 -0.2085027182
C   C186      1.0  0.29850  0.38170  0.31980  1.0000 -0.2085027182
C   C187      1.0  0.88170  0.20150  0.56980  1.0000 -0.2085027182
C   C188      1.0  0.11830  0.79850  0.06980  1.0000 -0.2085027182
C   C189      1.0  0.79850  0.11830  0.93020  1.0000 -0.2085027182
C   C190      1.0  0.20150  0.88170  0.43020  1.0000 -0.2085027182
C   C191      1.0  0.61830  0.70150  0.18020  1.0000 -0.2085027182
C   C192      1.0  0.38170  0.29850  0.68020  1.0000 -0.2085027182
N   N1        1.0  0.05370  0.98990  0.85555  1.0000 -0.2751757586
N   N2        1.0  0.94630  0.01010  0.35555  1.0000 -0.2751757586
N   N3        1.0  0.51010  0.55370  0.60555  1.0000 -0.2751757586
N   N4        1.0  0.48990  0.44630  0.10555  1.0000 -0.2751757586
N   N5        1.0  0.44630  0.48990  0.89445  1.0000 -0.2751757586
N   N6        1.0  0.55370  0.51010  0.39445  1.0000 -0.2751757586
N   N7        1.0  0.98990  0.05370  0.14445  1.0000 -0.2751757586
N   N8        1.0  0.01010  0.94630  0.64445  1.0000 -0.2751757586
N   N9        1.0  0.99330  0.95770  0.81631  1.0000 -0.2276312345
N   N10       1.0  0.00670  0.04230  0.31631  1.0000 -0.2276312345
N   N11       1.0  0.54230  0.49330  0.56631  1.0000 -0.2276312345
N   N12       1.0  0.45770  0.50670  0.06631  1.0000 -0.2276312345
N   N13       1.0  0.50670  0.45770  0.93369  1.0000 -0.2276312345
N   N14       1.0  0.49330  0.54230  0.43369  1.0000 -0.2276312345
N   N15       1.0  0.95770  0.99330  0.18369  1.0000 -0.2276312345
N   N16       1.0  0.04230  0.00670  0.68369  1.0000 -0.2276312345
N   N17       1.0  0.05710  0.85290  0.86048  1.0000 0.0576838453
N   N18       1.0  0.94290  0.14710  0.36048  1.0000 0.0576838453
N   N19       1.0  0.64710  0.55710  0.61048  1.0000 0.0576838453
N   N20       1.0  0.35290  0.44290  0.11048  1.0000 0.0576838453
N   N21       1.0  0.44290  0.35290  0.88952  1.0000 0.0576838453
N   N22       1.0  0.55710  0.64710  0.38952  1.0000 0.0576838453
N   N23       1.0  0.85290  0.05710  0.13952  1.0000 0.0576838453
N   N24       1.0  0.14710  0.94290  0.63952  1.0000 0.0576838453
N   N25       1.0  0.07720  0.77090  0.88030  1.0000 -0.5077794129
N   N26       1.0  0.92280  0.22910  0.38030  1.0000 -0.5077794129
N   N27       1.0  0.72910  0.57720  0.63030  1.0000 -0.5077794129
N   N28       1.0  0.27090  0.42280  0.13030  1.0000 -0.5077794129
N   N29       1.0  0.42280  0.27090  0.86970  1.0000 -0.5077794129
N   N30       1.0  0.57720  0.72910  0.36970  1.0000 -0.5077794129
N   N31       1.0  0.77090  0.07720  0.11970  1.0000 -0.5077794129
N   N32       1.0  0.22910  0.92280  0.61970  1.0000 -0.5077794129
N   N33       1.0  0.47670  0.68870  0.99175  1.0000 -0.2386632049
N   N34       1.0  0.52330  0.31130  0.49175  1.0000 -0.2386632049
N   N35       1.0  0.81130  0.97670  0.74175  1.0000 -0.2386632049
N   N36       1.0  0.18870  0.02330  0.24175  1.0000 -0.2386632049
N   N37       1.0  0.02330  0.18870  0.75825  1.0000 -0.2386632049
N   N38       1.0  0.97670  0.81130  0.25825  1.0000 -0.2386632049
N   N39       1.0  0.68870  0.47670  0.00825  1.0000 -0.2386632049
N   N40       1.0  0.31130  0.52330  0.50825  1.0000 -0.2386632049
N   N41       1.0  0.62010  0.62650  0.91276  1.0000 -0.2386632049
N   N42       1.0  0.37990  0.37350  0.41276  1.0000 -0.2386632049
N   N43       1.0  0.87350  0.12010  0.66276  1.0000 -0.2386632049
N   N44       1.0  0.12650  0.87990  0.16276  1.0000 -0.2386632049
N   N45       1.0  0.87990  0.12650  0.83724  1.0000 -0.2386632049
N   N46       1.0  0.12010  0.87350  0.33724  1.0000 -0.2386632049
N   N47       1.0  0.62650  0.62010  0.08724  1.0000 -0.2386632049
N   N48       1.0  0.37350  0.37990  0.58724  1.0000 -0.2386632049
