# DDEC6 charges by PACMAN v1.1 (https://github.com/mtap-research/PACMAN-charge/)
data_2009[Fe][utp]3[FSR]1
_chemical_formula_sum              "Fe4 H28 C40 N12 O20"
_cell_length_a       7.785
_cell_length_b       10.238
_cell_length_c       15.851
_cell_angle_alpha    90
_cell_angle_beta     90
_cell_angle_gamma    90

_symmetry_space_group_name_H-M    "P 1"
_symmetry_Int_Tables_number       1

loop_
  _symmetry_equiv_pos_as_xyz
  'x, y, z'

loop_
  _atom_site_type_symbol
  _atom_site_label
  _atom_site_symmetry_multiplicity
  _atom_site_fract_x
  _atom_site_fract_y
  _atom_site_fract_z
  _atom_site_occupancy
  _atom_site_charge
Fe  Fe1       1.0  0.36188  0.47017  0.09834  1.0000 0.8687388055
Fe  Fe2       1.0  0.63812  0.52983  0.59834  1.0000 0.8687388055
Fe  Fe3       1.0  0.13812  0.97017  0.59834  1.0000 0.8687388055
Fe  Fe4       1.0  0.86188  0.02983  0.09834  1.0000 0.8687388055
H   H1        1.0  0.41400  0.05070  0.28930  1.0000 0.3156643115
H   H2        1.0  0.58600  0.94930  0.78930  1.0000 0.3156643115
H   H3        1.0  0.08600  0.55070  0.78930  1.0000 0.3156643115
H   H4        1.0  0.91400  0.44930  0.28930  1.0000 0.3156643115
H   H5        1.0  0.54920  0.58880  0.41360  1.0000 0.1198870797
H   H6        1.0  0.45080  0.41120  0.91360  1.0000 0.1198870797
H   H7        1.0  0.95080  0.08880  0.91360  1.0000 0.1198870797
H   H8        1.0  0.04920  0.91120  0.41360  1.0000 0.1198870797
H   H9        1.0  0.65760  0.24840  0.51460  1.0000 0.1122424282
H   H10       1.0  0.34240  0.75160  0.01460  1.0000 0.1122424282
H   H11       1.0  0.84240  0.74840  0.01460  1.0000 0.1122424282
H   H12       1.0  0.15760  0.25160  0.51460  1.0000 0.1122424282
H   H13       1.0  0.55570  0.14010  0.39730  1.0000 0.1389841452
H   H14       1.0  0.44430  0.85990  0.89730  1.0000 0.1389841452
H   H15       1.0  0.94430  0.64010  0.89730  1.0000 0.1389841452
H   H16       1.0  0.05570  0.35990  0.39730  1.0000 0.1389841452
H   H17       1.0  0.43660  0.49090  0.29550  1.0000 0.1389841452
H   H18       1.0  0.56340  0.50910  0.79550  1.0000 0.1389841452
H   H19       1.0  0.06340  0.99090  0.79550  1.0000 0.1389841452
H   H20       1.0  0.93660  0.00910  0.29550  1.0000 0.1389841452
H   H21       1.0  0.22600  0.67600  0.15790  1.0000 0.2738616966
H   H22       1.0  0.77400  0.32400  0.65790  1.0000 0.2738616966
H   H23       1.0  0.27400  0.17600  0.65790  1.0000 0.2738616966
H   H24       1.0  0.72600  0.82400  0.15790  1.0000 0.2738616966
H   H25       1.0  0.09900  0.61900  0.15340  1.0000 0.2889053389
H   H26       1.0  0.90100  0.38100  0.65340  1.0000 0.2889053389
H   H27       1.0  0.40100  0.11900  0.65340  1.0000 0.2889053389
H   H28       1.0  0.59900  0.88100  0.15340  1.0000 0.2889053389
C   C1        1.0  0.54700  0.49610  0.41087  1.0000 0.0864159741
C   C2        1.0  0.45300  0.50390  0.91087  1.0000 0.0864159741
C   C3        1.0  0.95300  0.99610  0.91087  1.0000 0.0864159741
C   C4        1.0  0.04700  0.00390  0.41087  1.0000 0.0864159741
C   C5        1.0  0.61110  0.29810  0.46944  1.0000 0.0845817529
C   C6        1.0  0.38890  0.70190  0.96944  1.0000 0.0845817529
C   C7        1.0  0.88890  0.79810  0.96944  1.0000 0.0845817529
C   C8        1.0  0.11110  0.20190  0.46944  1.0000 0.0845817529
C   C9        1.0  0.54960  0.23260  0.40004  1.0000 -0.2007377691
C   C10       1.0  0.45040  0.76740  0.90004  1.0000 -0.2007377691
C   C11       1.0  0.95040  0.73260  0.90004  1.0000 -0.2007377691
C   C12       1.0  0.04960  0.26740  0.40004  1.0000 -0.2007377691
C   C13       1.0  0.48070  0.43870  0.34009  1.0000 -0.1702949501
C   C14       1.0  0.51930  0.56130  0.84009  1.0000 -0.1702949501
C   C15       1.0  0.01930  0.93870  0.84009  1.0000 -0.1702949501
C   C16       1.0  0.98070  0.06130  0.34009  1.0000 -0.1702949501
C   C17       1.0  0.47850  0.30330  0.33400  1.0000 0.0552534886
C   C18       1.0  0.52150  0.69670  0.83400  1.0000 0.0552534886
C   C19       1.0  0.02150  0.80330  0.83400  1.0000 0.0552534886
C   C20       1.0  0.97850  0.19670  0.33400  1.0000 0.0552534886
C   C21       1.0  0.39460  0.24090  0.26185  1.0000 0.2889053389
C   C22       1.0  0.60540  0.75910  0.76185  1.0000 0.2889053389
C   C23       1.0  0.10540  0.74090  0.76185  1.0000 0.2889053389
C   C24       1.0  0.89460  0.25910  0.26185  1.0000 0.2889053389
C   C25       1.0  0.26760  0.08700  0.18747  1.0000 0.0231804089
C   C26       1.0  0.73240  0.91300  0.68747  1.0000 0.0231804089
C   C27       1.0  0.23240  0.58700  0.68747  1.0000 0.0231804089
C   C28       1.0  0.76760  0.41300  0.18747  1.0000 0.0231804089
C   C29       1.0  0.23500  0.20880  0.15302  1.0000 -0.015097055
C   C30       1.0  0.76500  0.79120  0.65302  1.0000 -0.015097055
C   C31       1.0  0.26500  0.70880  0.65302  1.0000 -0.015097055
C   C32       1.0  0.73500  0.29120  0.15302  1.0000 -0.015097055
C   C33       1.0  0.21920  0.94980  0.16453  1.0000 0.5470163129
C   C34       1.0  0.78080  0.05020  0.66453  1.0000 0.5470163129
C   C35       1.0  0.28080  0.44980  0.66453  1.0000 0.5470163129
C   C36       1.0  0.71920  0.55020  0.16453  1.0000 0.5470163129
C   C37       1.0  0.13320  0.24890  0.07836  1.0000 0.5800616495
C   C38       1.0  0.86680  0.75110  0.57836  1.0000 0.5800616495
C   C39       1.0  0.36680  0.74890  0.57836  1.0000 0.5800616495
C   C40       1.0  0.63320  0.25110  0.07836  1.0000 0.5800616495
N   N1        1.0  0.60900  0.42820  0.47672  1.0000 -0.2447516717
N   N2        1.0  0.39100  0.57180  0.97672  1.0000 -0.2452091671
N   N3        1.0  0.89100  0.92820  0.97672  1.0000 -0.2452091671
N   N4        1.0  0.10900  0.07180  0.47672  1.0000 -0.2447516717
N   N5        1.0  0.37060  0.11032  0.25545  1.0000 -0.2594903804
N   N6        1.0  0.62940  0.88968  0.75545  1.0000 -0.2594903804
N   N7        1.0  0.12940  0.61032  0.75545  1.0000 -0.2594903804
N   N8        1.0  0.87060  0.38968  0.25545  1.0000 -0.2594903804
N   N9        1.0  0.31780  0.30396  0.19950  1.0000 -0.385914693
N   N10       1.0  0.68220  0.69604  0.69950  1.0000 -0.385914693
N   N11       1.0  0.18220  0.80396  0.69950  1.0000 -0.385914693
N   N12       1.0  0.81780  0.19604  0.19950  1.0000 -0.385914693
O   O1        1.0  0.33480  0.86668  0.17102  1.0000 -0.5293864059
O   O2        1.0  0.66520  0.13332  0.67102  1.0000 -0.5293864059
O   O3        1.0  0.16520  0.36668  0.67102  1.0000 -0.5293864059
O   O4        1.0  0.83480  0.63332  0.17102  1.0000 -0.5293864059
O   O5        1.0  0.06780  0.92543  0.14327  1.0000 -0.5354460575
O   O6        1.0  0.93220  0.07457  0.64327  1.0000 -0.5354460575
O   O7        1.0  0.43220  0.42543  0.64327  1.0000 -0.5354460575
O   O8        1.0  0.56780  0.57457  0.14327  1.0000 -0.5354460575
O   O9        1.0  0.02950  0.17129  0.04588  1.0000 -0.5293864059
O   O10       1.0  0.97050  0.82871  0.54588  1.0000 -0.5293864059
O   O11       1.0  0.47050  0.67129  0.54588  1.0000 -0.5293864059
O   O12       1.0  0.52950  0.32871  0.04588  1.0000 -0.5293864059
O   O13       1.0  0.15520  0.36482  0.05235  1.0000 -0.5225623347
O   O14       1.0  0.84480  0.63518  0.55235  1.0000 -0.5225623347
O   O15       1.0  0.34480  0.86482  0.55235  1.0000 -0.5225623347
O   O16       1.0  0.65520  0.13518  0.05235  1.0000 -0.5225623347
O   O17       1.0  0.20050  0.61535  0.15409  1.0000 -0.5293864059
O   O18       1.0  0.79950  0.38465  0.65409  1.0000 -0.5293864059
O   O19       1.0  0.29950  0.11535  0.65409  1.0000 -0.5293864059
O   O20       1.0  0.70050  0.88465  0.15409  1.0000 -0.5293864059
