# DDEC6 charges by PACMAN v1.1 (https://github.com/mtap-research/PACMAN-charge/)
data_2009[Pr][sxb]3[FSR]1
_chemical_formula_sum              "Pr8 H184 C216 S12 N16 O88"
_cell_length_a       19.0332
_cell_length_b       19.0332
_cell_length_c       30.3411
_cell_angle_alpha    83.1761
_cell_angle_beta     96.8239
_cell_angle_gamma    133.799

_symmetry_space_group_name_H-M    "P 1"
_symmetry_Int_Tables_number       1

loop_
  _symmetry_equiv_pos_as_xyz
  'x, y, z'

loop_
  _atom_site_type_symbol
  _atom_site_label
  _atom_site_symmetry_multiplicity
  _atom_site_fract_x
  _atom_site_fract_y
  _atom_site_fract_z
  _atom_site_occupancy
  _atom_site_charge
Pr  Pr1       1.0  0.62425  0.45386  0.34165  1.0000 2.0867549612
Pr  Pr2       1.0  0.54614  0.37575  0.84165  1.0000 2.0867549612
Pr  Pr3       1.0  0.62152  0.20794  0.85550  1.0000 2.0677854253
Pr  Pr4       1.0  0.79206  0.37848  0.35550  1.0000 2.0677854253
Pr  Pr5       1.0  0.45386  0.62425  0.15835  1.0000 2.0867549612
Pr  Pr6       1.0  0.37575  0.54614  0.65835  1.0000 2.0867549612
Pr  Pr7       1.0  0.20794  0.62152  0.64450  1.0000 2.0677854253
Pr  Pr8       1.0  0.37848  0.79206  0.14450  1.0000 2.0677854253
H   H1        1.0  0.63181  0.70000  0.26360  1.0000 0.1310182895
H   H2        1.0  0.30000  0.36820  0.76360  1.0000 0.1310182895
H   H3        1.0  0.76291  0.09870  0.39610  1.0000 0.1396303417
H   H4        1.0  0.90130  0.23710  0.89610  1.0000 0.1396303417
H   H5        1.0  0.03751  0.66390  0.35430  1.0000 0.1396303417
H   H6        1.0  0.33610  0.96249  0.85430  1.0000 0.1396303417
H   H7        1.0  0.67081  0.72920  0.39670  1.0000 0.1396303417
H   H8        1.0  0.27080  0.32920  0.89670  1.0000 0.1396303417
H   H9        1.0  0.69741  0.99600  0.25160  1.0000 0.1218479465
H   H10       1.0  0.00400  0.30260  0.75160  1.0000 0.1218479465
H   H11       1.0  0.66081  0.84040  0.25170  1.0000 0.1218479465
H   H12       1.0  0.15960  0.33920  0.75170  1.0000 0.1218479465
H   H13       1.0  0.76331  0.36310  0.98540  1.0000 0.1218479465
H   H14       1.0  0.63690  0.23669  0.48540  1.0000 0.1218479465
H   H15       1.0  0.60340  0.41400  0.18860  1.0000 0.1218479465
H   H16       1.0  0.58600  0.39659  0.68860  1.0000 0.1218479465
H   H17       1.0  0.54491  0.35050  0.99460  1.0000 0.1396303417
H   H18       1.0  0.64950  0.45510  0.49460  1.0000 0.1396303417
H   H19       1.0  0.73530  0.13770  0.26320  1.0000 0.1218479465
H   H20       1.0  0.86230  0.26470  0.76320  1.0000 0.1218479465
H   H21       1.0  0.51690  0.44190  0.24100  1.0000 0.1085942148
H   H22       1.0  0.55810  0.48309  0.74100  1.0000 0.1085942148
H   H23       1.0  0.54121  0.88200  0.98520  1.0000 0.1396303417
H   H24       1.0  0.11800  0.45880  0.48520  1.0000 0.1396303417
H   H25       1.0  0.56381  0.89320  0.93550  1.0000 0.1396303417
H   H26       1.0  0.10680  0.43619  0.43550  1.0000 0.1396303417
H   H27       1.0  0.45691  0.80910  0.95080  1.0000 0.1218479465
H   H28       1.0  0.19090  0.54309  0.45080  1.0000 0.1218479465
H   H29       1.0  0.82010  0.41270  0.05760  1.0000 0.1310182895
H   H30       1.0  0.58730  0.17989  0.55760  1.0000 0.1310182895
H   H31       1.0  0.45850  0.03350  0.36150  1.0000 0.1396303417
H   H32       1.0  0.96650  0.54150  0.86150  1.0000 0.1396303417
H   H33       1.0  0.83771  0.44790  0.21320  1.0000 0.1218479465
H   H34       1.0  0.55210  0.16229  0.71320  1.0000 0.1218479465
H   H35       1.0  0.84630  0.44250  0.13820  1.0000 0.1218479465
H   H36       1.0  0.55750  0.15370  0.63820  1.0000 0.1218479465
H   H37       1.0  0.42151  0.22110  0.34490  1.0000 0.1218479465
H   H38       1.0  0.77890  0.57849  0.84490  1.0000 0.1218479465
H   H39       1.0  0.48311  0.44450  0.41770  1.0000 0.1085942148
H   H40       1.0  0.55550  0.51690  0.91770  1.0000 0.1085942148
H   H41       1.0  0.42761  0.94920  0.97910  1.0000 0.1218479465
H   H42       1.0  0.05080  0.57239  0.47910  1.0000 0.1218479465
H   H43       1.0  0.37561  0.84160  0.97270  1.0000 0.1310182895
H   H44       1.0  0.15840  0.62440  0.47270  1.0000 0.1310182895
H   H45       1.0  0.37591  0.90290  0.93320  1.0000 0.1396303417
H   H46       1.0  0.09710  0.62409  0.43320  1.0000 0.1396303417
H   H47       1.0  0.25400  0.09220  0.34390  1.0000 0.1310182895
H   H48       1.0  0.90780  0.74599  0.84390  1.0000 0.1310182895
H   H49       1.0  0.55380  0.05980  0.77080  1.0000 0.1085942148
H   H50       1.0  0.94020  0.44620  0.27080  1.0000 0.1085942148
H   H51       1.0  0.92421  0.78360  0.33750  1.0000 0.1396303417
H   H52       1.0  0.21640  0.07580  0.83750  1.0000 0.1396303417
H   H53       1.0  0.33691  0.28890  0.16040  1.0000 0.1396303417
H   H54       1.0  0.71110  0.66309  0.66040  1.0000 0.1396303417
H   H55       1.0  0.38781  0.39160  0.17570  1.0000 0.1310182895
H   H56       1.0  0.60840  0.61220  0.67570  1.0000 0.1310182895
H   H57       1.0  0.45071  0.37370  0.16120  1.0000 0.1396303417
H   H58       1.0  0.62630  0.54930  0.66120  1.0000 0.1396303417
H   H59       1.0  0.07861  0.93800  0.33820  1.0000 0.1218479465
H   H60       1.0  0.06200  0.92140  0.83820  1.0000 0.1218479465
H   H61       1.0  0.34870  0.19510  0.48560  1.0000 0.1396303417
H   H62       1.0  0.80490  0.65129  0.98560  1.0000 0.1396303417
H   H63       1.0  0.33881  0.18980  0.43380  1.0000 0.1310182895
H   H64       1.0  0.81020  0.66119  0.93380  1.0000 0.1310182895
H   H65       1.0  0.43750  0.23470  0.45960  1.0000 0.1310182895
H   H66       1.0  0.76530  0.56250  0.95960  1.0000 0.1310182895
H   H67       1.0  0.62311  0.04550  0.91890  1.0000 0.1085942148
H   H68       1.0  0.95450  0.37689  0.41890  1.0000 0.1085942148
H   H69       1.0  0.37521  0.78360  0.80480  1.0000 0.1310182895
H   H70       1.0  0.21640  0.62480  0.30480  1.0000 0.1310182895
H   H71       1.0  0.36021  0.84340  0.82590  1.0000 0.1396303417
H   H72       1.0  0.15660  0.63980  0.32590  1.0000 0.1396303417
H   H73       1.0  0.44981  0.85620  0.84170  1.0000 0.1310182895
H   H74       1.0  0.14380  0.55019  0.34170  1.0000 0.1310182895
H   H75       1.0  0.35391  0.30150  0.50970  1.0000 0.1396303417
H   H76       1.0  0.69850  0.64610  0.00970  1.0000 0.1396303417
H   H77       1.0  0.44671  0.41150  0.49930  1.0000 0.1310182895
H   H78       1.0  0.58850  0.55329  0.99930  1.0000 0.1310182895
H   H79       1.0  0.34770  0.36170  0.47230  1.0000 0.1396303417
H   H80       1.0  0.63830  0.65229  0.97230  1.0000 0.1396303417
H   H81       1.0  0.28041  0.17660  0.20930  1.0000 0.1310182895
H   H82       1.0  0.82340  0.71959  0.70930  1.0000 0.1310182895
H   H83       1.0  0.35761  0.18840  0.24230  1.0000 0.1396303417
H   H84       1.0  0.81160  0.64240  0.74230  1.0000 0.1396303417
H   H85       1.0  0.29230  0.20170  0.25860  1.0000 0.1310182895
H   H86       1.0  0.79830  0.70769  0.75860  1.0000 0.1310182895
H   H87       1.0  0.43400  0.83580  0.73670  1.0000 0.1503252371
H   H88       1.0  0.16420  0.56600  0.23670  1.0000 0.1503252371
H   H89       1.0  0.54141  0.93800  0.73620  1.0000 0.1310182895
H   H90       1.0  0.06200  0.45860  0.23620  1.0000 0.1310182895
H   H91       1.0  0.45510  0.92830  0.71650  1.0000 0.1396303417
H   H92       1.0  0.07170  0.54490  0.21650  1.0000 0.1396303417
H   H93       1.0  0.70000  0.63181  0.23640  1.0000 0.1310182895
H   H94       1.0  0.36820  0.30000  0.73640  1.0000 0.1310182895
H   H95       1.0  0.09870  0.76291  0.10390  1.0000 0.1396303417
H   H96       1.0  0.23710  0.90130  0.60390  1.0000 0.1396303417
H   H97       1.0  0.66390  0.03751  0.14570  1.0000 0.1396303417
H   H98       1.0  0.96250  0.33610  0.64570  1.0000 0.1396303417
H   H99       1.0  0.72920  0.67080  0.10330  1.0000 0.1396303417
H   H100      1.0  0.32920  0.27080  0.60330  1.0000 0.1396303417
H   H101      1.0  0.99600  0.69741  0.24840  1.0000 0.1218479465
H   H102      1.0  0.30260  0.00400  0.74840  1.0000 0.1218479465
H   H103      1.0  0.84040  0.66081  0.24830  1.0000 0.1218479465
H   H104      1.0  0.33920  0.15960  0.74830  1.0000 0.1218479465
H   H105      1.0  0.36310  0.76331  0.51460  1.0000 0.1310182895
H   H106      1.0  0.23670  0.63690  0.01460  1.0000 0.1310182895
H   H107      1.0  0.41400  0.60341  0.31140  1.0000 0.1218479465
H   H108      1.0  0.39660  0.58600  0.81140  1.0000 0.1218479465
H   H109      1.0  0.35050  0.54490  0.50540  1.0000 0.1396303417
H   H110      1.0  0.45510  0.64950  0.00540  1.0000 0.1396303417
H   H111      1.0  0.13770  0.73530  0.23680  1.0000 0.1218479465
H   H112      1.0  0.26470  0.86230  0.73680  1.0000 0.1218479465
H   H113      1.0  0.44190  0.51690  0.25900  1.0000 0.1085942148
H   H114      1.0  0.48310  0.55810  0.75900  1.0000 0.1085942148
H   H115      1.0  0.88200  0.54121  0.51480  1.0000 0.1396303417
H   H116      1.0  0.45880  0.11800  0.01480  1.0000 0.1396303417
H   H117      1.0  0.89320  0.56381  0.56450  1.0000 0.1396303417
H   H118      1.0  0.43620  0.10680  0.06450  1.0000 0.1396303417
H   H119      1.0  0.80910  0.45691  0.54920  1.0000 0.1218479465
H   H120      1.0  0.54309  0.19090  0.04920  1.0000 0.1218479465
H   H121      1.0  0.41270  0.82010  0.44240  1.0000 0.1310182895
H   H122      1.0  0.17989  0.58730  0.94240  1.0000 0.1310182895
H   H123      1.0  0.03350  0.45851  0.13850  1.0000 0.1396303417
H   H124      1.0  0.54149  0.96650  0.63850  1.0000 0.1396303417
H   H125      1.0  0.44790  0.83771  0.28680  1.0000 0.1218479465
H   H126      1.0  0.16229  0.55210  0.78680  1.0000 0.1218479465
H   H127      1.0  0.44250  0.84630  0.36180  1.0000 0.1218479465
H   H128      1.0  0.15369  0.55750  0.86180  1.0000 0.1218479465
H   H129      1.0  0.22110  0.42151  0.15510  1.0000 0.1218479465
H   H130      1.0  0.57850  0.77890  0.65510  1.0000 0.1218479465
H   H131      1.0  0.44450  0.48311  0.08230  1.0000 0.1085942148
H   H132      1.0  0.51690  0.55550  0.58230  1.0000 0.1085942148
H   H133      1.0  0.94920  0.42761  0.52090  1.0000 0.1218479465
H   H134      1.0  0.57239  0.05080  0.02090  1.0000 0.1218479465
H   H135      1.0  0.84160  0.37561  0.52730  1.0000 0.1310182895
H   H136      1.0  0.62440  0.15840  0.02730  1.0000 0.1310182895
H   H137      1.0  0.90290  0.37591  0.56680  1.0000 0.1396303417
H   H138      1.0  0.62409  0.09710  0.06680  1.0000 0.1396303417
H   H139      1.0  0.09220  0.25400  0.15610  1.0000 0.1310182895
H   H140      1.0  0.74599  0.90780  0.65610  1.0000 0.1310182895
H   H141      1.0  0.05980  0.55380  0.72920  1.0000 0.1085942148
H   H142      1.0  0.44620  0.94020  0.22920  1.0000 0.1085942148
H   H143      1.0  0.78360  0.92421  0.16250  1.0000 0.1396303417
H   H144      1.0  0.07580  0.21640  0.66250  1.0000 0.1396303417
H   H145      1.0  0.28890  0.33691  0.33960  1.0000 0.1396303417
H   H146      1.0  0.66309  0.71110  0.83960  1.0000 0.1396303417
H   H147      1.0  0.39160  0.38781  0.32430  1.0000 0.1310182895
H   H148      1.0  0.61220  0.60840  0.82430  1.0000 0.1310182895
H   H149      1.0  0.37370  0.45071  0.33880  1.0000 0.1396303417
H   H150      1.0  0.54929  0.62630  0.83880  1.0000 0.1396303417
H   H151      1.0  0.93800  0.07861  0.16180  1.0000 0.1218479465
H   H152      1.0  0.92139  0.06200  0.66180  1.0000 0.1218479465
H   H153      1.0  0.19510  0.34870  0.01440  1.0000 0.1396303417
H   H154      1.0  0.65130  0.80490  0.51440  1.0000 0.1396303417
H   H155      1.0  0.18980  0.33881  0.06620  1.0000 0.1310182895
H   H156      1.0  0.66120  0.81020  0.56620  1.0000 0.1310182895
H   H157      1.0  0.23470  0.43751  0.04040  1.0000 0.1310182895
H   H158      1.0  0.56250  0.76530  0.54040  1.0000 0.1310182895
H   H159      1.0  0.04550  0.62311  0.58110  1.0000 0.1085942148
H   H160      1.0  0.37689  0.95450  0.08110  1.0000 0.1085942148
H   H161      1.0  0.78360  0.37521  0.69520  1.0000 0.1310182895
H   H162      1.0  0.62479  0.21640  0.19520  1.0000 0.1310182895
H   H163      1.0  0.84340  0.36021  0.67410  1.0000 0.1396303417
H   H164      1.0  0.63980  0.15660  0.17410  1.0000 0.1396303417
H   H165      1.0  0.85620  0.44981  0.65830  1.0000 0.1310182895
H   H166      1.0  0.55020  0.14380  0.15830  1.0000 0.1310182895
H   H167      1.0  0.30150  0.35391  0.99030  1.0000 0.1396303417
H   H168      1.0  0.64610  0.69850  0.49030  1.0000 0.1396303417
H   H169      1.0  0.41150  0.44671  0.00070  1.0000 0.1310182895
H   H170      1.0  0.55329  0.58850  0.50070  1.0000 0.1310182895
H   H171      1.0  0.36170  0.34771  0.02770  1.0000 0.1396303417
H   H172      1.0  0.65230  0.63830  0.52770  1.0000 0.1396303417
H   H173      1.0  0.17660  0.28040  0.29070  1.0000 0.1310182895
H   H174      1.0  0.71960  0.82340  0.79070  1.0000 0.1310182895
H   H175      1.0  0.18840  0.35761  0.25770  1.0000 0.1396303417
H   H176      1.0  0.64240  0.81160  0.75770  1.0000 0.1396303417
H   H177      1.0  0.20170  0.29230  0.24140  1.0000 0.1310182895
H   H178      1.0  0.70769  0.79830  0.74140  1.0000 0.1310182895
H   H179      1.0  0.83580  0.43401  0.76330  1.0000 0.1503252371
H   H180      1.0  0.56600  0.16420  0.26330  1.0000 0.1503252371
H   H181      1.0  0.93800  0.54141  0.76380  1.0000 0.1310182895
H   H182      1.0  0.45859  0.06200  0.26380  1.0000 0.1310182895
H   H183      1.0  0.92830  0.45510  0.78350  1.0000 0.1396303417
H   H184      1.0  0.54489  0.07170  0.28350  1.0000 0.1396303417
C   C1        1.0  0.64575  0.73446  0.28779  1.0000 -0.0914484673
C   C2        1.0  0.26554  0.35425  0.78779  1.0000 -0.0914484673
C   C3        1.0  0.63104  0.60997  0.33763  1.0000 0.5554814173
C   C4        1.0  0.39003  0.36896  0.83763  1.0000 0.5554814173
C   C5        1.0  0.74938  0.07842  0.36734  1.0000 -0.1018798616
C   C6        1.0  0.92158  0.25061  0.86734  1.0000 -0.1018798616
C   C7        1.0  0.72487  0.41734  0.11895  1.0000 0.0566581397
C   C8        1.0  0.58266  0.27514  0.61895  1.0000 0.0566581397
C   C9        1.0  0.71040  0.40120  0.07086  1.0000 0.0505403338
C   C10       1.0  0.59880  0.28960  0.57086  1.0000 0.0505403338
C   C11       1.0  0.68417  0.87023  0.31684  1.0000 0.043145275
C   C12       1.0  0.12977  0.31583  0.81684  1.0000 0.043145275
C   C13       1.0  0.04479  0.71782  0.35118  1.0000 -0.1099914303
C   C14       1.0  0.28218  0.95522  0.85118  1.0000 -0.1099914303
C   C15       1.0  0.64879  0.70022  0.33095  1.0000 -0.0040034245
C   C16       1.0  0.29978  0.35122  0.83095  1.0000 -0.0040034245
C   C17       1.0  0.45761  0.14059  0.35205  1.0000 -0.0171200314
C   C18       1.0  0.85941  0.54239  0.85205  1.0000 -0.0171200314
C   C19       1.0  0.66900  0.75100  0.36787  1.0000 -0.0914484673
C   C20       1.0  0.24900  0.33099  0.86787  1.0000 -0.0849199386
C   C21       1.0  0.64745  0.34936  0.98280  1.0000 -0.029723549
C   C22       1.0  0.65064  0.35256  0.48280  1.0000 -0.029723549
C   C23       1.0  0.72013  0.43148  0.20861  1.0000 -0.029723549
C   C24       1.0  0.56852  0.27987  0.70861  1.0000 -0.029723549
C   C25       1.0  0.71893  0.43588  0.25760  1.0000 0.6341257526
C   C26       1.0  0.56412  0.28108  0.75760  1.0000 0.6341257526
C   C27       1.0  0.78029  0.22631  0.33727  1.0000 0.5554814173
C   C28       1.0  0.77369  0.21971  0.83727  1.0000 0.5554814173
C   C29       1.0  0.61189  0.31372  0.93685  1.0000 0.6212335659
C   C30       1.0  0.68628  0.38811  0.43685  1.0000 0.6212335659
C   C31       1.0  0.70990  0.01611  0.28028  1.0000 -0.1350530998
C   C32       1.0  0.98389  0.29011  0.78028  1.0000 -0.1337049132
C   C33       1.0  0.68600  0.83461  0.35960  1.0000 -0.118381411
C   C34       1.0  0.16539  0.31400  0.85960  1.0000 -0.118381411
C   C35       1.0  0.86167  0.60934  0.34736  1.0000 0.6212335659
C   C36       1.0  0.39066  0.13834  0.84736  1.0000 0.6212335659
C   C37       1.0  0.96465  0.70676  0.34646  1.0000 -0.0147287117
C   C38       1.0  0.29324  0.03536  0.84646  1.0000 -0.0147287117
C   C39       1.0  0.66317  0.81864  0.28047  1.0000 -0.118381411
C   C40       1.0  0.18136  0.33683  0.78047  1.0000 -0.118381411
C   C41       1.0  0.73013  0.36908  0.00225  1.0000 -0.0914484673
C   C42       1.0  0.63092  0.26987  0.50225  1.0000 -0.0914484673
C   C43       1.0  0.65074  0.41787  0.17903  1.0000 -0.1018798616
C   C44       1.0  0.58213  0.34926  0.67903  1.0000 -0.1018798616
C   C45       1.0  0.75350  0.13310  0.33050  1.0000 0.0111205183
C   C46       1.0  0.86690  0.24649  0.83050  1.0000 0.0111205183
C   C47       1.0  0.62889  0.38251  0.05152  1.0000 -0.1099914303
C   C48       1.0  0.61749  0.37111  0.55152  1.0000 -0.1099914303
C   C49       1.0  0.13747  0.81253  0.35118  1.0000 -0.1099914303
C   C50       1.0  0.18747  0.86252  0.85118  1.0000 -0.1099914303
C   C51       1.0  0.31733  0.97088  0.35525  1.0000 -0.118381411
C   C52       1.0  0.02912  0.68268  0.85525  1.0000 -0.118381411
C   C53       1.0  0.56534  0.22559  0.35091  1.0000 0.607834859
C   C54       1.0  0.77441  0.43467  0.85091  1.0000 0.607834859
C   C55       1.0  0.65424  0.41016  0.13468  1.0000 -0.1099914303
C   C56       1.0  0.58984  0.34575  0.63468  1.0000 -0.1099914303
C   C57       1.0  0.59729  0.35912  0.00727  1.0000 -0.1099914303
C   C58       1.0  0.64088  0.40272  0.50727  1.0000 -0.1099914303
C   C59       1.0  0.73313  0.10128  0.28734  1.0000 -0.0914484673
C   C60       1.0  0.89872  0.26687  0.78734  1.0000 -0.0914484673
C   C61       1.0  0.46904  0.37677  0.25052  1.0000 0.309570445
C   C62       1.0  0.62323  0.53097  0.75052  1.0000 0.309570445
C   C63       1.0  0.51680  0.87540  0.95500  1.0000 -0.3331997187
C   C64       1.0  0.12460  0.48319  0.45500  1.0000 -0.3331997187
C   C65       1.0  0.76370  0.39711  0.04569  1.0000 -0.118381411
C   C66       1.0  0.60289  0.23630  0.54569  1.0000 -0.118381411
C   C67       1.0  0.70542  0.96122  0.31656  1.0000 0.043145275
C   C68       1.0  0.03878  0.29458  0.81656  1.0000 0.043145275
C   C69       1.0  0.72474  0.99347  0.35939  1.0000 -0.1099914303
C   C70       1.0  0.00653  0.27526  0.85939  1.0000 -0.1099914303
C   C71       1.0  0.41891  0.04610  0.35710  1.0000 -0.1018798616
C   C72       1.0  0.95390  0.58110  0.85710  1.0000 -0.1018798616
C   C73       1.0  0.79177  0.43924  0.19291  1.0000 -0.0849199386
C   C74       1.0  0.56076  0.20824  0.69291  1.0000 -0.0914484673
C   C75       1.0  0.25532  0.98649  0.34919  1.0000 0.0505403338
C   C76       1.0  0.01351  0.74469  0.84919  1.0000 0.0505403338
C   C77       1.0  0.79670  0.43451  0.14820  1.0000 -0.1099914303
C   C78       1.0  0.56549  0.20331  0.64820  1.0000 -0.1099914303
C   C79       1.0  0.15044  0.89457  0.34669  1.0000 0.0304303167
C   C80       1.0  0.10543  0.84957  0.84669  1.0000 0.0304303167
C   C81       1.0  0.39476  0.15745  0.34740  1.0000 -0.0914484673
C   C82       1.0  0.84255  0.60525  0.84740  1.0000 -0.0914484673
C   C83       1.0  0.46294  0.38367  0.41903  1.0000 0.309570445
C   C84       1.0  0.61633  0.53707  0.91903  1.0000 0.309570445
C   C85       1.0  0.41291  0.90550  0.95850  1.0000 -0.2777384015
C   C86       1.0  0.09450  0.58710  0.45850  1.0000 -0.2777384015
C   C87       1.0  0.29445  0.08056  0.34640  1.0000 -0.1337049132
C   C88       1.0  0.91944  0.70556  0.84640  1.0000 -0.1337049132
C   C89       1.0  0.51472  0.01209  0.79284  1.0000 0.309570445
C   C90       1.0  0.98791  0.48529  0.29284  1.0000 0.309570445
C   C91       1.0  0.97827  0.79114  0.34120  1.0000 -0.0914484673
C   C92       1.0  0.20886  0.02174  0.84120  1.0000 -0.0914484673
C   C93       1.0  0.39313  0.34488  0.17581  1.0000 -0.3499396311
C   C94       1.0  0.65512  0.60688  0.67581  1.0000 -0.3499396311
C   C95       1.0  0.07044  0.88357  0.34150  1.0000 -0.1337049132
C   C96       1.0  0.11643  0.92957  0.84150  1.0000 -0.1337049132
C   C97       1.0  0.38231  0.22750  0.45860  1.0000 -0.3202031271
C   C98       1.0  0.77250  0.61770  0.95860  1.0000 -0.3202031271
C   C99       1.0  0.56614  0.02687  0.92640  1.0000 0.290604843
C   C100      1.0  0.97313  0.43387  0.42640  1.0000 0.290604843
C   C101      1.0  0.40771  0.84490  0.81670  1.0000 -0.3117349909
C   C102      1.0  0.15510  0.59230  0.31670  1.0000 -0.3117349909
C   C103      1.0  0.38851  0.35210  0.48660  1.0000 -0.3428949283
C   C104      1.0  0.64790  0.61150  0.98660  1.0000 -0.3428949283
C   C105      1.0  0.32610  0.21170  0.23390  1.0000 -0.3202031271
C   C106      1.0  0.78830  0.67390  0.73390  1.0000 -0.3202031271
C   C107      1.0  0.47460  0.90440  0.73930  1.0000 -0.3428949283
C   C108      1.0  0.09560  0.52539  0.23930  1.0000 -0.3428949283
C   C109      1.0  0.73446  0.64575  0.21221  1.0000 -0.0914484673
C   C110      1.0  0.35425  0.26554  0.71221  1.0000 -0.0914484673
C   C111      1.0  0.60997  0.63104  0.16237  1.0000 0.5554814173
C   C112      1.0  0.36896  0.39003  0.66237  1.0000 0.5554814173
C   C113      1.0  0.07842  0.74938  0.13266  1.0000 -0.1018798616
C   C114      1.0  0.25062  0.92158  0.63266  1.0000 -0.1018798616
C   C115      1.0  0.41734  0.72486  0.38105  1.0000 0.0566581397
C   C116      1.0  0.27514  0.58266  0.88105  1.0000 0.0566581397
C   C117      1.0  0.40120  0.71040  0.42914  1.0000 0.0505403338
C   C118      1.0  0.28960  0.59880  0.92914  1.0000 0.0505403338
C   C119      1.0  0.87023  0.68417  0.18316  1.0000 0.043145275
C   C120      1.0  0.31583  0.12977  0.68316  1.0000 0.043145275
C   C121      1.0  0.71782  0.04478  0.14882  1.0000 -0.1099914303
C   C122      1.0  0.95521  0.28218  0.64882  1.0000 -0.1099914303
C   C123      1.0  0.70022  0.64878  0.16905  1.0000 -0.0040034245
C   C124      1.0  0.35122  0.29978  0.66905  1.0000 -0.0040034245
C   C125      1.0  0.14059  0.45761  0.14795  1.0000 -0.0171200314
C   C126      1.0  0.54239  0.85941  0.64795  1.0000 -0.0171200314
C   C127      1.0  0.75100  0.66900  0.13213  1.0000 -0.0914484673
C   C128      1.0  0.33100  0.24900  0.63213  1.0000 -0.0914484673
C   C129      1.0  0.34936  0.64745  0.51720  1.0000 -0.029723549
C   C130      1.0  0.35256  0.65064  0.01720  1.0000 -0.029723549
C   C131      1.0  0.43148  0.72013  0.29139  1.0000 -0.029723549
C   C132      1.0  0.27987  0.56852  0.79139  1.0000 -0.029723549
C   C133      1.0  0.43588  0.71893  0.24240  1.0000 0.6341257526
C   C134      1.0  0.28108  0.56412  0.74240  1.0000 0.6341257526
C   C135      1.0  0.22631  0.78029  0.16273  1.0000 0.5554814173
C   C136      1.0  0.21970  0.77369  0.66273  1.0000 0.5554814173
C   C137      1.0  0.31372  0.61189  0.56315  1.0000 0.6212335659
C   C138      1.0  0.38811  0.68628  0.06315  1.0000 0.6212335659
C   C139      1.0  0.01611  0.70990  0.21972  1.0000 -0.1337049132
C   C140      1.0  0.29011  0.98389  0.71972  1.0000 -0.1337049132
C   C141      1.0  0.83461  0.68600  0.14040  1.0000 -0.1099914303
C   C142      1.0  0.31400  0.16539  0.64040  1.0000 -0.118381411
C   C143      1.0  0.60934  0.86167  0.15264  1.0000 0.6212335659
C   C144      1.0  0.13834  0.39066  0.65264  1.0000 0.6212335659
C   C145      1.0  0.70676  0.96464  0.15354  1.0000 -0.0147287117
C   C146      1.0  0.03535  0.29324  0.65354  1.0000 -0.0147287117
C   C147      1.0  0.81864  0.66317  0.21953  1.0000 -0.118381411
C   C148      1.0  0.33684  0.18136  0.71953  1.0000 -0.118381411
C   C149      1.0  0.36908  0.73013  0.49775  1.0000 -0.0914484673
C   C150      1.0  0.26987  0.63092  0.99775  1.0000 -0.0914484673
C   C151      1.0  0.41787  0.65074  0.32097  1.0000 -0.1018798616
C   C152      1.0  0.34927  0.58213  0.82097  1.0000 -0.1018798616
C   C153      1.0  0.13310  0.75351  0.16950  1.0000 0.0111205183
C   C154      1.0  0.24650  0.86690  0.66950  1.0000 0.0111205183
C   C155      1.0  0.38251  0.62889  0.44848  1.0000 -0.1099914303
C   C156      1.0  0.37111  0.61749  0.94848  1.0000 -0.1099914303
C   C157      1.0  0.81253  0.13748  0.14882  1.0000 -0.1099914303
C   C158      1.0  0.86252  0.18747  0.64882  1.0000 -0.1099914303
C   C159      1.0  0.97088  0.31733  0.14475  1.0000 -0.118381411
C   C160      1.0  0.68268  0.02912  0.64475  1.0000 -0.118381411
C   C161      1.0  0.22559  0.56534  0.14909  1.0000 0.607834859
C   C162      1.0  0.43467  0.77441  0.64909  1.0000 0.607834859
C   C163      1.0  0.41016  0.65424  0.36532  1.0000 -0.1099914303
C   C164      1.0  0.34576  0.58984  0.86532  1.0000 -0.1099914303
C   C165      1.0  0.35912  0.59729  0.49273  1.0000 -0.1099914303
C   C166      1.0  0.40271  0.64088  0.99273  1.0000 -0.1099914303
C   C167      1.0  0.10128  0.73313  0.21266  1.0000 -0.0914484673
C   C168      1.0  0.26688  0.89872  0.71266  1.0000 -0.0914484673
C   C169      1.0  0.37677  0.46904  0.24948  1.0000 0.309570445
C   C170      1.0  0.53097  0.62323  0.74948  1.0000 0.309570445
C   C171      1.0  0.87540  0.51681  0.54500  1.0000 -0.3331997187
C   C172      1.0  0.48320  0.12460  0.04500  1.0000 -0.3331997187
C   C173      1.0  0.39711  0.76370  0.45431  1.0000 -0.118381411
C   C174      1.0  0.23631  0.60289  0.95431  1.0000 -0.118381411
C   C175      1.0  0.96122  0.70542  0.18344  1.0000 0.043145275
C   C176      1.0  0.29458  0.03878  0.68344  1.0000 0.043145275
C   C177      1.0  0.99347  0.72474  0.14061  1.0000 -0.1099914303
C   C178      1.0  0.27526  0.00653  0.64061  1.0000 -0.1099914303
C   C179      1.0  0.04610  0.41891  0.14290  1.0000 -0.1018798616
C   C180      1.0  0.58110  0.95390  0.64290  1.0000 -0.1018798616
C   C181      1.0  0.43924  0.79177  0.30709  1.0000 -0.0849199386
C   C182      1.0  0.20824  0.56076  0.80709  1.0000 -0.0849199386
C   C183      1.0  0.98649  0.25532  0.15081  1.0000 0.0505403338
C   C184      1.0  0.74469  0.01351  0.65081  1.0000 0.0505403338
C   C185      1.0  0.43451  0.79670  0.35180  1.0000 -0.1099914303
C   C186      1.0  0.20331  0.56549  0.85180  1.0000 -0.1099914303
C   C187      1.0  0.89457  0.15044  0.15331  1.0000 0.0304303167
C   C188      1.0  0.84957  0.10543  0.65331  1.0000 0.0304303167
C   C189      1.0  0.15745  0.39476  0.15260  1.0000 -0.0914484673
C   C190      1.0  0.60525  0.84255  0.65260  1.0000 -0.0914484673
C   C191      1.0  0.38367  0.46294  0.08097  1.0000 0.309570445
C   C192      1.0  0.53707  0.61633  0.58097  1.0000 0.309570445
C   C193      1.0  0.90550  0.41291  0.54150  1.0000 -0.2777384015
C   C194      1.0  0.58710  0.09450  0.04150  1.0000 -0.2777384015
C   C195      1.0  0.08056  0.29445  0.15360  1.0000 -0.1337049132
C   C196      1.0  0.70556  0.91944  0.65360  1.0000 -0.1337049132
C   C197      1.0  0.01209  0.51472  0.70716  1.0000 0.309570445
C   C198      1.0  0.48529  0.98791  0.20716  1.0000 0.309570445
C   C199      1.0  0.79114  0.97827  0.15880  1.0000 -0.0914484673
C   C200      1.0  0.02173  0.20886  0.65880  1.0000 -0.0914484673
C   C201      1.0  0.34488  0.39313  0.32419  1.0000 -0.3499396311
C   C202      1.0  0.60688  0.65512  0.82419  1.0000 -0.3499396311
C   C203      1.0  0.88357  0.07044  0.15850  1.0000 -0.1337049132
C   C204      1.0  0.92957  0.11643  0.65850  1.0000 -0.1337049132
C   C205      1.0  0.22750  0.38231  0.04140  1.0000 -0.3202031271
C   C206      1.0  0.61769  0.77250  0.54140  1.0000 -0.3202031271
C   C207      1.0  0.02687  0.56613  0.57360  1.0000 0.290604843
C   C208      1.0  0.43387  0.97313  0.07360  1.0000 0.290604843
C   C209      1.0  0.84490  0.40770  0.68330  1.0000 -0.3117349909
C   C210      1.0  0.59230  0.15510  0.18330  1.0000 -0.3117349909
C   C211      1.0  0.35210  0.38851  0.01340  1.0000 -0.3428949283
C   C212      1.0  0.61150  0.64790  0.51340  1.0000 -0.3428949283
C   C213      1.0  0.21170  0.32611  0.26610  1.0000 -0.3202031271
C   C214      1.0  0.67390  0.78830  0.76610  1.0000 -0.3202031271
C   C215      1.0  0.90440  0.47461  0.76070  1.0000 -0.3428949283
C   C216      1.0  0.52539  0.09560  0.26070  1.0000 -0.3428949283
S   S1        1.0  0.71636  0.91313  0.40009  1.0000 0.9858342244
S   S2        1.0  0.08687  0.28365  0.90009  1.0000 0.9858342244
S   S3        1.0  0.25073  0.84548  0.35589  1.0000 0.9825123979
S   S4        1.0  0.15452  0.74928  0.85589  1.0000 0.9825123979
S   S5        1.0  0.56879  0.38356  0.09127  1.0000 0.9742652608
S   S6        1.0  0.61644  0.43122  0.59127  1.0000 0.9742652608
S   S7        1.0  0.91313  0.71635  0.09991  1.0000 0.9858342244
S   S8        1.0  0.28364  0.08687  0.59991  1.0000 0.9858342244
S   S9        1.0  0.84548  0.25072  0.14411  1.0000 0.9825123979
S   S10       1.0  0.74928  0.15452  0.64411  1.0000 0.9825123979
S   S11       1.0  0.38356  0.56879  0.40873  1.0000 0.9742652608
S   S12       1.0  0.43122  0.61644  0.90873  1.0000 0.9742652608
N   N1        1.0  0.41504  0.32317  0.45344  1.0000 0.0304303167
N   N2        1.0  0.67683  0.58497  0.95344  1.0000 0.0304303167
N   N3        1.0  0.39930  0.31551  0.22116  1.0000 0.0304303167
N   N4        1.0  0.68449  0.60071  0.72116  1.0000 0.0304303167
N   N5        1.0  0.49930  0.93870  0.94490  1.0000 0.0155864491
N   N6        1.0  0.06130  0.50070  0.44490  1.0000 0.0155864491
N   N7        1.0  0.46432  0.92148  0.78320  1.0000 0.0304303167
N   N8        1.0  0.07852  0.53568  0.28320  1.0000 0.0304303167
N   N9        1.0  0.32317  0.41503  0.04656  1.0000 0.0304303167
N   N10       1.0  0.58496  0.67683  0.54656  1.0000 0.0304303167
N   N11       1.0  0.31551  0.39930  0.27884  1.0000 0.0304303167
N   N12       1.0  0.60071  0.68449  0.77884  1.0000 0.0304303167
N   N13       1.0  0.93870  0.49930  0.55510  1.0000 0.0111205183
N   N14       1.0  0.50070  0.06130  0.05510  1.0000 0.0111205183
N   N15       1.0  0.92148  0.46432  0.71680  1.0000 0.0304303167
N   N16       1.0  0.53568  0.07852  0.21680  1.0000 0.0304303167
O   O1        1.0  0.60640  0.56328  0.30337  1.0000 -0.6587666662
O   O2        1.0  0.43672  0.39360  0.80337  1.0000 -0.6587666662
O   O3        1.0  0.67089  0.45212  0.27003  1.0000 -0.6587666662
O   O4        1.0  0.54788  0.32911  0.77003  1.0000 -0.6587666662
O   O5        1.0  0.47589  0.35418  0.29007  1.0000 -0.5468877719
O   O6        1.0  0.64582  0.52411  0.79007  1.0000 -0.5468877719
O   O7        1.0  0.55373  0.31888  0.91628  1.0000 -0.6587666662
O   O8        1.0  0.68112  0.44628  0.41628  1.0000 -0.6587666662
O   O9        1.0  0.64262  0.27999  0.92283  1.0000 -0.6433261202
O   O10       1.0  0.72001  0.35739  0.42283  1.0000 -0.6433261202
O   O11       1.0  0.64184  0.58373  0.37576  1.0000 -0.6098920868
O   O12       1.0  0.41627  0.35817  0.87576  1.0000 -0.6098920868
O   O13       1.0  0.80132  0.25407  0.37686  1.0000 -0.6587666662
O   O14       1.0  0.74593  0.19869  0.87686  1.0000 -0.6587666662
O   O15       1.0  0.76624  0.42136  0.28237  1.0000 -0.6812197731
O   O16       1.0  0.57864  0.23375  0.78237  1.0000 -0.6812197731
O   O17       1.0  0.59848  0.31085  0.34540  1.0000 -0.7222548293
O   O18       1.0  0.68915  0.40153  0.84540  1.0000 -0.7222548293
O   O19       1.0  0.77968  0.27193  0.30457  1.0000 -0.6098920868
O   O20       1.0  0.72807  0.22032  0.80457  1.0000 -0.6098920868
O   O21       1.0  0.63713  0.86468  0.42848  1.0000 -0.5137047287
O   O22       1.0  0.13532  0.36288  0.92848  1.0000 -0.5137047287
O   O23       1.0  0.79446  0.60667  0.33696  1.0000 -0.6286928223
O   O24       1.0  0.39333  0.20555  0.83696  1.0000 -0.6286928223
O   O25       1.0  0.48238  0.36183  0.38771  1.0000 -0.5912188755
O   O26       1.0  0.63817  0.51763  0.88771  1.0000 -0.5912188755
O   O27       1.0  0.62052  0.21094  0.35415  1.0000 -0.5912188755
O   O28       1.0  0.78906  0.37948  0.85415  1.0000 -0.5912188755
O   O29       1.0  0.85118  0.53682  0.35948  1.0000 -0.6892942504
O   O30       1.0  0.46318  0.14882  0.85948  1.0000 -0.6892942504
O   O31       1.0  0.80968  0.95973  0.42146  1.0000 -0.4797664674
O   O32       1.0  0.04027  0.19033  0.92146  1.0000 -0.4797664674
O   O33       1.0  0.26265  0.80996  0.39773  1.0000 -0.5218662189
O   O34       1.0  0.19004  0.73736  0.89773  1.0000 -0.5218662189
O   O35       1.0  0.47521  0.28839  0.09860  1.0000 -0.5304980071
O   O36       1.0  0.71161  0.52479  0.59860  1.0000 -0.5304980071
O   O37       1.0  0.57242  0.46179  0.08193  1.0000 -0.5304980071
O   O38       1.0  0.53821  0.42758  0.58193  1.0000 -0.5304980071
O   O39       1.0  0.26664  0.82337  0.31688  1.0000 -0.5137047287
O   O40       1.0  0.17663  0.73337  0.81688  1.0000 -0.5137047287
O   O41       1.0  0.55863  0.08497  0.91873  1.0000 -0.4797664674
O   O42       1.0  0.91503  0.44137  0.41873  1.0000 -0.4797664674
O   O43       1.0  0.51650  0.04090  0.82678  1.0000 -0.5137047287
O   O44       1.0  0.95910  0.48350  0.32678  1.0000 -0.5137047287
O   O45       1.0  0.56328  0.60641  0.19663  1.0000 -0.6587666662
O   O46       1.0  0.39360  0.43672  0.69663  1.0000 -0.6587666662
O   O47       1.0  0.45212  0.67088  0.22997  1.0000 -0.6587666662
O   O48       1.0  0.32911  0.54788  0.72997  1.0000 -0.6587666662
O   O49       1.0  0.35418  0.47589  0.20993  1.0000 -0.5468877719
O   O50       1.0  0.52412  0.64582  0.70993  1.0000 -0.5468877719
O   O51       1.0  0.31888  0.55373  0.58372  1.0000 -0.6587666662
O   O52       1.0  0.44628  0.68112  0.08372  1.0000 -0.6587666662
O   O53       1.0  0.27999  0.64262  0.57717  1.0000 -0.6433261202
O   O54       1.0  0.35739  0.72001  0.07717  1.0000 -0.6433261202
O   O55       1.0  0.58373  0.64184  0.12424  1.0000 -0.6098920868
O   O56       1.0  0.35817  0.41627  0.62424  1.0000 -0.6098920868
O   O57       1.0  0.25407  0.80132  0.12314  1.0000 -0.6587666662
O   O58       1.0  0.19869  0.74593  0.62314  1.0000 -0.6587666662
O   O59       1.0  0.42136  0.76624  0.21763  1.0000 -0.6812197731
O   O60       1.0  0.23375  0.57864  0.71763  1.0000 -0.6812197731
O   O61       1.0  0.31085  0.59847  0.15460  1.0000 -0.7222548293
O   O62       1.0  0.40153  0.68915  0.65460  1.0000 -0.7222548293
O   O63       1.0  0.27193  0.77968  0.19543  1.0000 -0.6098920868
O   O64       1.0  0.22033  0.72807  0.69543  1.0000 -0.6098920868
O   O65       1.0  0.86468  0.63713  0.07152  1.0000 -0.5137047287
O   O66       1.0  0.36288  0.13532  0.57152  1.0000 -0.5137047287
O   O67       1.0  0.60667  0.79446  0.16304  1.0000 -0.6286928223
O   O68       1.0  0.20555  0.39333  0.66304  1.0000 -0.6286928223
O   O69       1.0  0.36183  0.48237  0.11229  1.0000 -0.5912188755
O   O70       1.0  0.51763  0.63817  0.61229  1.0000 -0.5912188755
O   O71       1.0  0.21094  0.62052  0.14585  1.0000 -0.5912188755
O   O72       1.0  0.37948  0.78906  0.64585  1.0000 -0.5912188755
O   O73       1.0  0.53682  0.85118  0.14052  1.0000 -0.6892942504
O   O74       1.0  0.14881  0.46318  0.64052  1.0000 -0.6892942504
O   O75       1.0  0.95973  0.80968  0.07854  1.0000 -0.4797664674
O   O76       1.0  0.19032  0.04027  0.57854  1.0000 -0.4797664674
O   O77       1.0  0.80996  0.26265  0.10227  1.0000 -0.5218662189
O   O78       1.0  0.73736  0.19004  0.60227  1.0000 -0.5218662189
O   O79       1.0  0.28839  0.47522  0.40140  1.0000 -0.5304980071
O   O80       1.0  0.52478  0.71161  0.90140  1.0000 -0.5304980071
O   O81       1.0  0.46179  0.57242  0.41807  1.0000 -0.5304980071
O   O82       1.0  0.42759  0.53821  0.91807  1.0000 -0.5304980071
O   O83       1.0  0.82337  0.26664  0.18312  1.0000 -0.5137047287
O   O84       1.0  0.73337  0.17663  0.68312  1.0000 -0.5137047287
O   O85       1.0  0.08497  0.55863  0.58127  1.0000 -0.4797664674
O   O86       1.0  0.44137  0.91503  0.08127  1.0000 -0.4797664674
O   O87       1.0  0.04090  0.51650  0.67322  1.0000 -0.5137047287
O   O88       1.0  0.48350  0.95910  0.17322  1.0000 -0.5137047287
