# DDEC6 charges by PACMAN v1.1 (https://github.com/mtap-research/PACMAN-charge/)
data_2009[Cu][dia]3[FSR]2
_chemical_formula_sum              "Cu2 H80 C98 N8 O8"
_cell_length_a       15.2141
_cell_length_b       15.2141
_cell_length_c       13.2235
_cell_angle_alpha    90
_cell_angle_beta     90
_cell_angle_gamma    90

_symmetry_space_group_name_H-M    "P 1"
_symmetry_Int_Tables_number       1

loop_
  _symmetry_equiv_pos_as_xyz
  'x, y, z'

loop_
  _atom_site_type_symbol
  _atom_site_label
  _atom_site_symmetry_multiplicity
  _atom_site_fract_x
  _atom_site_fract_y
  _atom_site_fract_z
  _atom_site_occupancy
  _atom_site_charge
Cu  Cu1       1.0  0.00000  0.00000  0.00000  1.0000 0.2140385385
Cu  Cu2       1.0  0.50000  0.50000  0.00000  1.0000 0.2140385385
H   H1        1.0  0.05720  0.81540  0.97150  1.0000 0.0972745127
H   H2        1.0  0.94280  0.18460  0.97150  1.0000 0.0972745127
H   H3        1.0  0.81540  0.94280  0.02850  1.0000 0.0972745127
H   H4        1.0  0.18460  0.05720  0.02850  1.0000 0.0972745127
H   H5        1.0  0.15460  0.71490  0.03620  1.0000 0.1282202626
H   H6        1.0  0.84540  0.28510  0.03620  1.0000 0.1282202626
H   H7        1.0  0.71490  0.84540  0.96380  1.0000 0.1282202626
H   H8        1.0  0.28510  0.15460  0.96380  1.0000 0.1282202626
H   H9        1.0  0.20180  0.88310  0.26430  1.0000 0.1282202626
H   H10       1.0  0.79820  0.11690  0.26430  1.0000 0.1282202626
H   H11       1.0  0.88310  0.79820  0.73570  1.0000 0.1282202626
H   H12       1.0  0.11690  0.20180  0.73570  1.0000 0.1282202626
H   H13       1.0  0.10290  0.97780  0.19400  1.0000 0.0972745127
H   H14       1.0  0.89710  0.02220  0.19400  1.0000 0.0972745127
H   H15       1.0  0.97780  0.89710  0.80600  1.0000 0.0972745127
H   H16       1.0  0.02220  0.10290  0.80600  1.0000 0.0972745127
H   H17       1.0  0.19040  0.61200  0.16200  1.0000 0.1105954321
H   H18       1.0  0.80960  0.38800  0.16200  1.0000 0.1105954321
H   H19       1.0  0.61200  0.80960  0.83800  1.0000 0.1105954321
H   H20       1.0  0.38800  0.19040  0.83800  1.0000 0.1105954321
H   H21       1.0  0.27780  0.51410  0.25080  1.0000 0.1282202626
H   H22       1.0  0.72220  0.48590  0.25080  1.0000 0.1282202626
H   H23       1.0  0.51410  0.72220  0.74920  1.0000 0.1282202626
H   H24       1.0  0.48590  0.27780  0.74920  1.0000 0.1282202626
H   H25       1.0  0.42980  0.71660  0.34520  1.0000 0.116425323
H   H26       1.0  0.57020  0.28340  0.34520  1.0000 0.116425323
H   H27       1.0  0.71660  0.57020  0.65480  1.0000 0.116425323
H   H28       1.0  0.28340  0.42980  0.65480  1.0000 0.116425323
H   H29       1.0  0.33920  0.81320  0.25900  1.0000 0.1105954321
H   H30       1.0  0.66080  0.18680  0.25900  1.0000 0.1105954321
H   H31       1.0  0.81320  0.66080  0.74100  1.0000 0.1105954321
H   H32       1.0  0.18680  0.33920  0.74100  1.0000 0.1105954321
H   H33       1.0  0.51970  0.60210  0.39810  1.0000 0.0972745127
H   H34       1.0  0.48030  0.39790  0.39810  1.0000 0.0972745127
H   H35       1.0  0.60210  0.48030  0.60190  1.0000 0.0972745127
H   H36       1.0  0.39790  0.51970  0.60190  1.0000 0.0972745127
H   H37       1.0  0.44390  0.62300  0.47730  1.0000 0.0932128156
H   H38       1.0  0.55610  0.37700  0.47730  1.0000 0.0932128156
H   H39       1.0  0.62300  0.55610  0.52270  1.0000 0.0932128156
H   H40       1.0  0.37700  0.44390  0.52270  1.0000 0.0932128156
H   H41       1.0  0.68460  0.55720  0.97150  1.0000 0.0972745127
H   H42       1.0  0.31540  0.44280  0.97150  1.0000 0.0972745127
H   H43       1.0  0.44280  0.68460  0.02850  1.0000 0.0972745127
H   H44       1.0  0.55720  0.31540  0.02850  1.0000 0.0972745127
H   H45       1.0  0.78510  0.65460  0.03620  1.0000 0.1282202626
H   H46       1.0  0.21490  0.34540  0.03620  1.0000 0.1282202626
H   H47       1.0  0.34540  0.78510  0.96380  1.0000 0.1282202626
H   H48       1.0  0.65460  0.21490  0.96380  1.0000 0.1282202626
H   H49       1.0  0.61690  0.70180  0.26430  1.0000 0.1282202626
H   H50       1.0  0.38310  0.29820  0.26430  1.0000 0.1282202626
H   H51       1.0  0.29820  0.61690  0.73570  1.0000 0.1282202626
H   H52       1.0  0.70180  0.38310  0.73570  1.0000 0.1282202626
H   H53       1.0  0.52220  0.60290  0.19400  1.0000 0.0972745127
H   H54       1.0  0.47780  0.39710  0.19400  1.0000 0.0972745127
H   H55       1.0  0.39710  0.52220  0.80600  1.0000 0.0972745127
H   H56       1.0  0.60290  0.47780  0.80600  1.0000 0.0972745127
H   H57       1.0  0.88800  0.69040  0.16200  1.0000 0.1105954321
H   H58       1.0  0.11200  0.30960  0.16200  1.0000 0.1105954321
H   H59       1.0  0.30960  0.88800  0.83800  1.0000 0.1105954321
H   H60       1.0  0.69040  0.11200  0.83800  1.0000 0.1105954321
H   H61       1.0  0.98590  0.77780  0.25080  1.0000 0.1282202626
H   H62       1.0  0.01410  0.22220  0.25080  1.0000 0.1282202626
H   H63       1.0  0.22220  0.98590  0.74920  1.0000 0.1282202626
H   H64       1.0  0.77780  0.01410  0.74920  1.0000 0.1282202626
H   H65       1.0  0.78340  0.92980  0.34520  1.0000 0.116425323
H   H66       1.0  0.21660  0.07020  0.34520  1.0000 0.116425323
H   H67       1.0  0.07020  0.78340  0.65480  1.0000 0.116425323
H   H68       1.0  0.92980  0.21660  0.65480  1.0000 0.116425323
H   H69       1.0  0.68680  0.83920  0.25900  1.0000 0.1105954321
H   H70       1.0  0.31320  0.16080  0.25900  1.0000 0.1105954321
H   H71       1.0  0.16080  0.68680  0.74100  1.0000 0.1105954321
H   H72       1.0  0.83920  0.31320  0.74100  1.0000 0.1105954321
H   H73       1.0  0.89790  0.01970  0.39810  1.0000 0.0972745127
H   H74       1.0  0.10210  0.98030  0.39810  1.0000 0.0972745127
H   H75       1.0  0.98030  0.89790  0.60190  1.0000 0.0972745127
H   H76       1.0  0.01970  0.10210  0.60190  1.0000 0.0972745127
H   H77       1.0  0.87700  0.94390  0.47730  1.0000 0.0932128156
H   H78       1.0  0.12300  0.05610  0.47730  1.0000 0.0932128156
H   H79       1.0  0.05610  0.87700  0.52270  1.0000 0.0932128156
H   H80       1.0  0.94390  0.12300  0.52270  1.0000 0.0932128156
C   C1        1.0  0.08710  0.82930  0.03160  1.0000 0.0587469597
C   C2        1.0  0.91290  0.17070  0.03160  1.0000 0.0587469597
C   C3        1.0  0.82930  0.91290  0.96840  1.0000 0.0587469597
C   C4        1.0  0.17070  0.08710  0.96840  1.0000 0.0587469597
C   C5        1.0  0.14560  0.76850  0.07000  1.0000 -0.2105237684
C   C6        1.0  0.85440  0.23150  0.07000  1.0000 -0.2105237684
C   C7        1.0  0.76850  0.85440  0.93000  1.0000 -0.2105237684
C   C8        1.0  0.23150  0.14560  0.93000  1.0000 -0.2105237684
C   C9        1.0  0.19100  0.78660  0.15840  1.0000 0.1105954321
C   C10       1.0  0.80900  0.21340  0.15840  1.0000 0.1105954321
C   C11       1.0  0.78660  0.80900  0.84160  1.0000 0.1105954321
C   C12       1.0  0.21340  0.19100  0.84160  1.0000 0.1105954321
C   C13       1.0  0.17310  0.86750  0.20400  1.0000 -0.1998807167
C   C14       1.0  0.82690  0.13250  0.20400  1.0000 -0.1998807167
C   C15       1.0  0.86750  0.82690  0.79600  1.0000 -0.1998807167
C   C16       1.0  0.13250  0.17310  0.79600  1.0000 -0.1998807167
C   C17       1.0  0.11390  0.92410  0.16130  1.0000 0.0410730673
C   C18       1.0  0.88610  0.07590  0.16130  1.0000 0.0410730673
C   C19       1.0  0.92410  0.88610  0.83870  1.0000 0.0410730673
C   C20       1.0  0.07590  0.11390  0.83870  1.0000 0.0410730673
C   C21       1.0  0.25320  0.72350  0.20460  1.0000 0.022091605
C   C22       1.0  0.74680  0.27650  0.20460  1.0000 0.022091605
C   C23       1.0  0.72350  0.74680  0.79540  1.0000 0.022091605
C   C24       1.0  0.27650  0.25320  0.79540  1.0000 0.022091605
C   C25       1.0  0.23750  0.63340  0.20090  1.0000 -0.1369813347
C   C26       1.0  0.76250  0.36660  0.20090  1.0000 -0.1369813347
C   C27       1.0  0.63340  0.76250  0.79910  1.0000 -0.1369813347
C   C28       1.0  0.36660  0.23750  0.79910  1.0000 -0.1369813347
C   C29       1.0  0.28970  0.57470  0.25340  1.0000 -0.2198930238
C   C30       1.0  0.71030  0.42530  0.25340  1.0000 -0.2198930238
C   C31       1.0  0.57470  0.71030  0.74660  1.0000 -0.2198930238
C   C32       1.0  0.42530  0.28970  0.74660  1.0000 -0.2198930238
C   C33       1.0  0.36030  0.60600  0.31030  1.0000 0.2424401517
C   C34       1.0  0.63970  0.39400  0.31030  1.0000 0.2424401517
C   C35       1.0  0.60600  0.63970  0.68970  1.0000 0.2424401517
C   C36       1.0  0.39400  0.36030  0.68970  1.0000 0.2424401517
C   C37       1.0  0.38020  0.69550  0.31020  1.0000 -0.2447886293
C   C38       1.0  0.61980  0.30450  0.31020  1.0000 -0.2447886293
C   C39       1.0  0.69550  0.61980  0.68980  1.0000 -0.245610935
C   C40       1.0  0.30450  0.38020  0.68980  1.0000 -0.2447886293
C   C41       1.0  0.32620  0.75280  0.25820  1.0000 -0.1369813347
C   C42       1.0  0.67380  0.24720  0.25820  1.0000 -0.1369813347
C   C43       1.0  0.75280  0.67380  0.74180  1.0000 -0.1347068523
C   C44       1.0  0.24720  0.32620  0.74180  1.0000 -0.1369813347
C   C45       1.0  0.46970  0.57700  0.43470  1.0000 -0.1016728154
C   C46       1.0  0.53030  0.42300  0.43470  1.0000 -0.1016728154
C   C47       1.0  0.57700  0.53030  0.56530  1.0000 -0.1016728154
C   C48       1.0  0.42300  0.46970  0.56530  1.0000 -0.1016728154
C   C49       1.0  0.50000  0.50000  0.50000  1.0000 0.0760012518
C   C50       1.0  0.67070  0.58710  0.03160  1.0000 0.0587469597
C   C51       1.0  0.32930  0.41290  0.03160  1.0000 0.0587469597
C   C52       1.0  0.41290  0.67070  0.96840  1.0000 0.0587469597
C   C53       1.0  0.58710  0.32930  0.96840  1.0000 0.0587469597
C   C54       1.0  0.73150  0.64560  0.07000  1.0000 -0.2105237684
C   C55       1.0  0.26850  0.35440  0.07000  1.0000 -0.2105237684
C   C56       1.0  0.35440  0.73150  0.93000  1.0000 -0.2105237684
C   C57       1.0  0.64560  0.26850  0.93000  1.0000 -0.2105237684
C   C58       1.0  0.71340  0.69100  0.15840  1.0000 0.1105954321
C   C59       1.0  0.28660  0.30900  0.15840  1.0000 0.1105954321
C   C60       1.0  0.30900  0.71340  0.84160  1.0000 0.1105954321
C   C61       1.0  0.69100  0.28660  0.84160  1.0000 0.1105954321
C   C62       1.0  0.63250  0.67310  0.20400  1.0000 -0.1998807167
C   C63       1.0  0.36750  0.32690  0.20400  1.0000 -0.1998807167
C   C64       1.0  0.32690  0.63250  0.79600  1.0000 -0.1998807167
C   C65       1.0  0.67310  0.36750  0.79600  1.0000 -0.1998807167
C   C66       1.0  0.57590  0.61390  0.16130  1.0000 0.0410730673
C   C67       1.0  0.42410  0.38610  0.16130  1.0000 0.0410730673
C   C68       1.0  0.38610  0.57590  0.83870  1.0000 0.0410730673
C   C69       1.0  0.61390  0.42410  0.83870  1.0000 0.0410730673
C   C70       1.0  0.77650  0.75320  0.20460  1.0000 0.022091605
C   C71       1.0  0.22350  0.24680  0.20460  1.0000 0.022091605
C   C72       1.0  0.24680  0.77650  0.79540  1.0000 0.022091605
C   C73       1.0  0.75320  0.22350  0.79540  1.0000 0.022091605
C   C74       1.0  0.86660  0.73750  0.20090  1.0000 -0.1369813347
C   C75       1.0  0.13340  0.26250  0.20090  1.0000 -0.1369813347
C   C76       1.0  0.26250  0.86660  0.79910  1.0000 -0.1369813347
C   C77       1.0  0.73750  0.13340  0.79910  1.0000 -0.1369813347
C   C78       1.0  0.92530  0.78970  0.25340  1.0000 -0.2198930238
C   C79       1.0  0.07470  0.21030  0.25340  1.0000 -0.2198930238
C   C80       1.0  0.21030  0.92530  0.74660  1.0000 -0.2198930238
C   C81       1.0  0.78970  0.07470  0.74660  1.0000 -0.2198930238
C   C82       1.0  0.89400  0.86030  0.31030  1.0000 0.2424401517
C   C83       1.0  0.10600  0.13970  0.31030  1.0000 0.2424401517
C   C84       1.0  0.13970  0.89400  0.68970  1.0000 0.2424401517
C   C85       1.0  0.86030  0.10600  0.68970  1.0000 0.2424401517
C   C86       1.0  0.80450  0.88020  0.31020  1.0000 -0.2447886293
C   C87       1.0  0.19550  0.11980  0.31020  1.0000 -0.2447886293
C   C88       1.0  0.11980  0.80450  0.68980  1.0000 -0.2447886293
C   C89       1.0  0.88020  0.19550  0.68980  1.0000 -0.2447886293
C   C90       1.0  0.74720  0.82620  0.25820  1.0000 -0.1369813347
C   C91       1.0  0.25280  0.17380  0.25820  1.0000 -0.1369813347
C   C92       1.0  0.17380  0.74720  0.74180  1.0000 -0.1369813347
C   C93       1.0  0.82620  0.25280  0.74180  1.0000 -0.1369813347
C   C94       1.0  0.92300  0.96970  0.43470  1.0000 -0.1016728154
C   C95       1.0  0.07700  0.03030  0.43470  1.0000 -0.1016728154
C   C96       1.0  0.03030  0.92300  0.56530  1.0000 -0.1016728154
C   C97       1.0  0.96970  0.07700  0.56530  1.0000 -0.1016728154
C   C98       1.0  0.00000  0.00000  0.50000  1.0000 0.0760012518
N   N1        1.0  0.07060  0.90680  0.07490  1.0000 -0.2198930238
N   N2        1.0  0.92940  0.09320  0.07490  1.0000 -0.2198930238
N   N3        1.0  0.90680  0.92940  0.92510  1.0000 -0.2198930238
N   N4        1.0  0.09320  0.07060  0.92510  1.0000 -0.2198930238
N   N5        1.0  0.59320  0.57060  0.07490  1.0000 -0.2105237684
N   N6        1.0  0.40680  0.42940  0.07490  1.0000 -0.2198930238
N   N7        1.0  0.42940  0.59320  0.92510  1.0000 -0.2198930238
N   N8        1.0  0.57060  0.40680  0.92510  1.0000 -0.2198930238
O   O1        1.0  0.40550  0.54480  0.36470  1.0000 -0.1857114558
O   O2        1.0  0.59450  0.45520  0.36470  1.0000 -0.18489973
O   O3        1.0  0.54480  0.59450  0.63530  1.0000 -0.1857114558
O   O4        1.0  0.45520  0.40550  0.63530  1.0000 -0.1857114558
O   O5        1.0  0.95520  0.90550  0.36470  1.0000 -0.1857114558
O   O6        1.0  0.04480  0.09450  0.36470  1.0000 -0.1857114558
O   O7        1.0  0.09450  0.95520  0.63530  1.0000 -0.18489973
O   O8        1.0  0.90550  0.04480  0.63530  1.0000 -0.1857114558
