# DDEC6 charges by PACMAN v1.1 (https://github.com/mtap-research/PACMAN-charge/)
data_2009[Eu][pts]3[FSR]2
_chemical_formula_sum              "Eu4 H128 C208 S16 N16 O64"
_cell_length_a       19.1147
_cell_length_b       19.1147
_cell_length_c       21.1495
_cell_angle_alpha    90
_cell_angle_beta     90
_cell_angle_gamma    90

_symmetry_space_group_name_H-M    "P 1"
_symmetry_Int_Tables_number       1

loop_
  _symmetry_equiv_pos_as_xyz
  'x, y, z'

loop_
  _atom_site_type_symbol
  _atom_site_label
  _atom_site_symmetry_multiplicity
  _atom_site_fract_x
  _atom_site_fract_y
  _atom_site_fract_z
  _atom_site_occupancy
  _atom_site_charge
Eu  Eu1       1.0  0.50000  0.00000  0.25000  1.0000 1.9831343627
Eu  Eu2       1.0  0.00000  0.50000  0.75000  1.0000 1.9831343627
Eu  Eu3       1.0  0.50000  0.00000  0.75000  1.0000 1.9831343627
Eu  Eu4       1.0  0.00000  0.50000  0.25000  1.0000 1.9831343627
H   H1        1.0  0.61610  0.61610  0.16440  1.0000 0.1319832567
H   H2        1.0  0.38390  0.38390  0.16440  1.0000 0.1319832567
H   H3        1.0  0.38390  0.61610  0.66440  1.0000 0.1319832567
H   H4        1.0  0.61610  0.38390  0.66440  1.0000 0.1319832567
H   H5        1.0  0.38390  0.61610  0.33560  1.0000 0.1319832567
H   H6        1.0  0.61610  0.38390  0.33560  1.0000 0.1319832567
H   H7        1.0  0.61610  0.61610  0.83560  1.0000 0.1319832567
H   H8        1.0  0.38390  0.38390  0.83560  1.0000 0.1319832567
H   H9        1.0  0.65990  0.65990  0.21530  1.0000 0.1117850126
H   H10       1.0  0.34010  0.34010  0.21530  1.0000 0.1117850126
H   H11       1.0  0.34010  0.65990  0.71530  1.0000 0.1117850126
H   H12       1.0  0.65990  0.34010  0.71530  1.0000 0.1117850126
H   H13       1.0  0.34010  0.65990  0.28470  1.0000 0.1117850126
H   H14       1.0  0.65990  0.34010  0.28470  1.0000 0.1117850126
H   H15       1.0  0.65990  0.65990  0.78470  1.0000 0.1117850126
H   H16       1.0  0.34010  0.34010  0.78470  1.0000 0.1117850126
H   H17       1.0  0.67820  0.78490  0.20060  1.0000 0.1384035548
H   H18       1.0  0.32180  0.21510  0.20060  1.0000 0.1384035548
H   H19       1.0  0.21510  0.67820  0.70060  1.0000 0.1384035548
H   H20       1.0  0.78490  0.32180  0.70060  1.0000 0.1384035548
H   H21       1.0  0.32180  0.78490  0.29940  1.0000 0.1384035548
H   H22       1.0  0.67820  0.21510  0.29940  1.0000 0.1384035548
H   H23       1.0  0.78490  0.67820  0.79940  1.0000 0.1384035548
H   H24       1.0  0.21510  0.32180  0.79940  1.0000 0.1384035548
H   H25       1.0  0.32180  0.21510  0.79940  1.0000 0.1384035548
H   H26       1.0  0.67820  0.78490  0.79940  1.0000 0.1384035548
H   H27       1.0  0.78490  0.32180  0.29940  1.0000 0.1384035548
H   H28       1.0  0.21510  0.67820  0.29940  1.0000 0.1384035548
H   H29       1.0  0.67820  0.21510  0.70060  1.0000 0.1384035548
H   H30       1.0  0.32180  0.78490  0.70060  1.0000 0.1384035548
H   H31       1.0  0.21510  0.32180  0.20060  1.0000 0.1384035548
H   H32       1.0  0.78490  0.67820  0.20060  1.0000 0.1384035548
H   H33       1.0  0.56630  0.88730  0.06640  1.0000 0.1473592481
H   H34       1.0  0.43370  0.11270  0.06640  1.0000 0.1473592481
H   H35       1.0  0.11270  0.56630  0.56640  1.0000 0.1473592481
H   H36       1.0  0.88730  0.43370  0.56640  1.0000 0.1473592481
H   H37       1.0  0.43370  0.88730  0.43360  1.0000 0.1473592481
H   H38       1.0  0.56630  0.11270  0.43360  1.0000 0.1473592481
H   H39       1.0  0.88730  0.56630  0.93360  1.0000 0.1473592481
H   H40       1.0  0.11270  0.43370  0.93360  1.0000 0.1473592481
H   H41       1.0  0.43370  0.11270  0.93360  1.0000 0.1473592481
H   H42       1.0  0.56630  0.88730  0.93360  1.0000 0.1473592481
H   H43       1.0  0.88730  0.43370  0.43360  1.0000 0.1473592481
H   H44       1.0  0.11270  0.56630  0.43360  1.0000 0.1473592481
H   H45       1.0  0.56630  0.11270  0.56640  1.0000 0.1473592481
H   H46       1.0  0.43370  0.88730  0.56640  1.0000 0.1473592481
H   H47       1.0  0.11270  0.43370  0.06640  1.0000 0.1473592481
H   H48       1.0  0.88730  0.56630  0.06640  1.0000 0.1473592481
H   H49       1.0  0.48450  0.74100  0.00000  1.0000 0.1319832567
H   H50       1.0  0.51550  0.25900  0.00000  1.0000 0.1319832567
H   H51       1.0  0.25900  0.48450  0.50000  1.0000 0.1319832567
H   H52       1.0  0.74100  0.51550  0.50000  1.0000 0.1319832567
H   H53       1.0  0.51550  0.74100  0.50000  1.0000 0.1319832567
H   H54       1.0  0.48450  0.25900  0.50000  1.0000 0.1319832567
H   H55       1.0  0.74100  0.48450  0.00000  1.0000 0.1319832567
H   H56       1.0  0.25900  0.51550  0.00000  1.0000 0.1319832567
H   H57       1.0  0.48520  0.82490  0.00000  1.0000 0.1117850126
H   H58       1.0  0.51480  0.17510  0.00000  1.0000 0.1117850126
H   H59       1.0  0.17510  0.48520  0.50000  1.0000 0.1117850126
H   H60       1.0  0.82490  0.51480  0.50000  1.0000 0.1117850126
H   H61       1.0  0.51480  0.82490  0.50000  1.0000 0.1117850126
H   H62       1.0  0.48520  0.17510  0.50000  1.0000 0.1117850126
H   H63       1.0  0.82490  0.48520  0.00000  1.0000 0.1117850126
H   H64       1.0  0.17510  0.51480  0.00000  1.0000 0.1117850126
H   H65       1.0  0.39970  0.07380  0.36980  1.0000 0.1384035548
H   H66       1.0  0.60030  0.92620  0.36980  1.0000 0.1384035548
H   H67       1.0  0.92620  0.39970  0.86980  1.0000 0.1384035548
H   H68       1.0  0.07380  0.60030  0.86980  1.0000 0.1384035548
H   H69       1.0  0.60030  0.07380  0.13020  1.0000 0.1384035548
H   H70       1.0  0.39970  0.92620  0.13020  1.0000 0.1384035548
H   H71       1.0  0.07380  0.39970  0.63020  1.0000 0.1384035548
H   H72       1.0  0.92620  0.60030  0.63020  1.0000 0.1384035548
H   H73       1.0  0.60030  0.92620  0.63020  1.0000 0.1384035548
H   H74       1.0  0.39970  0.07380  0.63020  1.0000 0.1384035548
H   H75       1.0  0.07380  0.60030  0.13020  1.0000 0.1384035548
H   H76       1.0  0.92620  0.39970  0.13020  1.0000 0.1384035548
H   H77       1.0  0.39970  0.92620  0.86980  1.0000 0.1384035548
H   H78       1.0  0.60030  0.07380  0.86980  1.0000 0.1384035548
H   H79       1.0  0.92620  0.60030  0.36980  1.0000 0.1384035548
H   H80       1.0  0.07380  0.39970  0.36980  1.0000 0.1384035548
H   H81       1.0  0.35890  0.17720  0.41440  1.0000 0.1473592481
H   H82       1.0  0.64110  0.82280  0.41440  1.0000 0.1473592481
H   H83       1.0  0.82280  0.35890  0.91440  1.0000 0.1473592481
H   H84       1.0  0.17720  0.64110  0.91440  1.0000 0.1473592481
H   H85       1.0  0.64110  0.17720  0.08560  1.0000 0.1473592481
H   H86       1.0  0.35890  0.82280  0.08560  1.0000 0.1473592481
H   H87       1.0  0.17720  0.35890  0.58560  1.0000 0.1473592481
H   H88       1.0  0.82280  0.64110  0.58560  1.0000 0.1473592481
H   H89       1.0  0.64110  0.82280  0.58560  1.0000 0.1473592481
H   H90       1.0  0.35890  0.17720  0.58560  1.0000 0.1473592481
H   H91       1.0  0.17720  0.64110  0.08560  1.0000 0.1473592481
H   H92       1.0  0.82280  0.35890  0.08560  1.0000 0.1473592481
H   H93       1.0  0.35890  0.82280  0.91440  1.0000 0.1473592481
H   H94       1.0  0.64110  0.17720  0.91440  1.0000 0.1473592481
H   H95       1.0  0.82280  0.64110  0.41440  1.0000 0.1473592481
H   H96       1.0  0.17720  0.35890  0.41440  1.0000 0.1473592481
H   H97       1.0  0.39360  0.28280  0.37320  1.0000 0.1384035548
H   H98       1.0  0.60640  0.71720  0.37320  1.0000 0.1384035548
H   H99       1.0  0.71720  0.39360  0.87320  1.0000 0.1384035548
H   H100      1.0  0.28280  0.60640  0.87320  1.0000 0.1384035548
H   H101      1.0  0.60640  0.28280  0.12680  1.0000 0.1384035548
H   H102      1.0  0.39360  0.71720  0.12680  1.0000 0.1384035548
H   H103      1.0  0.28280  0.39360  0.62680  1.0000 0.1384035548
H   H104      1.0  0.71720  0.60640  0.62680  1.0000 0.1384035548
H   H105      1.0  0.60640  0.71720  0.62680  1.0000 0.1384035548
H   H106      1.0  0.39360  0.28280  0.62680  1.0000 0.1384035548
H   H107      1.0  0.28280  0.60640  0.12680  1.0000 0.1384035548
H   H108      1.0  0.71720  0.39360  0.12680  1.0000 0.1384035548
H   H109      1.0  0.39360  0.71720  0.87320  1.0000 0.1384035548
H   H110      1.0  0.60640  0.28280  0.87320  1.0000 0.1384035548
H   H111      1.0  0.71720  0.60640  0.37320  1.0000 0.1384035548
H   H112      1.0  0.28280  0.39360  0.37320  1.0000 0.1384035548
H   H113      1.0  0.46500  0.35050  0.29370  1.0000 0.1384035548
H   H114      1.0  0.53500  0.64950  0.29370  1.0000 0.1384035548
H   H115      1.0  0.64950  0.46500  0.79370  1.0000 0.1384035548
H   H116      1.0  0.35050  0.53500  0.79370  1.0000 0.1384035548
H   H117      1.0  0.53500  0.35050  0.20630  1.0000 0.1384035548
H   H118      1.0  0.46500  0.64950  0.20630  1.0000 0.1384035548
H   H119      1.0  0.35050  0.46500  0.70630  1.0000 0.1384035548
H   H120      1.0  0.64950  0.53500  0.70630  1.0000 0.1384035548
H   H121      1.0  0.53500  0.64950  0.70630  1.0000 0.1384035548
H   H122      1.0  0.46500  0.35050  0.70630  1.0000 0.1384035548
H   H123      1.0  0.35050  0.53500  0.20630  1.0000 0.1384035548
H   H124      1.0  0.64950  0.46500  0.20630  1.0000 0.1384035548
H   H125      1.0  0.46500  0.64950  0.79370  1.0000 0.1384035548
H   H126      1.0  0.53500  0.35050  0.79370  1.0000 0.1384035548
H   H127      1.0  0.64950  0.53500  0.29370  1.0000 0.1384035548
H   H128      1.0  0.35050  0.46500  0.29370  1.0000 0.1384035548
C   C1        1.0  0.65250  0.65250  0.16940  1.0000 -0.2743116582
C   C2        1.0  0.34750  0.34750  0.16940  1.0000 -0.2743116582
C   C3        1.0  0.34750  0.65250  0.66940  1.0000 -0.2743116582
C   C4        1.0  0.65250  0.34750  0.66940  1.0000 -0.2743116582
C   C5        1.0  0.34750  0.65250  0.33060  1.0000 -0.2743116582
C   C6        1.0  0.65250  0.34750  0.33060  1.0000 -0.2743116582
C   C7        1.0  0.65250  0.65250  0.83060  1.0000 -0.2743116582
C   C8        1.0  0.34750  0.34750  0.83060  1.0000 -0.2743116582
C   C9        1.0  0.62670  0.71980  0.14020  1.0000 0.0652558876
C   C10       1.0  0.37330  0.28020  0.14020  1.0000 0.0652558876
C   C11       1.0  0.28020  0.62670  0.64020  1.0000 0.0652558876
C   C12       1.0  0.71980  0.37330  0.64020  1.0000 0.0620826911
C   C13       1.0  0.37330  0.71980  0.35980  1.0000 0.0620826911
C   C14       1.0  0.62670  0.28020  0.35980  1.0000 0.0620826911
C   C15       1.0  0.71980  0.62670  0.85980  1.0000 0.0652558876
C   C16       1.0  0.28020  0.37330  0.85980  1.0000 0.0652558876
C   C17       1.0  0.37330  0.28020  0.85980  1.0000 0.0652558876
C   C18       1.0  0.62670  0.71980  0.85980  1.0000 0.0652558876
C   C19       1.0  0.71980  0.37330  0.35980  1.0000 0.0620826911
C   C20       1.0  0.28020  0.62670  0.35980  1.0000 0.0620826911
C   C21       1.0  0.62670  0.28020  0.64020  1.0000 0.0620826911
C   C22       1.0  0.37330  0.71980  0.64020  1.0000 0.0652558876
C   C23       1.0  0.28020  0.37330  0.14020  1.0000 0.0652558876
C   C24       1.0  0.71980  0.62670  0.14020  1.0000 0.0652558876
C   C25       1.0  0.64840  0.78360  0.16460  1.0000 -0.1619005661
C   C26       1.0  0.35160  0.21640  0.16460  1.0000 -0.1619005661
C   C27       1.0  0.21640  0.64840  0.66460  1.0000 -0.1619005661
C   C28       1.0  0.78360  0.35160  0.66460  1.0000 -0.1619005661
C   C29       1.0  0.35160  0.78360  0.33540  1.0000 -0.1619005661
C   C30       1.0  0.64840  0.21640  0.33540  1.0000 -0.1619005661
C   C31       1.0  0.78360  0.64840  0.83540  1.0000 -0.1619005661
C   C32       1.0  0.21640  0.35160  0.83540  1.0000 -0.1619005661
C   C33       1.0  0.35160  0.21640  0.83540  1.0000 -0.1619005661
C   C34       1.0  0.64840  0.78360  0.83540  1.0000 -0.1619005661
C   C35       1.0  0.78360  0.35160  0.33540  1.0000 -0.1619005661
C   C36       1.0  0.21640  0.64840  0.33540  1.0000 -0.1619005661
C   C37       1.0  0.64840  0.21640  0.66460  1.0000 -0.1619005661
C   C38       1.0  0.35160  0.78360  0.66460  1.0000 -0.1619005661
C   C39       1.0  0.21640  0.35160  0.16460  1.0000 -0.1619005661
C   C40       1.0  0.78360  0.64840  0.16460  1.0000 -0.1619005661
C   C41       1.0  0.62630  0.84600  0.13640  1.0000 -0.0517599287
C   C42       1.0  0.37370  0.15400  0.13640  1.0000 -0.0517599287
C   C43       1.0  0.15400  0.62630  0.63640  1.0000 -0.0517599287
C   C44       1.0  0.84600  0.37370  0.63640  1.0000 -0.0517599287
C   C45       1.0  0.37370  0.84600  0.36360  1.0000 -0.0517599287
C   C46       1.0  0.62630  0.15400  0.36360  1.0000 -0.0517599287
C   C47       1.0  0.84600  0.62630  0.86360  1.0000 -0.0517599287
C   C48       1.0  0.15400  0.37370  0.86360  1.0000 -0.0517599287
C   C49       1.0  0.37370  0.15400  0.86360  1.0000 -0.0517599287
C   C50       1.0  0.62630  0.84600  0.86360  1.0000 -0.0517599287
C   C51       1.0  0.84600  0.37370  0.36360  1.0000 -0.0517599287
C   C52       1.0  0.15400  0.62630  0.36360  1.0000 -0.0517599287
C   C53       1.0  0.62630  0.15400  0.63640  1.0000 -0.0517599287
C   C54       1.0  0.37370  0.84600  0.63640  1.0000 -0.0517599287
C   C55       1.0  0.15400  0.37370  0.13640  1.0000 -0.0517599287
C   C56       1.0  0.84600  0.62630  0.13640  1.0000 -0.0517599287
C   C57       1.0  0.58200  0.84470  0.08450  1.0000 -0.1619005661
C   C58       1.0  0.41800  0.15530  0.08450  1.0000 -0.1619005661
C   C59       1.0  0.15530  0.58200  0.58450  1.0000 -0.1619005661
C   C60       1.0  0.84470  0.41800  0.58450  1.0000 -0.1619005661
C   C61       1.0  0.41800  0.84470  0.41550  1.0000 -0.1619005661
C   C62       1.0  0.58200  0.15530  0.41550  1.0000 -0.1619005661
C   C63       1.0  0.84470  0.58200  0.91550  1.0000 -0.1619005661
C   C64       1.0  0.15530  0.41800  0.91550  1.0000 -0.1619005661
C   C65       1.0  0.41800  0.15530  0.91550  1.0000 -0.1619005661
C   C66       1.0  0.58200  0.84470  0.91550  1.0000 -0.1619005661
C   C67       1.0  0.84470  0.41800  0.41550  1.0000 -0.1619005661
C   C68       1.0  0.15530  0.58200  0.41550  1.0000 -0.1619005661
C   C69       1.0  0.58200  0.15530  0.58450  1.0000 -0.1619005661
C   C70       1.0  0.41800  0.84470  0.58450  1.0000 -0.1619005661
C   C71       1.0  0.15530  0.41800  0.08450  1.0000 -0.1619005661
C   C72       1.0  0.84470  0.58200  0.08450  1.0000 -0.1619005661
C   C73       1.0  0.56100  0.78230  0.05940  1.0000 0.0620826911
C   C74       1.0  0.43900  0.21770  0.05940  1.0000 0.0620826911
C   C75       1.0  0.21770  0.56100  0.55940  1.0000 0.0620826911
C   C76       1.0  0.78230  0.43900  0.55940  1.0000 0.0620826911
C   C77       1.0  0.43900  0.78230  0.44060  1.0000 0.0620826911
C   C78       1.0  0.56100  0.21770  0.44060  1.0000 0.0620826911
C   C79       1.0  0.78230  0.56100  0.94060  1.0000 0.0620826911
C   C80       1.0  0.21770  0.43900  0.94060  1.0000 0.0620826911
C   C81       1.0  0.43900  0.21770  0.94060  1.0000 0.0620826911
C   C82       1.0  0.56100  0.78230  0.94060  1.0000 0.0620826911
C   C83       1.0  0.78230  0.43900  0.44060  1.0000 0.0620826911
C   C84       1.0  0.21770  0.56100  0.44060  1.0000 0.0620826911
C   C85       1.0  0.56100  0.21770  0.55940  1.0000 0.0620826911
C   C86       1.0  0.43900  0.78230  0.55940  1.0000 0.0620826911
C   C87       1.0  0.21770  0.43900  0.05940  1.0000 0.0620826911
C   C88       1.0  0.78230  0.56100  0.05940  1.0000 0.0620826911
C   C89       1.0  0.58310  0.72000  0.08690  1.0000 0.1834203189
C   C90       1.0  0.41690  0.28000  0.08690  1.0000 0.1834203189
C   C91       1.0  0.28000  0.58310  0.58690  1.0000 0.1834203189
C   C92       1.0  0.72000  0.41690  0.58690  1.0000 0.1834203189
C   C93       1.0  0.41690  0.72000  0.41310  1.0000 0.1834203189
C   C94       1.0  0.58310  0.28000  0.41310  1.0000 0.1834203189
C   C95       1.0  0.72000  0.58310  0.91310  1.0000 0.1834203189
C   C96       1.0  0.28000  0.41690  0.91310  1.0000 0.1834203189
C   C97       1.0  0.41690  0.28000  0.91310  1.0000 0.1834203189
C   C98       1.0  0.58310  0.72000  0.91310  1.0000 0.1834203189
C   C99       1.0  0.72000  0.41690  0.41310  1.0000 0.1834203189
C   C100      1.0  0.28000  0.58310  0.41310  1.0000 0.1834203189
C   C101      1.0  0.58310  0.28000  0.58690  1.0000 0.1834203189
C   C102      1.0  0.41690  0.72000  0.58690  1.0000 0.1834203189
C   C103      1.0  0.28000  0.41690  0.08690  1.0000 0.1834203189
C   C104      1.0  0.72000  0.58310  0.08690  1.0000 0.1834203189
C   C105      1.0  0.51520  0.78270  0.00000  1.0000 -0.2535505498
C   C106      1.0  0.48480  0.21730  0.00000  1.0000 -0.2535505498
C   C107      1.0  0.21730  0.51520  0.50000  1.0000 -0.2552512849
C   C108      1.0  0.78270  0.48480  0.50000  1.0000 -0.2535505498
C   C109      1.0  0.48480  0.78270  0.50000  1.0000 -0.2552512849
C   C110      1.0  0.51520  0.21730  0.50000  1.0000 -0.2552512849
C   C111      1.0  0.78270  0.51520  0.00000  1.0000 -0.2535505498
C   C112      1.0  0.21730  0.48480  0.00000  1.0000 -0.2535505498
C   C113      1.0  0.41400  0.11710  0.35190  1.0000 0.1319832567
C   C114      1.0  0.58600  0.88290  0.35190  1.0000 0.1319832567
C   C115      1.0  0.88290  0.41400  0.85190  1.0000 0.1319832567
C   C116      1.0  0.11710  0.58600  0.85190  1.0000 0.1319832567
C   C117      1.0  0.58600  0.11710  0.14810  1.0000 0.1319832567
C   C118      1.0  0.41400  0.88290  0.14810  1.0000 0.1319832567
C   C119      1.0  0.11710  0.41400  0.64810  1.0000 0.1319832567
C   C120      1.0  0.88290  0.58600  0.64810  1.0000 0.1319832567
C   C121      1.0  0.58600  0.88290  0.64810  1.0000 0.1319832567
C   C122      1.0  0.41400  0.11710  0.64810  1.0000 0.1319832567
C   C123      1.0  0.11710  0.58600  0.14810  1.0000 0.1319832567
C   C124      1.0  0.88290  0.41400  0.14810  1.0000 0.1319832567
C   C125      1.0  0.41400  0.88290  0.85190  1.0000 0.1319832567
C   C126      1.0  0.58600  0.11710  0.85190  1.0000 0.1319832567
C   C127      1.0  0.88290  0.58600  0.35190  1.0000 0.1319832567
C   C128      1.0  0.11710  0.41400  0.35190  1.0000 0.1319832567
C   C129      1.0  0.38950  0.17880  0.37910  1.0000 -0.1090909491
C   C130      1.0  0.61050  0.82120  0.37910  1.0000 -0.1090909491
C   C131      1.0  0.82120  0.38950  0.87910  1.0000 -0.1090909491
C   C132      1.0  0.17880  0.61050  0.87910  1.0000 -0.1090909491
C   C133      1.0  0.61050  0.17880  0.12090  1.0000 -0.1090909491
C   C134      1.0  0.38950  0.82120  0.12090  1.0000 -0.1090909491
C   C135      1.0  0.17880  0.38950  0.62090  1.0000 -0.1090909491
C   C136      1.0  0.82120  0.61050  0.62090  1.0000 -0.1090909491
C   C137      1.0  0.61050  0.82120  0.62090  1.0000 -0.1090909491
C   C138      1.0  0.38950  0.17880  0.62090  1.0000 -0.1090909491
C   C139      1.0  0.17880  0.61050  0.12090  1.0000 -0.1090909491
C   C140      1.0  0.82120  0.38950  0.12090  1.0000 -0.1090909491
C   C141      1.0  0.38950  0.82120  0.87910  1.0000 -0.1090909491
C   C142      1.0  0.61050  0.17880  0.87910  1.0000 -0.1090909491
C   C143      1.0  0.82120  0.61050  0.37910  1.0000 -0.1090909491
C   C144      1.0  0.17880  0.38950  0.37910  1.0000 -0.1090909491
C   C145      1.0  0.40980  0.24030  0.35500  1.0000 -0.0822253006
C   C146      1.0  0.59020  0.75970  0.35500  1.0000 -0.0822253006
C   C147      1.0  0.75970  0.40980  0.85500  1.0000 -0.0822253006
C   C148      1.0  0.24030  0.59020  0.85500  1.0000 -0.0822253006
C   C149      1.0  0.59020  0.24030  0.14500  1.0000 -0.0822253006
C   C150      1.0  0.40980  0.75970  0.14500  1.0000 -0.0822253006
C   C151      1.0  0.24030  0.40980  0.64500  1.0000 -0.0822253006
C   C152      1.0  0.75970  0.59020  0.64500  1.0000 -0.0822253006
C   C153      1.0  0.59020  0.75970  0.64500  1.0000 -0.0822253006
C   C154      1.0  0.40980  0.24030  0.64500  1.0000 -0.0822253006
C   C155      1.0  0.24030  0.59020  0.14500  1.0000 -0.0822253006
C   C156      1.0  0.75970  0.40980  0.14500  1.0000 -0.0822253006
C   C157      1.0  0.40980  0.75970  0.85500  1.0000 -0.0822253006
C   C158      1.0  0.59020  0.24030  0.85500  1.0000 -0.0822253006
C   C159      1.0  0.75970  0.59020  0.35500  1.0000 -0.0822253006
C   C160      1.0  0.24030  0.40980  0.35500  1.0000 -0.0822253006
C   C161      1.0  0.45470  0.24180  0.30290  1.0000 0.0540422665
C   C162      1.0  0.54530  0.75820  0.30290  1.0000 0.0540422665
C   C163      1.0  0.75820  0.45470  0.80290  1.0000 0.0540422665
C   C164      1.0  0.24180  0.54530  0.80290  1.0000 0.0540422665
C   C165      1.0  0.54530  0.24180  0.19710  1.0000 0.0540422665
C   C166      1.0  0.45470  0.75820  0.19710  1.0000 0.0540422665
C   C167      1.0  0.24180  0.45470  0.69710  1.0000 0.0540422665
C   C168      1.0  0.75820  0.54530  0.69710  1.0000 0.0540422665
C   C169      1.0  0.54530  0.75820  0.69710  1.0000 0.0540422665
C   C170      1.0  0.45470  0.24180  0.69710  1.0000 0.0540422665
C   C171      1.0  0.24180  0.54530  0.19710  1.0000 0.0540422665
C   C172      1.0  0.75820  0.45470  0.19710  1.0000 0.0540422665
C   C173      1.0  0.45470  0.75820  0.80290  1.0000 0.0540422665
C   C174      1.0  0.54530  0.24180  0.80290  1.0000 0.0540422665
C   C175      1.0  0.75820  0.54530  0.30290  1.0000 0.0540422665
C   C176      1.0  0.24180  0.45470  0.30290  1.0000 0.0540422665
C   C177      1.0  0.47900  0.30730  0.27540  1.0000 -0.1188870754
C   C178      1.0  0.52100  0.69270  0.27540  1.0000 -0.1188870754
C   C179      1.0  0.69270  0.47900  0.77540  1.0000 -0.1188870754
C   C180      1.0  0.30730  0.52100  0.77540  1.0000 -0.1188870754
C   C181      1.0  0.52100  0.30730  0.22460  1.0000 -0.1188870754
C   C182      1.0  0.47900  0.69270  0.22460  1.0000 -0.1188870754
C   C183      1.0  0.30730  0.47900  0.72460  1.0000 -0.1188870754
C   C184      1.0  0.69270  0.52100  0.72460  1.0000 -0.1188870754
C   C185      1.0  0.52100  0.69270  0.72460  1.0000 -0.1188870754
C   C186      1.0  0.47900  0.30730  0.72460  1.0000 -0.1188870754
C   C187      1.0  0.30730  0.52100  0.22460  1.0000 -0.1188870754
C   C188      1.0  0.69270  0.47900  0.22460  1.0000 -0.1188870754
C   C189      1.0  0.47900  0.69270  0.77540  1.0000 -0.1188870754
C   C190      1.0  0.52100  0.30730  0.77540  1.0000 -0.1188870754
C   C191      1.0  0.69270  0.52100  0.27540  1.0000 -0.1188870754
C   C192      1.0  0.30730  0.47900  0.27540  1.0000 -0.1188870754
C   C193      1.0  0.47660  0.17810  0.27650  1.0000 0.1384035548
C   C194      1.0  0.52340  0.82190  0.27650  1.0000 0.1384035548
C   C195      1.0  0.82190  0.47660  0.77650  1.0000 0.1384035548
C   C196      1.0  0.17810  0.52340  0.77650  1.0000 0.1384035548
C   C197      1.0  0.52340  0.17810  0.22350  1.0000 0.1384035548
C   C198      1.0  0.47660  0.82190  0.22350  1.0000 0.1384035548
C   C199      1.0  0.17810  0.47660  0.72350  1.0000 0.1384035548
C   C200      1.0  0.82190  0.52340  0.72350  1.0000 0.1384035548
C   C201      1.0  0.52340  0.82190  0.72350  1.0000 0.1384035548
C   C202      1.0  0.47660  0.17810  0.72350  1.0000 0.1384035548
C   C203      1.0  0.17810  0.52340  0.22350  1.0000 0.1384035548
C   C204      1.0  0.82190  0.47660  0.22350  1.0000 0.1384035548
C   C205      1.0  0.47660  0.82190  0.77650  1.0000 0.1384035548
C   C206      1.0  0.52340  0.17810  0.77650  1.0000 0.1384035548
C   C207      1.0  0.82190  0.52340  0.27650  1.0000 0.1384035548
C   C208      1.0  0.17810  0.47660  0.27650  1.0000 0.1384035548
S   S1        1.0  0.65403  0.92683  0.16741  1.0000 1.2086206263
S   S2        1.0  0.34597  0.07317  0.16741  1.0000 1.2086206263
S   S3        1.0  0.07317  0.65403  0.66741  1.0000 1.2086206263
S   S4        1.0  0.92683  0.34597  0.66741  1.0000 1.2086206263
S   S5        1.0  0.34597  0.92683  0.33259  1.0000 1.2086206263
S   S6        1.0  0.65403  0.07317  0.33259  1.0000 1.2086206263
S   S7        1.0  0.92683  0.65403  0.83259  1.0000 1.2086206263
S   S8        1.0  0.07317  0.34597  0.83259  1.0000 1.2086206263
S   S9        1.0  0.34597  0.07317  0.83259  1.0000 1.2086206263
S   S10       1.0  0.65403  0.92683  0.83259  1.0000 1.2086206263
S   S11       1.0  0.92683  0.34597  0.33259  1.0000 1.2086206263
S   S12       1.0  0.07317  0.65403  0.33259  1.0000 1.2086206263
S   S13       1.0  0.65403  0.07317  0.66741  1.0000 1.2086206263
S   S14       1.0  0.34597  0.92683  0.66741  1.0000 1.2086206263
S   S15       1.0  0.07317  0.34597  0.16741  1.0000 1.2086206263
S   S16       1.0  0.92683  0.65403  0.16741  1.0000 1.2086206263
N   N1        1.0  0.45680  0.11580  0.30170  1.0000 -0.351160397
N   N2        1.0  0.54320  0.88420  0.30170  1.0000 -0.351160397
N   N3        1.0  0.88420  0.45680  0.80170  1.0000 -0.351160397
N   N4        1.0  0.11580  0.54320  0.80170  1.0000 -0.351160397
N   N5        1.0  0.54320  0.11580  0.19830  1.0000 -0.351160397
N   N6        1.0  0.45680  0.88420  0.19830  1.0000 -0.351160397
N   N7        1.0  0.11580  0.45680  0.69830  1.0000 -0.351160397
N   N8        1.0  0.88420  0.54320  0.69830  1.0000 -0.351160397
N   N9        1.0  0.54320  0.88420  0.69830  1.0000 -0.351160397
N   N10       1.0  0.45680  0.11580  0.69830  1.0000 -0.351160397
N   N11       1.0  0.11580  0.54320  0.19830  1.0000 -0.351160397
N   N12       1.0  0.88420  0.45680  0.19830  1.0000 -0.351160397
N   N13       1.0  0.45680  0.88420  0.80170  1.0000 -0.351160397
N   N14       1.0  0.54320  0.11580  0.80170  1.0000 -0.351160397
N   N15       1.0  0.88420  0.54320  0.30170  1.0000 -0.351160397
N   N16       1.0  0.11580  0.45680  0.30170  1.0000 -0.351160397
O   O1        1.0  0.56110  0.65720  0.06306  1.0000 -0.351160397
O   O2        1.0  0.43890  0.34280  0.06306  1.0000 -0.351160397
O   O3        1.0  0.34280  0.56110  0.56306  1.0000 -0.351160397
O   O4        1.0  0.65720  0.43890  0.56306  1.0000 -0.351160397
O   O5        1.0  0.43890  0.65720  0.43694  1.0000 -0.351160397
O   O6        1.0  0.56110  0.34280  0.43694  1.0000 -0.351160397
O   O7        1.0  0.65720  0.56110  0.93694  1.0000 -0.351160397
O   O8        1.0  0.34280  0.43890  0.93694  1.0000 -0.351160397
O   O9        1.0  0.43890  0.34280  0.93694  1.0000 -0.351160397
O   O10       1.0  0.56110  0.65720  0.93694  1.0000 -0.351160397
O   O11       1.0  0.65720  0.43890  0.43694  1.0000 -0.351160397
O   O12       1.0  0.34280  0.56110  0.43694  1.0000 -0.351160397
O   O13       1.0  0.56110  0.34280  0.56306  1.0000 -0.351160397
O   O14       1.0  0.43890  0.65720  0.56306  1.0000 -0.351160397
O   O15       1.0  0.34280  0.43890  0.06306  1.0000 -0.351160397
O   O16       1.0  0.65720  0.56110  0.06306  1.0000 -0.351160397
O   O17       1.0  0.69100  0.96280  0.11630  1.0000 -0.5303952394
O   O18       1.0  0.30900  0.03720  0.11630  1.0000 -0.5303952394
O   O19       1.0  0.03720  0.69100  0.61630  1.0000 -0.5303952394
O   O20       1.0  0.96280  0.30900  0.61630  1.0000 -0.5303952394
O   O21       1.0  0.30900  0.96280  0.38370  1.0000 -0.5303952394
O   O22       1.0  0.69100  0.03720  0.38370  1.0000 -0.5303952394
O   O23       1.0  0.96280  0.69100  0.88370  1.0000 -0.5303952394
O   O24       1.0  0.03720  0.30900  0.88370  1.0000 -0.5303952394
O   O25       1.0  0.30900  0.03720  0.88370  1.0000 -0.5303952394
O   O26       1.0  0.69100  0.96280  0.88370  1.0000 -0.5303952394
O   O27       1.0  0.96280  0.30900  0.38370  1.0000 -0.5303952394
O   O28       1.0  0.03720  0.69100  0.38370  1.0000 -0.5303952394
O   O29       1.0  0.69100  0.03720  0.61630  1.0000 -0.5303952394
O   O30       1.0  0.30900  0.96280  0.61630  1.0000 -0.5303952394
O   O31       1.0  0.03720  0.30900  0.11630  1.0000 -0.5303952394
O   O32       1.0  0.96280  0.69100  0.11630  1.0000 -0.5303952394
O   O33       1.0  0.58940  0.96500  0.18248  1.0000 -0.7234589013
O   O34       1.0  0.41060  0.03500  0.18248  1.0000 -0.7234589013
O   O35       1.0  0.03500  0.58940  0.68248  1.0000 -0.7234589013
O   O36       1.0  0.96500  0.41060  0.68248  1.0000 -0.7234589013
O   O37       1.0  0.41060  0.96500  0.31752  1.0000 -0.7234589013
O   O38       1.0  0.58940  0.03500  0.31752  1.0000 -0.7234589013
O   O39       1.0  0.96500  0.58940  0.81752  1.0000 -0.7234589013
O   O40       1.0  0.03500  0.41060  0.81752  1.0000 -0.7234589013
O   O41       1.0  0.41060  0.03500  0.81752  1.0000 -0.7234589013
O   O42       1.0  0.58940  0.96500  0.81752  1.0000 -0.7234589013
O   O43       1.0  0.96500  0.41060  0.31752  1.0000 -0.7234589013
O   O44       1.0  0.03500  0.58940  0.31752  1.0000 -0.7234589013
O   O45       1.0  0.58940  0.03500  0.68248  1.0000 -0.7234589013
O   O46       1.0  0.41060  0.96500  0.68248  1.0000 -0.7234589013
O   O47       1.0  0.03500  0.41060  0.18248  1.0000 -0.7234589013
O   O48       1.0  0.96500  0.58940  0.18248  1.0000 -0.7234589013
O   O49       1.0  0.69570  0.91250  0.22250  1.0000 -0.5303952394
O   O50       1.0  0.30430  0.08750  0.22250  1.0000 -0.5234451556
O   O51       1.0  0.08750  0.69570  0.72250  1.0000 -0.5234451556
O   O52       1.0  0.91250  0.30430  0.72250  1.0000 -0.5234451556
O   O53       1.0  0.30430  0.91250  0.27750  1.0000 -0.5234451556
O   O54       1.0  0.69570  0.08750  0.27750  1.0000 -0.5234451556
O   O55       1.0  0.91250  0.69570  0.77750  1.0000 -0.5234451556
O   O56       1.0  0.08750  0.30430  0.77750  1.0000 -0.5234451556
O   O57       1.0  0.30430  0.08750  0.77750  1.0000 -0.5234451556
O   O58       1.0  0.69570  0.91250  0.77750  1.0000 -0.5234451556
O   O59       1.0  0.91250  0.30430  0.27750  1.0000 -0.5234451556
O   O60       1.0  0.08750  0.69570  0.27750  1.0000 -0.5234451556
O   O61       1.0  0.69570  0.08750  0.72250  1.0000 -0.5234451556
O   O62       1.0  0.30430  0.91250  0.72250  1.0000 -0.5234451556
O   O63       1.0  0.08750  0.30430  0.22250  1.0000 -0.5234451556
O   O64       1.0  0.91250  0.69570  0.22250  1.0000 -0.5303952394
