# DDEC6 charges by PACMAN v1.1 (https://github.com/mtap-research/PACMAN-charge/)
data_2009[Zn][srs]3[FSR]3
_chemical_formula_sum              "Zn24 H192 C288 I48 N96"
_cell_length_a       13.8844
_cell_length_b       28.3579
_cell_length_c       44.8125
_cell_angle_alpha    90
_cell_angle_beta     90
_cell_angle_gamma    90

_symmetry_space_group_name_H-M    "P 1"
_symmetry_Int_Tables_number       1

loop_
  _symmetry_equiv_pos_as_xyz
  'x, y, z'

loop_
  _atom_site_type_symbol
  _atom_site_label
  _atom_site_symmetry_multiplicity
  _atom_site_fract_x
  _atom_site_fract_y
  _atom_site_fract_z
  _atom_site_occupancy
  _atom_site_charge
Zn  Zn1       1.0  0.85668  0.94916  0.58176  1.0000 0.4518859542
Zn  Zn2       1.0  0.14332  0.55084  0.08176  1.0000 0.4518859542
Zn  Zn3       1.0  0.35668  0.05084  0.91824  1.0000 0.4518859542
Zn  Zn4       1.0  0.64332  0.44916  0.41824  1.0000 0.4518859542
Zn  Zn5       1.0  0.87608  0.48022  0.58442  1.0000 0.470799497
Zn  Zn6       1.0  0.12392  0.01978  0.08442  1.0000 0.470799497
Zn  Zn7       1.0  0.37608  0.51978  0.91558  1.0000 0.470799497
Zn  Zn8       1.0  0.62392  0.98022  0.41558  1.0000 0.470799497
Zn  Zn9       1.0  0.83241  0.75992  0.31651  1.0000 0.470799497
Zn  Zn10      1.0  0.16759  0.74008  0.81651  1.0000 0.470799497
Zn  Zn11      1.0  0.33241  0.24008  0.18349  1.0000 0.470799497
Zn  Zn12      1.0  0.66759  0.25992  0.68349  1.0000 0.470799497
Zn  Zn13      1.0  0.14332  0.05084  0.41824  1.0000 0.4518859542
Zn  Zn14      1.0  0.85668  0.44916  0.91824  1.0000 0.4518859542
Zn  Zn15      1.0  0.64332  0.94916  0.08176  1.0000 0.4518859542
Zn  Zn16      1.0  0.35668  0.55084  0.58176  1.0000 0.4518859542
Zn  Zn17      1.0  0.12392  0.51978  0.41558  1.0000 0.470799497
Zn  Zn18      1.0  0.87608  0.98022  0.91558  1.0000 0.470799497
Zn  Zn19      1.0  0.62392  0.48022  0.08442  1.0000 0.470799497
Zn  Zn20      1.0  0.37608  0.01978  0.58442  1.0000 0.470799497
Zn  Zn21      1.0  0.16759  0.24008  0.68349  1.0000 0.470799497
Zn  Zn22      1.0  0.83241  0.25992  0.18349  1.0000 0.470799497
Zn  Zn23      1.0  0.66759  0.75992  0.81651  1.0000 0.470799497
Zn  Zn24      1.0  0.33241  0.74008  0.31651  1.0000 0.470799497
H   H1        1.0  0.48210  0.96280  0.46550  1.0000 0.1089542094
H   H2        1.0  0.51790  0.53720  0.96550  1.0000 0.1089542094
H   H3        1.0  0.98210  0.03720  0.03450  1.0000 0.1089542094
H   H4        1.0  0.01790  0.46280  0.53450  1.0000 0.1089542094
H   H5        1.0  0.32930  0.93390  0.47250  1.0000 0.1310170576
H   H6        1.0  0.67070  0.56610  0.97250  1.0000 0.1310170576
H   H7        1.0  0.82930  0.06610  0.02750  1.0000 0.1310170576
H   H8        1.0  0.17070  0.43390  0.52750  1.0000 0.1310170576
H   H9        1.0  0.47200  0.92700  0.38090  1.0000 0.1089542094
H   H10       1.0  0.52800  0.57300  0.88090  1.0000 0.1089542094
H   H11       1.0  0.97200  0.07300  0.11910  1.0000 0.1089542094
H   H12       1.0  0.02800  0.42700  0.61910  1.0000 0.1089542094
H   H13       1.0  0.31750  0.89810  0.38560  1.0000 0.1310170576
H   H14       1.0  0.68250  0.60190  0.88560  1.0000 0.1310170576
H   H15       1.0  0.81750  0.10190  0.11440  1.0000 0.1310170576
H   H16       1.0  0.18250  0.39810  0.61440  1.0000 0.1310170576
H   H17       1.0  0.03980  0.77940  0.33250  1.0000 0.1089542094
H   H18       1.0  0.96020  0.72060  0.83250  1.0000 0.1089542094
H   H19       1.0  0.53980  0.22060  0.16750  1.0000 0.1089542094
H   H20       1.0  0.46020  0.27940  0.66750  1.0000 0.1089542094
H   H21       1.0  0.12950  0.81830  0.36850  1.0000 0.1377326429
H   H22       1.0  0.87050  0.68170  0.86850  1.0000 0.1377326429
H   H23       1.0  0.62950  0.18170  0.13150  1.0000 0.1377326429
H   H24       1.0  0.37050  0.31830  0.63150  1.0000 0.1377326429
H   H25       1.0  0.79810  0.81870  0.36960  1.0000 0.1089542094
H   H26       1.0  0.20190  0.68130  0.86960  1.0000 0.1089542094
H   H27       1.0  0.29810  0.18130  0.13040  1.0000 0.1089542094
H   H28       1.0  0.70190  0.31870  0.63040  1.0000 0.1089542094
H   H29       1.0  0.88030  0.85780  0.40730  1.0000 0.1310170576
H   H30       1.0  0.11970  0.64220  0.90730  1.0000 0.1310170576
H   H31       1.0  0.38030  0.14220  0.09270  1.0000 0.1310170576
H   H32       1.0  0.61970  0.35780  0.59270  1.0000 0.1310170576
H   H33       1.0  0.80330  0.92220  0.51840  1.0000 0.1089542094
H   H34       1.0  0.19670  0.57780  0.01840  1.0000 0.1089542094
H   H35       1.0  0.30330  0.07780  0.98160  1.0000 0.1089542094
H   H36       1.0  0.69670  0.42220  0.48160  1.0000 0.1089542094
H   H37       1.0  0.87810  0.90280  0.47410  1.0000 0.1377326429
H   H38       1.0  0.12190  0.59720  0.97410  1.0000 0.1377326429
H   H39       1.0  0.37810  0.09720  0.02590  1.0000 0.1377326429
H   H40       1.0  0.62190  0.40280  0.52590  1.0000 0.1377326429
H   H41       1.0  0.04870  0.96680  0.55260  1.0000 0.1089542094
H   H42       1.0  0.95130  0.53320  0.05260  1.0000 0.1089542094
H   H43       1.0  0.54870  0.03320  0.94740  1.0000 0.1089542094
H   H44       1.0  0.45130  0.46680  0.44740  1.0000 0.1089542094
H   H45       1.0  0.12950  0.94690  0.50920  1.0000 0.1310170576
H   H46       1.0  0.87050  0.55310  0.00920  1.0000 0.1310170576
H   H47       1.0  0.62950  0.05310  0.99080  1.0000 0.1310170576
H   H48       1.0  0.37050  0.44690  0.49080  1.0000 0.1310170576
H   H49       1.0  0.93340  0.91270  0.63980  1.0000 0.1000045875
H   H50       1.0  0.06660  0.58730  0.13980  1.0000 0.1000045875
H   H51       1.0  0.43340  0.08730  0.86020  1.0000 0.1000045875
H   H52       1.0  0.56660  0.41270  0.36020  1.0000 0.1000045875
H   H53       1.0  0.96090  0.84330  0.66450  1.0000 0.1310170576
H   H54       1.0  0.03910  0.65670  0.16450  1.0000 0.1310170576
H   H55       1.0  0.46090  0.15670  0.83550  1.0000 0.1310170576
H   H56       1.0  0.53910  0.34330  0.33550  1.0000 0.1310170576
H   H57       1.0  0.87070  0.84440  0.56540  1.0000 0.1089542094
H   H58       1.0  0.12930  0.65560  0.06540  1.0000 0.1000045875
H   H59       1.0  0.37070  0.15560  0.93460  1.0000 0.1089542094
H   H60       1.0  0.62930  0.34440  0.43460  1.0000 0.1089542094
H   H61       1.0  0.90030  0.77240  0.58840  1.0000 0.1377326429
H   H62       1.0  0.09970  0.72760  0.08840  1.0000 0.1377326429
H   H63       1.0  0.40030  0.22760  0.91160  1.0000 0.1377326429
H   H64       1.0  0.59970  0.27240  0.41160  1.0000 0.1377326429
H   H65       1.0  0.89400  0.58370  0.56840  1.0000 0.1089542094
H   H66       1.0  0.10600  0.91630  0.06840  1.0000 0.1089542094
H   H67       1.0  0.39400  0.41630  0.93160  1.0000 0.1089542094
H   H68       1.0  0.60600  0.08370  0.43160  1.0000 0.1089542094
H   H69       1.0  0.91310  0.65630  0.59090  1.0000 0.1310170576
H   H70       1.0  0.08690  0.84370  0.09090  1.0000 0.1310170576
H   H71       1.0  0.41310  0.34370  0.90910  1.0000 0.1310170576
H   H72       1.0  0.58690  0.15630  0.40910  1.0000 0.1310170576
H   H73       1.0  0.93730  0.51850  0.64450  1.0000 0.1089542094
H   H74       1.0  0.06270  0.98150  0.14450  1.0000 0.1089542094
H   H75       1.0  0.43730  0.48150  0.85550  1.0000 0.1089542094
H   H76       1.0  0.56270  0.01850  0.35550  1.0000 0.1089542094
H   H77       1.0  0.95980  0.58950  0.66870  1.0000 0.1310170576
H   H78       1.0  0.04020  0.91050  0.16870  1.0000 0.1310170576
H   H79       1.0  0.45980  0.41050  0.83130  1.0000 0.1310170576
H   H80       1.0  0.54020  0.08950  0.33130  1.0000 0.1310170576
H   H81       1.0  0.10970  0.66300  0.77460  1.0000 0.1161226972
H   H82       1.0  0.89030  0.83700  0.27460  1.0000 0.1161226972
H   H83       1.0  0.60970  0.33700  0.72540  1.0000 0.1161226972
H   H84       1.0  0.39030  0.16300  0.22540  1.0000 0.1161226972
H   H85       1.0  0.04870  0.65310  0.72750  1.0000 0.1377326429
H   H86       1.0  0.95130  0.84690  0.22750  1.0000 0.1377326429
H   H87       1.0  0.54870  0.34690  0.77250  1.0000 0.1377326429
H   H88       1.0  0.45130  0.15310  0.27250  1.0000 0.1377326429
H   H89       1.0  0.05700  0.79910  0.77250  1.0000 0.1089542094
H   H90       1.0  0.94300  0.70090  0.27250  1.0000 0.1089542094
H   H91       1.0  0.55700  0.20090  0.72750  1.0000 0.1089542094
H   H92       1.0  0.44300  0.29910  0.22750  1.0000 0.1089542094
H   H93       1.0  0.99710  0.79330  0.72390  1.0000 0.1310170576
H   H94       1.0  0.00290  0.70670  0.22390  1.0000 0.1310170576
H   H95       1.0  0.49710  0.20670  0.77610  1.0000 0.1310170576
H   H96       1.0  0.50290  0.29330  0.27610  1.0000 0.1310170576
H   H97       1.0  0.51790  0.03720  0.53450  1.0000 0.1089542094
H   H98       1.0  0.48210  0.46280  0.03450  1.0000 0.1089542094
H   H99       1.0  0.01790  0.96280  0.96550  1.0000 0.1089542094
H   H100      1.0  0.98210  0.53720  0.46550  1.0000 0.1089542094
H   H101      1.0  0.67070  0.06610  0.52750  1.0000 0.1310170576
H   H102      1.0  0.32930  0.43390  0.02750  1.0000 0.1310170576
H   H103      1.0  0.17070  0.93390  0.97250  1.0000 0.1310170576
H   H104      1.0  0.82930  0.56610  0.47250  1.0000 0.1310170576
H   H105      1.0  0.52800  0.07300  0.61910  1.0000 0.1089542094
H   H106      1.0  0.47200  0.42700  0.11910  1.0000 0.1089542094
H   H107      1.0  0.02800  0.92700  0.88090  1.0000 0.1089542094
H   H108      1.0  0.97200  0.57300  0.38090  1.0000 0.1089542094
H   H109      1.0  0.68250  0.10190  0.61440  1.0000 0.1310170576
H   H110      1.0  0.31750  0.39810  0.11440  1.0000 0.1310170576
H   H111      1.0  0.18250  0.89810  0.88560  1.0000 0.1310170576
H   H112      1.0  0.81750  0.60190  0.38560  1.0000 0.1310170576
H   H113      1.0  0.96020  0.22060  0.66750  1.0000 0.1089542094
H   H114      1.0  0.03980  0.27940  0.16750  1.0000 0.1089542094
H   H115      1.0  0.46020  0.77940  0.83250  1.0000 0.1089542094
H   H116      1.0  0.53980  0.72060  0.33250  1.0000 0.1089542094
H   H117      1.0  0.87050  0.18170  0.63150  1.0000 0.1377326429
H   H118      1.0  0.12950  0.31830  0.13150  1.0000 0.1377326429
H   H119      1.0  0.37050  0.81830  0.86850  1.0000 0.1377326429
H   H120      1.0  0.62950  0.68170  0.36850  1.0000 0.1377326429
H   H121      1.0  0.20190  0.18130  0.63040  1.0000 0.1089542094
H   H122      1.0  0.79810  0.31870  0.13040  1.0000 0.1089542094
H   H123      1.0  0.70190  0.81870  0.86960  1.0000 0.1089542094
H   H124      1.0  0.29810  0.68130  0.36960  1.0000 0.1089542094
H   H125      1.0  0.11970  0.14220  0.59270  1.0000 0.1310170576
H   H126      1.0  0.88030  0.35780  0.09270  1.0000 0.1310170576
H   H127      1.0  0.61970  0.85780  0.90730  1.0000 0.1310170576
H   H128      1.0  0.38030  0.64220  0.40730  1.0000 0.1310170576
H   H129      1.0  0.19670  0.07780  0.48160  1.0000 0.1089542094
H   H130      1.0  0.80330  0.42220  0.98160  1.0000 0.1089542094
H   H131      1.0  0.69670  0.92220  0.01840  1.0000 0.1089542094
H   H132      1.0  0.30330  0.57780  0.51840  1.0000 0.1089542094
H   H133      1.0  0.12190  0.09720  0.52590  1.0000 0.1377326429
H   H134      1.0  0.87810  0.40280  0.02590  1.0000 0.1377326429
H   H135      1.0  0.62190  0.90280  0.97410  1.0000 0.1377326429
H   H136      1.0  0.37810  0.59720  0.47410  1.0000 0.1377326429
H   H137      1.0  0.95130  0.03320  0.44740  1.0000 0.1089542094
H   H138      1.0  0.04870  0.46680  0.94740  1.0000 0.1089542094
H   H139      1.0  0.45130  0.96680  0.05260  1.0000 0.1089542094
H   H140      1.0  0.54870  0.53320  0.55260  1.0000 0.1089542094
H   H141      1.0  0.87050  0.05310  0.49080  1.0000 0.1310170576
H   H142      1.0  0.12950  0.44690  0.99080  1.0000 0.1310170576
H   H143      1.0  0.37050  0.94690  0.00920  1.0000 0.1310170576
H   H144      1.0  0.62950  0.55310  0.50920  1.0000 0.1310170576
H   H145      1.0  0.06660  0.08730  0.36020  1.0000 0.1000045875
H   H146      1.0  0.93340  0.41270  0.86020  1.0000 0.1000045875
H   H147      1.0  0.56660  0.91270  0.13980  1.0000 0.1000045875
H   H148      1.0  0.43340  0.58730  0.63980  1.0000 0.1000045875
H   H149      1.0  0.03910  0.15670  0.33550  1.0000 0.1310170576
H   H150      1.0  0.96090  0.34330  0.83550  1.0000 0.1310170576
H   H151      1.0  0.53910  0.84330  0.16450  1.0000 0.1310170576
H   H152      1.0  0.46090  0.65670  0.66450  1.0000 0.1310170576
H   H153      1.0  0.12930  0.15560  0.43460  1.0000 0.1000045875
H   H154      1.0  0.87070  0.34440  0.93460  1.0000 0.1089542094
H   H155      1.0  0.62930  0.84440  0.06540  1.0000 0.1089542094
H   H156      1.0  0.37070  0.65560  0.56540  1.0000 0.1089542094
H   H157      1.0  0.09970  0.22760  0.41160  1.0000 0.1377326429
H   H158      1.0  0.90030  0.27240  0.91160  1.0000 0.1377326429
H   H159      1.0  0.59970  0.77240  0.08840  1.0000 0.1377326429
H   H160      1.0  0.40030  0.72760  0.58840  1.0000 0.1377326429
H   H161      1.0  0.10600  0.41630  0.43160  1.0000 0.1089542094
H   H162      1.0  0.89400  0.08370  0.93160  1.0000 0.1089542094
H   H163      1.0  0.60600  0.58370  0.06840  1.0000 0.1089542094
H   H164      1.0  0.39400  0.91630  0.56840  1.0000 0.1089542094
H   H165      1.0  0.08690  0.34370  0.40910  1.0000 0.1310170576
H   H166      1.0  0.91310  0.15630  0.90910  1.0000 0.1310170576
H   H167      1.0  0.58690  0.65630  0.09090  1.0000 0.1310170576
H   H168      1.0  0.41310  0.84370  0.59090  1.0000 0.1310170576
H   H169      1.0  0.06270  0.48150  0.35550  1.0000 0.1089542094
H   H170      1.0  0.93730  0.01850  0.85550  1.0000 0.1089542094
H   H171      1.0  0.56270  0.51850  0.14450  1.0000 0.1089542094
H   H172      1.0  0.43730  0.98150  0.64450  1.0000 0.1089542094
H   H173      1.0  0.04020  0.41050  0.33130  1.0000 0.1310170576
H   H174      1.0  0.95980  0.08950  0.83130  1.0000 0.1310170576
H   H175      1.0  0.54020  0.58950  0.16870  1.0000 0.1310170576
H   H176      1.0  0.45980  0.91050  0.66870  1.0000 0.1310170576
H   H177      1.0  0.89030  0.33700  0.22540  1.0000 0.1161226972
H   H178      1.0  0.10970  0.16300  0.72540  1.0000 0.1161226972
H   H179      1.0  0.39030  0.66300  0.27460  1.0000 0.1161226972
H   H180      1.0  0.60970  0.83700  0.77460  1.0000 0.1161226972
H   H181      1.0  0.95130  0.34690  0.27250  1.0000 0.1377326429
H   H182      1.0  0.04870  0.15310  0.77250  1.0000 0.1377326429
H   H183      1.0  0.45130  0.65310  0.22750  1.0000 0.1377326429
H   H184      1.0  0.54870  0.84690  0.72750  1.0000 0.1377326429
H   H185      1.0  0.94300  0.20090  0.22750  1.0000 0.1089542094
H   H186      1.0  0.05700  0.29910  0.72750  1.0000 0.1089542094
H   H187      1.0  0.44300  0.79910  0.27250  1.0000 0.1089542094
H   H188      1.0  0.55700  0.70090  0.77250  1.0000 0.1089542094
H   H189      1.0  0.00290  0.20670  0.27610  1.0000 0.1310170576
H   H190      1.0  0.99710  0.29330  0.77610  1.0000 0.1310170576
H   H191      1.0  0.50290  0.79330  0.22390  1.0000 0.1310170576
H   H192      1.0  0.49710  0.70670  0.72390  1.0000 0.1310170576
C   C1        1.0  0.44830  0.94970  0.44898  1.0000 0.0792279113
C   C2        1.0  0.55170  0.55030  0.94898  1.0000 0.0792279113
C   C3        1.0  0.94830  0.05030  0.05102  1.0000 0.0792279113
C   C4        1.0  0.05170  0.44970  0.55102  1.0000 0.0792279113
C   C5        1.0  0.35730  0.93310  0.45319  1.0000 -0.1289923877
C   C6        1.0  0.64270  0.56690  0.95319  1.0000 -0.1289923877
C   C7        1.0  0.85730  0.06690  0.04681  1.0000 -0.1289923877
C   C8        1.0  0.14270  0.43310  0.54681  1.0000 -0.1289923877
C   C9        1.0  0.44140  0.92880  0.39981  1.0000 0.0792279113
C   C10       1.0  0.55860  0.57120  0.89981  1.0000 0.0792279113
C   C11       1.0  0.94140  0.07120  0.10019  1.0000 0.0792279113
C   C12       1.0  0.05860  0.42880  0.60019  1.0000 0.0792279113
C   C13       1.0  0.34980  0.91180  0.40216  1.0000 -0.1210282215
C   C14       1.0  0.65020  0.58820  0.90216  1.0000 -0.1210282215
C   C15       1.0  0.84980  0.08820  0.09784  1.0000 -0.1210282215
C   C16       1.0  0.15020  0.41180  0.59784  1.0000 -0.1210282215
C   C17       1.0  0.30620  0.91540  0.42985  1.0000 0.0611348468
C   C18       1.0  0.69380  0.58460  0.92985  1.0000 0.0611348468
C   C19       1.0  0.80620  0.08460  0.07015  1.0000 0.0611348468
C   C20       1.0  0.19380  0.41540  0.57015  1.0000 0.0611348468
C   C21       1.0  0.20310  0.90120  0.43328  1.0000 0.38711309
C   C22       1.0  0.79690  0.59880  0.93328  1.0000 0.38711309
C   C23       1.0  0.70310  0.09880  0.06672  1.0000 0.38711309
C   C24       1.0  0.29690  0.40120  0.56672  1.0000 0.38711309
C   C25       1.0  0.00700  0.79600  0.34782  1.0000 0.0885716782
C   C26       1.0  0.99300  0.70400  0.84782  1.0000 0.0885716782
C   C27       1.0  0.50700  0.20400  0.15218  1.0000 0.0885716782
C   C28       1.0  0.49300  0.29600  0.65218  1.0000 0.0885716782
C   C29       1.0  0.06110  0.81890  0.36929  1.0000 -0.1289923877
C   C30       1.0  0.93890  0.68110  0.86929  1.0000 -0.1289923877
C   C31       1.0  0.56110  0.18110  0.13071  1.0000 -0.1289923877
C   C32       1.0  0.43890  0.31890  0.63071  1.0000 -0.1289923877
C   C33       1.0  0.86660  0.81870  0.36943  1.0000 0.0885716782
C   C34       1.0  0.13340  0.68130  0.86943  1.0000 0.0885716782
C   C35       1.0  0.36660  0.18130  0.13057  1.0000 0.0885716782
C   C36       1.0  0.63340  0.31870  0.63057  1.0000 0.0885716782
C   C37       1.0  0.91500  0.84210  0.39197  1.0000 -0.1210282215
C   C38       1.0  0.08500  0.65790  0.89197  1.0000 -0.1210282215
C   C39       1.0  0.41500  0.15790  0.10803  1.0000 -0.1210282215
C   C40       1.0  0.58500  0.34210  0.60803  1.0000 -0.1210282215
C   C41       1.0  0.01440  0.84240  0.39181  1.0000 0.0611348468
C   C42       1.0  0.98560  0.65760  0.89181  1.0000 0.0611348468
C   C43       1.0  0.51440  0.15760  0.10819  1.0000 0.0611348468
C   C44       1.0  0.48560  0.34240  0.60819  1.0000 0.0611348468
C   C45       1.0  0.06730  0.86800  0.41571  1.0000 0.38711309
C   C46       1.0  0.93270  0.63200  0.91571  1.0000 0.3821807187
C   C47       1.0  0.56730  0.13200  0.08429  1.0000 0.38711309
C   C48       1.0  0.43270  0.36800  0.58429  1.0000 0.3821807187
C   C49       1.0  0.87090  0.92660  0.51669  1.0000 0.0728002019
C   C50       1.0  0.12910  0.57340  0.01669  1.0000 0.0728002019
C   C51       1.0  0.37090  0.07340  0.98331  1.0000 0.0728002019
C   C52       1.0  0.62910  0.42660  0.48331  1.0000 0.0728002019
C   C53       1.0  0.91480  0.91480  0.49030  1.0000 -0.1483979413
C   C54       1.0  0.08520  0.58520  0.99030  1.0000 -0.1442725454
C   C55       1.0  0.41480  0.08520  0.00970  1.0000 -0.1442725454
C   C56       1.0  0.58520  0.41480  0.50970  1.0000 -0.1442725454
C   C57       1.0  0.01410  0.95250  0.53670  1.0000 0.0728002019
C   C58       1.0  0.98590  0.54750  0.03670  1.0000 0.0728002019
C   C59       1.0  0.51410  0.04750  0.96330  1.0000 0.0728002019
C   C60       1.0  0.48590  0.45250  0.46330  1.0000 0.0728002019
C   C61       1.0  0.06240  0.94080  0.51084  1.0000 -0.1289923877
C   C62       1.0  0.93760  0.55920  0.01084  1.0000 -0.1289923877
C   C63       1.0  0.56240  0.05920  0.98916  1.0000 -0.1289923877
C   C64       1.0  0.43760  0.44080  0.48916  1.0000 -0.1289923877
C   C65       1.0  0.01430  0.92070  0.48758  1.0000 0.0455772995
C   C66       1.0  0.98570  0.57930  0.98758  1.0000 0.0446048236
C   C67       1.0  0.51430  0.07930  0.01242  1.0000 0.0455772995
C   C68       1.0  0.48570  0.42070  0.51242  1.0000 0.0446048236
C   C69       1.0  0.06530  0.90540  0.46047  1.0000 0.3821807187
C   C70       1.0  0.93470  0.59460  0.96047  1.0000 0.3821807187
C   C71       1.0  0.56530  0.09460  0.03953  1.0000 0.3821807187
C   C72       1.0  0.43470  0.40540  0.53953  1.0000 0.3821807187
C   C73       1.0  0.92560  0.88390  0.62932  1.0000 0.0885716782
C   C74       1.0  0.07440  0.61610  0.12932  1.0000 0.0885716782
C   C75       1.0  0.42560  0.11610  0.87068  1.0000 0.0885716782
C   C76       1.0  0.57440  0.38390  0.37068  1.0000 0.0885716782
C   C77       1.0  0.94220  0.84260  0.64408  1.0000 -0.162347451
C   C78       1.0  0.05780  0.65740  0.14408  1.0000 -0.162347451
C   C79       1.0  0.44220  0.15740  0.85592  1.0000 -0.162347451
C   C80       1.0  0.55780  0.34260  0.35592  1.0000 -0.162347451
C   C81       1.0  0.88940  0.84410  0.58582  1.0000 0.0792279113
C   C82       1.0  0.11060  0.65590  0.08582  1.0000 0.0792279113
C   C83       1.0  0.38940  0.15590  0.91418  1.0000 0.0792279113
C   C84       1.0  0.61060  0.34410  0.41418  1.0000 0.0792279113
C   C85       1.0  0.90620  0.80090  0.59939  1.0000 -0.162347451
C   C86       1.0  0.09380  0.69910  0.09939  1.0000 -0.162347451
C   C87       1.0  0.40620  0.19910  0.90061  1.0000 -0.162347451
C   C88       1.0  0.59380  0.30090  0.40061  1.0000 -0.162347451
C   C89       1.0  0.93200  0.80000  0.62962  1.0000 0.0611348468
C   C90       1.0  0.06800  0.70000  0.12962  1.0000 0.0611348468
C   C91       1.0  0.43200  0.20000  0.87038  1.0000 0.0611348468
C   C92       1.0  0.56800  0.30000  0.37038  1.0000 0.0611348468
C   C93       1.0  0.94660  0.75550  0.64571  1.0000 0.3602723187
C   C94       1.0  0.05340  0.74450  0.14571  1.0000 0.3602723187
C   C95       1.0  0.44660  0.24450  0.85429  1.0000 0.3602723187
C   C96       1.0  0.55340  0.25550  0.35429  1.0000 0.3602723187
C   C97       1.0  0.90560  0.58460  0.58926  1.0000 0.1000045875
C   C98       1.0  0.09440  0.91540  0.08926  1.0000 0.1000045875
C   C99       1.0  0.40560  0.41540  0.91074  1.0000 0.1000045875
C   C100      1.0  0.59440  0.08460  0.41074  1.0000 0.1000045875
C   C101      1.0  0.91790  0.62830  0.60246  1.0000 -0.1442725454
C   C102      1.0  0.08210  0.87170  0.10246  1.0000 -0.1442725454
C   C103      1.0  0.41790  0.37170  0.89754  1.0000 -0.1483979413
C   C104      1.0  0.58210  0.12830  0.39754  1.0000 -0.1442725454
C   C105      1.0  0.93110  0.54690  0.63350  1.0000 0.0728002019
C   C106      1.0  0.06890  0.95310  0.13350  1.0000 0.0728002019
C   C107      1.0  0.43110  0.45310  0.86650  1.0000 0.0728002019
C   C108      1.0  0.56890  0.04690  0.36650  1.0000 0.0728002019
C   C109      1.0  0.94490  0.58910  0.64803  1.0000 -0.1483979413
C   C110      1.0  0.05510  0.91090  0.14803  1.0000 -0.1483979413
C   C111      1.0  0.44490  0.41090  0.85197  1.0000 -0.1483979413
C   C112      1.0  0.55510  0.08910  0.35197  1.0000 -0.1483979413
C   C113      1.0  0.93710  0.63060  0.63265  1.0000 0.0611348468
C   C114      1.0  0.06290  0.86940  0.13265  1.0000 0.0611348468
C   C115      1.0  0.43710  0.36940  0.86735  1.0000 0.0611348468
C   C116      1.0  0.56290  0.13060  0.36735  1.0000 0.0611348468
C   C117      1.0  0.95010  0.67650  0.64753  1.0000 0.3706496048
C   C118      1.0  0.04990  0.82350  0.14753  1.0000 0.3706496048
C   C119      1.0  0.45010  0.32350  0.85247  1.0000 0.3706496048
C   C120      1.0  0.54990  0.17650  0.35247  1.0000 0.3706496048
C   C121      1.0  0.08680  0.68980  0.76406  1.0000 0.0792279113
C   C122      1.0  0.91320  0.81020  0.26406  1.0000 0.0792279113
C   C123      1.0  0.58680  0.31020  0.73594  1.0000 0.0792279113
C   C124      1.0  0.41320  0.18980  0.23594  1.0000 0.0728002019
C   C125      1.0  0.05110  0.68360  0.73617  1.0000 -0.162347451
C   C126      1.0  0.94890  0.81640  0.23617  1.0000 -0.1702652161
C   C127      1.0  0.55110  0.31640  0.76383  1.0000 -0.1702652161
C   C128      1.0  0.44890  0.18360  0.26383  1.0000 -0.162347451
C   C129      1.0  0.05680  0.76920  0.76289  1.0000 0.1089542094
C   C130      1.0  0.94320  0.73080  0.26289  1.0000 0.1089542094
C   C131      1.0  0.55680  0.23080  0.73711  1.0000 0.1089542094
C   C132      1.0  0.44320  0.26920  0.23711  1.0000 0.1089542094
C   C133      1.0  0.02010  0.76600  0.73396  1.0000 -0.1483979413
C   C134      1.0  0.97990  0.73400  0.23396  1.0000 -0.1483979413
C   C135      1.0  0.52010  0.23400  0.76604  1.0000 -0.1483979413
C   C136      1.0  0.47990  0.26600  0.26604  1.0000 -0.1483979413
C   C137      1.0  0.01780  0.72310  0.72043  1.0000 0.0792279113
C   C138      1.0  0.98220  0.77690  0.22043  1.0000 0.0792279113
C   C139      1.0  0.51780  0.27690  0.77957  1.0000 0.0792279113
C   C140      1.0  0.48220  0.22310  0.27957  1.0000 0.0792279113
C   C141      1.0  0.98570  0.71900  0.68803  1.0000 0.3706496048
C   C142      1.0  0.01430  0.78100  0.18803  1.0000 0.3706496048
C   C143      1.0  0.48570  0.28100  0.81197  1.0000 0.3706496048
C   C144      1.0  0.51430  0.21900  0.31197  1.0000 0.3706496048
C   C145      1.0  0.55170  0.05030  0.55102  1.0000 0.0792279113
C   C146      1.0  0.44830  0.44970  0.05102  1.0000 0.0792279113
C   C147      1.0  0.05170  0.94970  0.94898  1.0000 0.0792279113
C   C148      1.0  0.94830  0.55030  0.44898  1.0000 0.0792279113
C   C149      1.0  0.64270  0.06690  0.54681  1.0000 -0.1289923877
C   C150      1.0  0.35730  0.43310  0.04681  1.0000 -0.1289923877
C   C151      1.0  0.14270  0.93310  0.95319  1.0000 -0.1289923877
C   C152      1.0  0.85730  0.56690  0.45319  1.0000 -0.1289923877
C   C153      1.0  0.55860  0.07120  0.60019  1.0000 0.0792279113
C   C154      1.0  0.44140  0.42880  0.10019  1.0000 0.0792279113
C   C155      1.0  0.05860  0.92880  0.89981  1.0000 0.0792279113
C   C156      1.0  0.94140  0.57120  0.39981  1.0000 0.0792279113
C   C157      1.0  0.65020  0.08820  0.59784  1.0000 -0.1210282215
C   C158      1.0  0.34980  0.41180  0.09784  1.0000 -0.1210282215
C   C159      1.0  0.15020  0.91180  0.90216  1.0000 -0.1210282215
C   C160      1.0  0.84980  0.58820  0.40216  1.0000 -0.1210282215
C   C161      1.0  0.69380  0.08460  0.57015  1.0000 0.0611348468
C   C162      1.0  0.30620  0.41540  0.07015  1.0000 0.0611348468
C   C163      1.0  0.19380  0.91540  0.92985  1.0000 0.0611348468
C   C164      1.0  0.80620  0.58460  0.42985  1.0000 0.0611348468
C   C165      1.0  0.79690  0.09880  0.56672  1.0000 0.38711309
C   C166      1.0  0.20310  0.40120  0.06672  1.0000 0.38711309
C   C167      1.0  0.29690  0.90120  0.93328  1.0000 0.38711309
C   C168      1.0  0.70310  0.59880  0.43328  1.0000 0.38711309
C   C169      1.0  0.99300  0.20400  0.65218  1.0000 0.0885716782
C   C170      1.0  0.00700  0.29600  0.15218  1.0000 0.0885716782
C   C171      1.0  0.49300  0.79600  0.84782  1.0000 0.0885716782
C   C172      1.0  0.50700  0.70400  0.34782  1.0000 0.0885716782
C   C173      1.0  0.93890  0.18110  0.63071  1.0000 -0.1289923877
C   C174      1.0  0.06110  0.31890  0.13071  1.0000 -0.1289923877
C   C175      1.0  0.43890  0.81890  0.86929  1.0000 -0.1289923877
C   C176      1.0  0.56110  0.68110  0.36929  1.0000 -0.1289923877
C   C177      1.0  0.13340  0.18130  0.63057  1.0000 0.0885716782
C   C178      1.0  0.86660  0.31870  0.13057  1.0000 0.0885716782
C   C179      1.0  0.63340  0.81870  0.86943  1.0000 0.0885716782
C   C180      1.0  0.36660  0.68130  0.36943  1.0000 0.0885716782
C   C181      1.0  0.08500  0.15790  0.60803  1.0000 -0.1210282215
C   C182      1.0  0.91500  0.34210  0.10803  1.0000 -0.1210282215
C   C183      1.0  0.58500  0.84210  0.89197  1.0000 -0.1210282215
C   C184      1.0  0.41500  0.65790  0.39197  1.0000 -0.1210282215
C   C185      1.0  0.98560  0.15760  0.60819  1.0000 0.0611348468
C   C186      1.0  0.01440  0.34240  0.10819  1.0000 0.0611348468
C   C187      1.0  0.48560  0.84240  0.89181  1.0000 0.0611348468
C   C188      1.0  0.51440  0.65760  0.39181  1.0000 0.0611348468
C   C189      1.0  0.93270  0.13200  0.58429  1.0000 0.3821807187
C   C190      1.0  0.06730  0.36800  0.08429  1.0000 0.38711309
C   C191      1.0  0.43270  0.86800  0.91571  1.0000 0.3821807187
C   C192      1.0  0.56730  0.63200  0.41571  1.0000 0.38711309
C   C193      1.0  0.12910  0.07340  0.48331  1.0000 0.0728002019
C   C194      1.0  0.87090  0.42660  0.98331  1.0000 0.0728002019
C   C195      1.0  0.62910  0.92660  0.01669  1.0000 0.0728002019
C   C196      1.0  0.37090  0.57340  0.51669  1.0000 0.0728002019
C   C197      1.0  0.08520  0.08520  0.50970  1.0000 -0.1442725454
C   C198      1.0  0.91480  0.41480  0.00970  1.0000 -0.1483979413
C   C199      1.0  0.58520  0.91480  0.99030  1.0000 -0.1442725454
C   C200      1.0  0.41480  0.58520  0.49030  1.0000 -0.1442725454
C   C201      1.0  0.98590  0.04750  0.46330  1.0000 0.0728002019
C   C202      1.0  0.01410  0.45250  0.96330  1.0000 0.0728002019
C   C203      1.0  0.48590  0.95250  0.03670  1.0000 0.0728002019
C   C204      1.0  0.51410  0.54750  0.53670  1.0000 0.0728002019
C   C205      1.0  0.93760  0.05920  0.48916  1.0000 -0.1289923877
C   C206      1.0  0.06240  0.44080  0.98916  1.0000 -0.1289923877
C   C207      1.0  0.43760  0.94080  0.01084  1.0000 -0.1289923877
C   C208      1.0  0.56240  0.55920  0.51084  1.0000 -0.1289923877
C   C209      1.0  0.98570  0.07930  0.51242  1.0000 0.0446048236
C   C210      1.0  0.01430  0.42070  0.01242  1.0000 0.0455772995
C   C211      1.0  0.48570  0.92070  0.98758  1.0000 0.0446048236
C   C212      1.0  0.51430  0.57930  0.48758  1.0000 0.0446048236
C   C213      1.0  0.93470  0.09460  0.53953  1.0000 0.3821807187
C   C214      1.0  0.06530  0.40540  0.03953  1.0000 0.3821807187
C   C215      1.0  0.43470  0.90540  0.96047  1.0000 0.3821807187
C   C216      1.0  0.56530  0.59460  0.46047  1.0000 0.3821807187
C   C217      1.0  0.07440  0.11610  0.37068  1.0000 0.0885716782
C   C218      1.0  0.92560  0.38390  0.87068  1.0000 0.0885716782
C   C219      1.0  0.57440  0.88390  0.12932  1.0000 0.0885716782
C   C220      1.0  0.42560  0.61610  0.62932  1.0000 0.0885716782
C   C221      1.0  0.05780  0.15740  0.35592  1.0000 -0.162347451
C   C222      1.0  0.94220  0.34260  0.85592  1.0000 -0.162347451
C   C223      1.0  0.55780  0.84260  0.14408  1.0000 -0.162347451
C   C224      1.0  0.44220  0.65740  0.64408  1.0000 -0.162347451
C   C225      1.0  0.11060  0.15590  0.41418  1.0000 0.0792279113
C   C226      1.0  0.88940  0.34410  0.91418  1.0000 0.0792279113
C   C227      1.0  0.61060  0.84410  0.08582  1.0000 0.0792279113
C   C228      1.0  0.38940  0.65590  0.58582  1.0000 0.0792279113
C   C229      1.0  0.09380  0.19910  0.40061  1.0000 -0.162347451
C   C230      1.0  0.90620  0.30090  0.90061  1.0000 -0.162347451
C   C231      1.0  0.59380  0.80090  0.09939  1.0000 -0.162347451
C   C232      1.0  0.40620  0.69910  0.59939  1.0000 -0.162347451
C   C233      1.0  0.06800  0.20000  0.37038  1.0000 0.0611348468
C   C234      1.0  0.93200  0.30000  0.87038  1.0000 0.0611348468
C   C235      1.0  0.56800  0.80000  0.12962  1.0000 0.0611348468
C   C236      1.0  0.43200  0.70000  0.62962  1.0000 0.0611348468
C   C237      1.0  0.05340  0.24450  0.35429  1.0000 0.3602723187
C   C238      1.0  0.94660  0.25550  0.85429  1.0000 0.3602723187
C   C239      1.0  0.55340  0.75550  0.14571  1.0000 0.3602723187
C   C240      1.0  0.44660  0.74450  0.64571  1.0000 0.3602723187
C   C241      1.0  0.09440  0.41540  0.41074  1.0000 0.1000045875
C   C242      1.0  0.90560  0.08460  0.91074  1.0000 0.1000045875
C   C243      1.0  0.59440  0.58460  0.08926  1.0000 0.1000045875
C   C244      1.0  0.40560  0.91540  0.58926  1.0000 0.1000045875
C   C245      1.0  0.08210  0.37170  0.39754  1.0000 -0.1442725454
C   C246      1.0  0.91790  0.12830  0.89754  1.0000 -0.1442725454
C   C247      1.0  0.58210  0.62830  0.10246  1.0000 -0.1442725454
C   C248      1.0  0.41790  0.87170  0.60246  1.0000 -0.1483979413
C   C249      1.0  0.06890  0.45310  0.36650  1.0000 0.0728002019
C   C250      1.0  0.93110  0.04690  0.86650  1.0000 0.0728002019
C   C251      1.0  0.56890  0.54690  0.13350  1.0000 0.0728002019
C   C252      1.0  0.43110  0.95310  0.63350  1.0000 0.0728002019
C   C253      1.0  0.05510  0.41090  0.35197  1.0000 -0.1483979413
C   C254      1.0  0.94490  0.08910  0.85197  1.0000 -0.1483979413
C   C255      1.0  0.55510  0.58910  0.14803  1.0000 -0.1483979413
C   C256      1.0  0.44490  0.91090  0.64803  1.0000 -0.1483979413
C   C257      1.0  0.06290  0.36940  0.36735  1.0000 0.0611348468
C   C258      1.0  0.93710  0.13060  0.86735  1.0000 0.0611348468
C   C259      1.0  0.56290  0.63060  0.13265  1.0000 0.0611348468
C   C260      1.0  0.43710  0.86940  0.63265  1.0000 0.0611348468
C   C261      1.0  0.04990  0.32350  0.35247  1.0000 0.3706496048
C   C262      1.0  0.95010  0.17650  0.85247  1.0000 0.3706496048
C   C263      1.0  0.54990  0.67650  0.14753  1.0000 0.3706496048
C   C264      1.0  0.45010  0.82350  0.64753  1.0000 0.3706496048
C   C265      1.0  0.91320  0.31020  0.23594  1.0000 0.0792279113
C   C266      1.0  0.08680  0.18980  0.73594  1.0000 0.0792279113
C   C267      1.0  0.41320  0.68980  0.26406  1.0000 0.0728002019
C   C268      1.0  0.58680  0.81020  0.76406  1.0000 0.0792279113
C   C269      1.0  0.94890  0.31640  0.26383  1.0000 -0.1702652161
C   C270      1.0  0.05110  0.18360  0.76383  1.0000 -0.162347451
C   C271      1.0  0.44890  0.68360  0.23617  1.0000 -0.1702652161
C   C272      1.0  0.55110  0.81640  0.73617  1.0000 -0.1702652161
C   C273      1.0  0.94320  0.23080  0.23711  1.0000 0.1089542094
C   C274      1.0  0.05680  0.26920  0.73711  1.0000 0.1089542094
C   C275      1.0  0.44320  0.76920  0.26289  1.0000 0.1089542094
C   C276      1.0  0.55680  0.73080  0.76289  1.0000 0.1089542094
C   C277      1.0  0.97990  0.23400  0.26604  1.0000 -0.1483979413
C   C278      1.0  0.02010  0.26600  0.76604  1.0000 -0.1483979413
C   C279      1.0  0.47990  0.76600  0.23396  1.0000 -0.1483979413
C   C280      1.0  0.52010  0.73400  0.73396  1.0000 -0.1483979413
C   C281      1.0  0.98220  0.27690  0.27957  1.0000 0.0792279113
C   C282      1.0  0.01780  0.22310  0.77957  1.0000 0.0792279113
C   C283      1.0  0.48220  0.72310  0.22043  1.0000 0.0792279113
C   C284      1.0  0.51780  0.77690  0.72043  1.0000 0.0792279113
C   C285      1.0  0.01430  0.28100  0.31197  1.0000 0.3706496048
C   C286      1.0  0.98570  0.21900  0.81197  1.0000 0.3706496048
C   C287      1.0  0.51430  0.71900  0.18803  1.0000 0.3706496048
C   C288      1.0  0.48570  0.78100  0.68803  1.0000 0.3706496048
I   I1        1.0  0.94419  0.01281  0.61118  1.0000 -0.4397937972
I   I2        1.0  0.05581  0.48719  0.11118  1.0000 -0.4397937972
I   I3        1.0  0.44419  0.98719  0.88882  1.0000 -0.4397937972
I   I4        1.0  0.55581  0.51281  0.38882  1.0000 -0.4397937972
I   I5        1.0  0.67469  0.94316  0.57654  1.0000 -0.4397937972
I   I6        1.0  0.32531  0.55684  0.07654  1.0000 -0.4397937972
I   I7        1.0  0.17469  0.05684  0.92346  1.0000 -0.4397937972
I   I8        1.0  0.82531  0.44316  0.42346  1.0000 -0.4397937972
I   I9        1.0  0.80546  0.49733  0.53266  1.0000 -0.471116476
I   I10       1.0  0.19454  0.00267  0.03266  1.0000 -0.471116476
I   I11       1.0  0.30546  0.50267  0.96734  1.0000 -0.471116476
I   I12       1.0  0.69454  0.99733  0.46734  1.0000 -0.471116476
I   I13       1.0  0.78288  0.43337  0.62299  1.0000 -0.4397937972
I   I14       1.0  0.21712  0.06663  0.12299  1.0000 -0.4397937972
I   I15       1.0  0.28288  0.56663  0.87701  1.0000 -0.4397937972
I   I16       1.0  0.71712  0.93337  0.37701  1.0000 -0.4397937972
I   I17       1.0  0.83030  0.67325  0.33159  1.0000 -0.4629191005
I   I18       1.0  0.16970  0.82675  0.83159  1.0000 -0.4629191005
I   I19       1.0  0.33030  0.32675  0.16841  1.0000 -0.4629191005
I   I20       1.0  0.66970  0.17325  0.66841  1.0000 -0.4629191005
I   I21       1.0  0.67223  0.80299  0.30944  1.0000 -0.4756030604
I   I22       1.0  0.32777  0.69701  0.80944  1.0000 -0.471116476
I   I23       1.0  0.17223  0.19701  0.19056  1.0000 -0.4756030604
I   I24       1.0  0.82777  0.30299  0.69056  1.0000 -0.4756030604
I   I25       1.0  0.05581  0.98719  0.38882  1.0000 -0.4397937972
I   I26       1.0  0.94419  0.51281  0.88882  1.0000 -0.4397937972
I   I27       1.0  0.55581  0.01281  0.11118  1.0000 -0.4397937972
I   I28       1.0  0.44419  0.48719  0.61118  1.0000 -0.4397937972
I   I29       1.0  0.32531  0.05684  0.42346  1.0000 -0.4397937972
I   I30       1.0  0.67469  0.44316  0.92346  1.0000 -0.4397937972
I   I31       1.0  0.82531  0.94316  0.07654  1.0000 -0.4397937972
I   I32       1.0  0.17469  0.55684  0.57654  1.0000 -0.4397937972
I   I33       1.0  0.19454  0.50267  0.46734  1.0000 -0.471116476
I   I34       1.0  0.80546  0.99733  0.96734  1.0000 -0.471116476
I   I35       1.0  0.69454  0.49733  0.03266  1.0000 -0.471116476
I   I36       1.0  0.30546  0.00267  0.53266  1.0000 -0.471116476
I   I37       1.0  0.21712  0.56663  0.37701  1.0000 -0.4397937972
I   I38       1.0  0.78288  0.93337  0.87701  1.0000 -0.4397937972
I   I39       1.0  0.71712  0.43337  0.12299  1.0000 -0.4397937972
I   I40       1.0  0.28288  0.06663  0.62299  1.0000 -0.4397937972
I   I41       1.0  0.16970  0.32675  0.66841  1.0000 -0.4629191005
I   I42       1.0  0.83030  0.17325  0.16841  1.0000 -0.4629191005
I   I43       1.0  0.66970  0.67325  0.83159  1.0000 -0.4629191005
I   I44       1.0  0.33030  0.82675  0.33159  1.0000 -0.4629191005
I   I45       1.0  0.32777  0.19701  0.69056  1.0000 -0.4756030604
I   I46       1.0  0.67223  0.30299  0.19056  1.0000 -0.4756030604
I   I47       1.0  0.82777  0.80299  0.80944  1.0000 -0.4756030604
I   I48       1.0  0.17223  0.69701  0.30944  1.0000 -0.4756030604
N   N1        1.0  0.49140  0.94800  0.42244  1.0000 -0.1702652161
N   N2        1.0  0.50860  0.55200  0.92244  1.0000 -0.1802459541
N   N3        1.0  0.99140  0.05200  0.07756  1.0000 -0.1702652161
N   N4        1.0  0.00860  0.44800  0.57756  1.0000 -0.1702652161
N   N5        1.0  0.91230  0.79620  0.34756  1.0000 -0.1802459541
N   N6        1.0  0.08770  0.70380  0.84756  1.0000 -0.1802459541
N   N7        1.0  0.41230  0.20380  0.15244  1.0000 -0.1802459541
N   N8        1.0  0.58770  0.29620  0.65244  1.0000 -0.1802459541
N   N9        1.0  0.91920  0.94410  0.54016  1.0000 -0.1802459541
N   N10       1.0  0.08080  0.55590  0.04016  1.0000 -0.1802459541
N   N11       1.0  0.41920  0.05590  0.95984  1.0000 -0.1802459541
N   N12       1.0  0.58080  0.44410  0.45984  1.0000 -0.1802459541
N   N13       1.0  0.16140  0.87570  0.41148  1.0000 -0.3741870255
N   N14       1.0  0.83860  0.62430  0.91148  1.0000 -0.3741870255
N   N15       1.0  0.66140  0.12430  0.08852  1.0000 -0.3741870255
N   N16       1.0  0.33860  0.37570  0.58852  1.0000 -0.3741870255
N   N17       1.0  0.01610  0.88120  0.43980  1.0000 -0.395431965
N   N18       1.0  0.98390  0.61880  0.93980  1.0000 -0.3948437267
N   N19       1.0  0.51610  0.11880  0.06020  1.0000 -0.395431965
N   N20       1.0  0.48390  0.38120  0.56020  1.0000 -0.395431965
N   N21       1.0  0.15870  0.91650  0.45824  1.0000 -0.3833825657
N   N22       1.0  0.84130  0.58350  0.95824  1.0000 -0.3833825657
N   N23       1.0  0.65870  0.08350  0.04176  1.0000 -0.3833825657
N   N24       1.0  0.34130  0.41650  0.54176  1.0000 -0.3833825657
N   N25       1.0  0.89830  0.88540  0.60010  1.0000 -0.1914625013
N   N26       1.0  0.10170  0.61460  0.10010  1.0000 -0.1914625013
N   N27       1.0  0.39830  0.11460  0.89990  1.0000 -0.1914625013
N   N28       1.0  0.60170  0.38540  0.39990  1.0000 -0.1914625013
N   N29       1.0  0.90890  0.54430  0.60367  1.0000 -0.1802459541
N   N30       1.0  0.09110  0.95570  0.10367  1.0000 -0.1802459541
N   N31       1.0  0.40890  0.45570  0.89633  1.0000 -0.1802459541
N   N32       1.0  0.59110  0.04430  0.39633  1.0000 -0.1802459541
N   N33       1.0  0.09140  0.73210  0.77762  1.0000 -0.1802459541
N   N34       1.0  0.90860  0.76790  0.27762  1.0000 -0.1802459541
N   N35       1.0  0.59140  0.26790  0.72238  1.0000 -0.1802459541
N   N36       1.0  0.40860  0.23210  0.22238  1.0000 -0.1802459541
N   N37       1.0  0.93420  0.71500  0.63114  1.0000 -0.4203856711
N   N38       1.0  0.06580  0.78500  0.13114  1.0000 -0.4203856711
N   N39       1.0  0.43420  0.28500  0.86886  1.0000 -0.4203856711
N   N40       1.0  0.56580  0.21500  0.36886  1.0000 -0.4203856711
N   N41       1.0  0.97530  0.67590  0.67673  1.0000 -0.4203856711
N   N42       1.0  0.02470  0.82410  0.17673  1.0000 -0.4203856711
N   N43       1.0  0.47530  0.32410  0.82327  1.0000 -0.4203856711
N   N44       1.0  0.52470  0.17590  0.32327  1.0000 -0.4203856711
N   N45       1.0  0.97250  0.76000  0.67437  1.0000 -0.4129656845
N   N46       1.0  0.02750  0.74000  0.17437  1.0000 -0.4129656845
N   N47       1.0  0.47250  0.24000  0.82563  1.0000 -0.4129656845
N   N48       1.0  0.52750  0.26000  0.32563  1.0000 -0.4129656845
N   N49       1.0  0.50860  0.05200  0.57756  1.0000 -0.1802459541
N   N50       1.0  0.49140  0.44800  0.07756  1.0000 -0.1702652161
N   N51       1.0  0.00860  0.94800  0.92244  1.0000 -0.1702652161
N   N52       1.0  0.99140  0.55200  0.42244  1.0000 -0.1702652161
N   N53       1.0  0.08770  0.20380  0.65244  1.0000 -0.1802459541
N   N54       1.0  0.91230  0.29620  0.15244  1.0000 -0.1802459541
N   N55       1.0  0.58770  0.79620  0.84756  1.0000 -0.1802459541
N   N56       1.0  0.41230  0.70380  0.34756  1.0000 -0.1802459541
N   N57       1.0  0.08080  0.05590  0.45984  1.0000 -0.1802459541
N   N58       1.0  0.91920  0.44410  0.95984  1.0000 -0.1802459541
N   N59       1.0  0.58080  0.94410  0.04016  1.0000 -0.1802459541
N   N60       1.0  0.41920  0.55590  0.54016  1.0000 -0.1802459541
N   N61       1.0  0.83860  0.12430  0.58852  1.0000 -0.3741870255
N   N62       1.0  0.16140  0.37570  0.08852  1.0000 -0.3741870255
N   N63       1.0  0.33860  0.87570  0.91148  1.0000 -0.3741870255
N   N64       1.0  0.66140  0.62430  0.41148  1.0000 -0.3741870255
N   N65       1.0  0.98390  0.11880  0.56020  1.0000 -0.3948437267
N   N66       1.0  0.01610  0.38120  0.06020  1.0000 -0.3948437267
N   N67       1.0  0.48390  0.88120  0.93980  1.0000 -0.395431965
N   N68       1.0  0.51610  0.61880  0.43980  1.0000 -0.395431965
N   N69       1.0  0.84130  0.08350  0.54176  1.0000 -0.3833825657
N   N70       1.0  0.15870  0.41650  0.04176  1.0000 -0.3833825657
N   N71       1.0  0.34130  0.91650  0.95824  1.0000 -0.3833825657
N   N72       1.0  0.65870  0.58350  0.45824  1.0000 -0.3833825657
N   N73       1.0  0.10170  0.11460  0.39990  1.0000 -0.1914625013
N   N74       1.0  0.89830  0.38540  0.89990  1.0000 -0.1914625013
N   N75       1.0  0.60170  0.88540  0.10010  1.0000 -0.1914625013
N   N76       1.0  0.39830  0.61460  0.60010  1.0000 -0.1914625013
N   N77       1.0  0.09110  0.45570  0.39633  1.0000 -0.1802459541
N   N78       1.0  0.90890  0.04430  0.89633  1.0000 -0.1802459541
N   N79       1.0  0.59110  0.54430  0.10367  1.0000 -0.1802459541
N   N80       1.0  0.40890  0.95570  0.60367  1.0000 -0.1802459541
N   N81       1.0  0.90860  0.26790  0.22238  1.0000 -0.1802459541
N   N82       1.0  0.09140  0.23210  0.72238  1.0000 -0.1802459541
N   N83       1.0  0.40860  0.73210  0.27762  1.0000 -0.1802459541
N   N84       1.0  0.59140  0.76790  0.77762  1.0000 -0.1802459541
N   N85       1.0  0.06580  0.28500  0.36886  1.0000 -0.4203856711
N   N86       1.0  0.93420  0.21500  0.86886  1.0000 -0.4203856711
N   N87       1.0  0.56580  0.71500  0.13114  1.0000 -0.4203856711
N   N88       1.0  0.43420  0.78500  0.63114  1.0000 -0.4203856711
N   N89       1.0  0.02470  0.32410  0.32327  1.0000 -0.4203856711
N   N90       1.0  0.97530  0.17590  0.82327  1.0000 -0.4203856711
N   N91       1.0  0.52470  0.67590  0.17673  1.0000 -0.4203856711
N   N92       1.0  0.47530  0.82410  0.67673  1.0000 -0.4203856711
N   N93       1.0  0.02750  0.24000  0.32563  1.0000 -0.4129656845
N   N94       1.0  0.97250  0.26000  0.82563  1.0000 -0.4129656845
N   N95       1.0  0.52750  0.76000  0.17437  1.0000 -0.4129656845
N   N96       1.0  0.47250  0.74000  0.67437  1.0000 -0.4129656845
