# DDEC6 charges by PACMAN v1.1 (https://github.com/mtap-research/PACMAN-charge/)
data_2009[Zn][dia]3[FSR]1
_chemical_formula_sum              "Zn4 H48 C72 N40"
_cell_length_a       6.7186
_cell_length_b       17.082
_cell_length_c       17.352
_cell_angle_alpha    90
_cell_angle_beta     98.77
_cell_angle_gamma    90

_symmetry_space_group_name_H-M    "P 1"
_symmetry_Int_Tables_number       1

loop_
  _symmetry_equiv_pos_as_xyz
  'x, y, z'

loop_
  _atom_site_type_symbol
  _atom_site_label
  _atom_site_symmetry_multiplicity
  _atom_site_fract_x
  _atom_site_fract_y
  _atom_site_fract_z
  _atom_site_occupancy
  _atom_site_charge
Zn  Zn1       1.0  0.27804  0.51831  0.29612  1.0000 0.5603392059
Zn  Zn2       1.0  0.72196  0.01831  0.20388  1.0000 0.5603392059
Zn  Zn3       1.0  0.72196  0.48169  0.70388  1.0000 0.5603392059
Zn  Zn4       1.0  0.27804  0.98169  0.79612  1.0000 0.5603392059
H   H1        1.0  0.64070  0.55040  0.21880  1.0000 0.1094921601
H   H2        1.0  0.35930  0.05040  0.28120  1.0000 0.1094921601
H   H3        1.0  0.35930  0.44960  0.78120  1.0000 0.1094921601
H   H4        1.0  0.64070  0.94960  0.71880  1.0000 0.1094921601
H   H5        1.0  0.73480  0.54580  0.09700  1.0000 0.1387015665
H   H6        1.0  0.26520  0.04580  0.40300  1.0000 0.1387015665
H   H7        1.0  0.26520  0.45420  0.90300  1.0000 0.1387015665
H   H8        1.0  0.73480  0.95420  0.59700  1.0000 0.1387015665
H   H9        1.0  0.18380  0.46110  0.01260  1.0000 0.1387015665
H   H10       1.0  0.81620  0.96110  0.48740  1.0000 0.1387015665
H   H11       1.0  0.81620  0.53890  0.98740  1.0000 0.1387015665
H   H12       1.0  0.18380  0.03890  0.51260  1.0000 0.1387015665
H   H13       1.0  0.10030  0.46990  0.13600  1.0000 0.1094921601
H   H14       1.0  0.89970  0.96990  0.36400  1.0000 0.1094921601
H   H15       1.0  0.89970  0.53010  0.86400  1.0000 0.1094921601
H   H16       1.0  0.10030  0.03010  0.63600  1.0000 0.1094921601
H   H17       1.0  0.50060  0.40180  0.40770  1.0000 0.0991304638
H   H18       1.0  0.49940  0.90180  0.09230  1.0000 0.0991304638
H   H19       1.0  0.49940  0.59820  0.59230  1.0000 0.0991304638
H   H20       1.0  0.50060  0.09820  0.90770  1.0000 0.0991304638
H   H21       1.0  0.80720  0.39040  0.48780  1.0000 0.1319856728
H   H22       1.0  0.19280  0.89040  0.01220  1.0000 0.1319856728
H   H23       1.0  0.19280  0.60960  0.51220  1.0000 0.1319856728
H   H24       1.0  0.80720  0.10960  0.98780  1.0000 0.1319856728
H   H25       1.0  0.90940  0.61950  0.44940  1.0000 0.1319856728
H   H26       1.0  0.09060  0.11950  0.05060  1.0000 0.1319856728
H   H27       1.0  0.09060  0.38050  0.55060  1.0000 0.1319856728
H   H28       1.0  0.90940  0.88050  0.94940  1.0000 0.1319856728
H   H29       1.0  0.60200  0.62440  0.36910  1.0000 0.0991304638
H   H30       1.0  0.39800  0.12440  0.13090  1.0000 0.0991304638
H   H31       1.0  0.39800  0.37560  0.63090  1.0000 0.0991304638
H   H32       1.0  0.60200  0.87560  0.86910  1.0000 0.0991304638
H   H33       1.0  0.59770  0.36430  0.16600  1.0000 0.1094921601
H   H34       1.0  0.40230  0.86430  0.33400  1.0000 0.1094921601
H   H35       1.0  0.40230  0.63570  0.83400  1.0000 0.1094921601
H   H36       1.0  0.59770  0.13570  0.66600  1.0000 0.1094921601
H   H37       1.0  0.66690  0.24780  0.37190  1.0000 0.1189369122
H   H38       1.0  0.33310  0.74780  0.12810  1.0000 0.1189369122
H   H39       1.0  0.33310  0.75220  0.62810  1.0000 0.1189369122
H   H40       1.0  0.66690  0.25220  0.87190  1.0000 0.1189369122
H   H41       1.0  0.35000  0.19060  0.33710  1.0000 0.1094921601
H   H42       1.0  0.65000  0.69060  0.16290  1.0000 0.1094921601
H   H43       1.0  0.65000  0.80940  0.66290  1.0000 0.1094921601
H   H44       1.0  0.35000  0.30940  0.83710  1.0000 0.1094921601
H   H45       1.0  0.28440  0.30540  0.13030  1.0000 0.1094921601
H   H46       1.0  0.71560  0.80540  0.36970  1.0000 0.1094921601
H   H47       1.0  0.71560  0.69460  0.86970  1.0000 0.1094921601
H   H48       1.0  0.28440  0.19460  0.63030  1.0000 0.1094921601
C   C1        1.0  0.54580  0.53264  0.17615  1.0000 0.0868769894
C   C2        1.0  0.45420  0.03264  0.32385  1.0000 0.0868769894
C   C3        1.0  0.45420  0.46736  0.82385  1.0000 0.0868769894
C   C4        1.0  0.54580  0.96736  0.67615  1.0000 0.0868769894
C   C5        1.0  0.60330  0.52945  0.10358  1.0000 -0.1910541719
C   C6        1.0  0.39670  0.02945  0.39642  1.0000 -0.1910541719
C   C7        1.0  0.39670  0.47055  0.89642  1.0000 -0.1910541719
C   C8        1.0  0.60330  0.97055  0.60358  1.0000 -0.1910541719
C   C9        1.0  0.47120  0.50252  0.03962  1.0000 0.1094921601
C   C10       1.0  0.52880  0.00252  0.46038  1.0000 0.1094921601
C   C11       1.0  0.52880  0.49748  0.96038  1.0000 0.1094921601
C   C12       1.0  0.47120  0.99748  0.53962  1.0000 0.1094921601
C   C13       1.0  0.28030  0.48010  0.05408  1.0000 -0.1984034171
C   C14       1.0  0.71970  0.98010  0.44592  1.0000 -0.1984034171
C   C15       1.0  0.71970  0.51990  0.94592  1.0000 -0.1984034171
C   C16       1.0  0.28030  0.01990  0.55408  1.0000 -0.1984034171
C   C17       1.0  0.23130  0.48541  0.12784  1.0000 0.0688964278
C   C18       1.0  0.76870  0.98541  0.37216  1.0000 0.0688964278
C   C19       1.0  0.76870  0.51459  0.87216  1.0000 0.0688964278
C   C20       1.0  0.23130  0.01459  0.62784  1.0000 0.0688964278
C   C21       1.0  0.58660  0.44615  0.41528  1.0000 0.0756202909
C   C22       1.0  0.41340  0.94615  0.08472  1.0000 0.0756202909
C   C23       1.0  0.41340  0.55385  0.58472  1.0000 0.0756202909
C   C24       1.0  0.58660  0.05385  0.91528  1.0000 0.0756202909
C   C25       1.0  0.76950  0.43908  0.46336  1.0000 -0.1722384905
C   C26       1.0  0.23050  0.93908  0.03664  1.0000 -0.1722384905
C   C27       1.0  0.23050  0.56092  0.53664  1.0000 -0.1722384905
C   C28       1.0  0.76950  0.06092  0.96336  1.0000 -0.1722384905
C   C29       1.0  0.89880  0.50311  0.47605  1.0000 0.1189369122
C   C30       1.0  0.10120  0.00311  0.02395  1.0000 0.1189369122
C   C31       1.0  0.10120  0.49689  0.52395  1.0000 0.1189369122
C   C32       1.0  0.89880  0.99689  0.97605  1.0000 0.1189369122
C   C33       1.0  0.82980  0.57347  0.44067  1.0000 -0.1722384905
C   C34       1.0  0.17020  0.07347  0.05933  1.0000 -0.1722384905
C   C35       1.0  0.17020  0.42653  0.55933  1.0000 -0.1722384905
C   C36       1.0  0.82980  0.92653  0.94067  1.0000 -0.1722384905
C   C37       1.0  0.64570  0.57610  0.39294  1.0000 0.0688964278
C   C38       1.0  0.35430  0.07610  0.10706  1.0000 0.0688964278
C   C39       1.0  0.35430  0.42390  0.60706  1.0000 0.0688964278
C   C40       1.0  0.64570  0.92390  0.89294  1.0000 0.0688964278
C   C41       1.0  0.85870  0.35007  0.29717  1.0000 0.2257690588
C   C42       1.0  0.14130  0.85007  0.20283  1.0000 0.2257690588
C   C43       1.0  0.14130  0.64993  0.70283  1.0000 0.2257690588
C   C44       1.0  0.85870  0.14993  0.79717  1.0000 0.2257690588
C   C45       1.0  0.66310  0.31187  0.27274  1.0000 0.0408881969
C   C46       1.0  0.33690  0.81187  0.22726  1.0000 0.0408881969
C   C47       1.0  0.33690  0.68813  0.72726  1.0000 0.0408881969
C   C48       1.0  0.66310  0.18813  0.77274  1.0000 0.0408881969
C   C49       1.0  0.54790  0.32879  0.20065  1.0000 -0.11105539
C   C50       1.0  0.45210  0.82879  0.29935  1.0000 -0.11105539
C   C51       1.0  0.45210  0.67121  0.79935  1.0000 -0.11105539
C   C52       1.0  0.54790  0.17121  0.70065  1.0000 -0.11105539
C   C53       1.0  0.58870  0.25989  0.32301  1.0000 -0.11105539
C   C54       1.0  0.41130  0.75989  0.17699  1.0000 -0.11105539
C   C55       1.0  0.41130  0.74011  0.67699  1.0000 -0.11105539
C   C56       1.0  0.58870  0.24011  0.82301  1.0000 -0.11105539
C   C57       1.0  0.09150  0.20307  0.20639  1.0000 0.2229570197
C   C58       1.0  0.90850  0.70307  0.29361  1.0000 0.2229570197
C   C59       1.0  0.90850  0.79693  0.79361  1.0000 0.2229570197
C   C60       1.0  0.09150  0.29693  0.70639  1.0000 0.2229570197
C   C61       1.0  0.28650  0.24244  0.22985  1.0000 0.0408881969
C   C62       1.0  0.71350  0.74244  0.27015  1.0000 0.0408881969
C   C63       1.0  0.71350  0.75756  0.77015  1.0000 0.0408881969
C   C64       1.0  0.28650  0.25756  0.72985  1.0000 0.0408881969
C   C65       1.0  0.40080  0.22555  0.30219  1.0000 -0.1213789423
C   C66       1.0  0.59920  0.72555  0.19781  1.0000 -0.1213789423
C   C67       1.0  0.59920  0.77445  0.69781  1.0000 -0.1213789423
C   C68       1.0  0.40080  0.27445  0.80219  1.0000 -0.1213789423
C   C69       1.0  0.36150  0.29395  0.17959  1.0000 -0.1213789423
C   C70       1.0  0.63850  0.79395  0.32041  1.0000 -0.1213789423
C   C71       1.0  0.63850  0.70605  0.82041  1.0000 -0.1213789423
C   C72       1.0  0.36150  0.20605  0.67959  1.0000 -0.1213789423
N   N1        1.0  0.36200  0.51188  0.18944  1.0000 -0.1984034171
N   N2        1.0  0.63800  0.01188  0.31056  1.0000 -0.1984034171
N   N3        1.0  0.63800  0.48812  0.81056  1.0000 -0.1984034171
N   N4        1.0  0.36200  0.98812  0.68944  1.0000 -0.1984034171
N   N5        1.0  0.52550  0.51320  0.37879  1.0000 -0.2160888081
N   N6        1.0  0.47450  0.01320  0.12121  1.0000 -0.2160888081
N   N7        1.0  0.47450  0.48680  0.62121  1.0000 -0.2160888081
N   N8        1.0  0.52550  0.98680  0.87879  1.0000 -0.2160888081
N   N9        1.0  0.09950  0.42917  0.30878  1.0000 -0.0613744585
N   N10       1.0  0.90050  0.92917  0.19122  1.0000 -0.0613744585
N   N11       1.0  0.90050  0.57083  0.69122  1.0000 -0.0613744585
N   N12       1.0  0.09950  0.07083  0.80878  1.0000 -0.0613744585
N   N13       1.0  0.14450  0.37608  0.36381  1.0000 -0.0819944953
N   N14       1.0  0.85550  0.87608  0.13619  1.0000 -0.0819944953
N   N15       1.0  0.85550  0.62392  0.63619  1.0000 -0.0819944953
N   N16       1.0  0.14450  0.12392  0.86381  1.0000 -0.0819944953
N   N17       1.0  0.99400  0.32474  0.35766  1.0000 -0.2682770555
N   N18       1.0  0.00600  0.82474  0.14234  1.0000 -0.2682770555
N   N19       1.0  0.00600  0.67526  0.64234  1.0000 -0.2682770555
N   N20       1.0  0.99400  0.17526  0.85766  1.0000 -0.2682770555
N   N21       1.0  0.92050  0.41476  0.26520  1.0000 -0.287624768
N   N22       1.0  0.07950  0.91476  0.23480  1.0000 -0.287624768
N   N23       1.0  0.07950  0.58524  0.73480  1.0000 -0.287624768
N   N24       1.0  0.92050  0.08524  0.76520  1.0000 -0.287624768
N   N25       1.0  0.85850  0.12003  0.19413  1.0000 -0.0613744585
N   N26       1.0  0.14150  0.62003  0.30587  1.0000 -0.0613744585
N   N27       1.0  0.14150  0.87997  0.80587  1.0000 -0.0613744585
N   N28       1.0  0.85850  0.37997  0.69413  1.0000 -0.0613744585
N   N29       1.0  0.80370  0.17532  0.14189  1.0000 -0.0889836168
N   N30       1.0  0.19630  0.67532  0.35811  1.0000 -0.0889836168
N   N31       1.0  0.19630  0.82468  0.85811  1.0000 -0.0889836168
N   N32       1.0  0.80370  0.32468  0.64189  1.0000 -0.0889836168
N   N33       1.0  0.94990  0.22891  0.14851  1.0000 -0.2750449246
N   N34       1.0  0.05010  0.72891  0.35149  1.0000 -0.2750449246
N   N35       1.0  0.05010  0.77109  0.85149  1.0000 -0.2750449246
N   N36       1.0  0.94990  0.27109  0.64851  1.0000 -0.2750449246
N   N37       1.0  0.03920  0.13557  0.23589  1.0000 -0.287624768
N   N38       1.0  0.96080  0.63557  0.26411  1.0000 -0.287624768
N   N39       1.0  0.96080  0.86443  0.76411  1.0000 -0.287624768
N   N40       1.0  0.03920  0.36443  0.73589  1.0000 -0.287624768
