# DDEC6 charges by PACMAN v1.1 (https://github.com/mtap-research/PACMAN-charge/)
data_2009[Fe][cds]3[FSR]1
_chemical_formula_sum              "Fe2 H24 C24 N4 O10"
_cell_length_a       11.3817
_cell_length_b       11.3817
_cell_length_c       8.1256
_cell_angle_alpha    84.3293
_cell_angle_beta     95.6707
_cell_angle_gamma    54.9499

_symmetry_space_group_name_H-M    "P 1"
_symmetry_Int_Tables_number       1

loop_
  _symmetry_equiv_pos_as_xyz
  'x, y, z'

loop_
  _atom_site_type_symbol
  _atom_site_label
  _atom_site_symmetry_multiplicity
  _atom_site_fract_x
  _atom_site_fract_y
  _atom_site_fract_z
  _atom_site_occupancy
  _atom_site_charge
Fe  Fe1       1.0  0.24779  0.24441  0.35798  1.0000 0.8033164344
Fe  Fe2       1.0  0.75559  0.75221  0.85798  1.0000 0.8033164344
H   H1        1.0  0.50750  0.94990  0.57270  1.0000 0.084502717
H   H2        1.0  0.05010  0.49250  0.07270  1.0000 0.084502717
H   H3        1.0  0.29430  0.25450  0.73140  1.0000 0.090367164
H   H4        1.0  0.74550  0.70570  0.23140  1.0000 0.090367164
H   H5        1.0  0.43150  0.93690  0.27550  1.0000 0.090367164
H   H6        1.0  0.06310  0.56850  0.77550  1.0000 0.090367164
H   H7        1.0  0.43640  0.73380  0.26940  1.0000 0.1211123145
H   H8        1.0  0.26620  0.56360  0.76940  1.0000 0.1211123145
H   H9        1.0  0.06720  0.93140  0.45250  1.0000 0.1294332769
H   H10       1.0  0.06860  0.93280  0.95250  1.0000 0.1294332769
H   H11       1.0  0.07420  0.12800  0.45550  1.0000 0.1211123145
H   H12       1.0  0.87200  0.92580  0.95550  1.0000 0.1211123145
H   H13       1.0  0.44520  0.54380  0.29100  1.0000 0.1294332769
H   H14       1.0  0.45620  0.55480  0.79100  1.0000 0.1294332769
H   H15       1.0  0.43690  0.34790  0.29040  1.0000 0.1061578295
H   H16       1.0  0.65210  0.56310  0.79040  1.0000 0.1061578295
H   H17       1.0  0.04590  0.76770  0.40680  1.0000 0.1294332769
H   H18       1.0  0.23230  0.95410  0.90680  1.0000 0.1294332769
H   H19       1.0  0.05180  0.56360  0.40620  1.0000 0.090367164
H   H20       1.0  0.43640  0.94820  0.90620  1.0000 0.090367164
H   H21       1.0  0.29600  0.18800  0.05800  1.0000 0.329509636
H   H22       1.0  0.81200  0.70400  0.55800  1.0000 0.329509636
H   H23       1.0  0.40860  0.19260  0.12900  1.0000 0.3230494759
H   H24       1.0  0.80740  0.59140  0.62900  1.0000 0.3230494759
C   C1        1.0  0.53256  0.01216  0.59510  1.0000 0.4552877448
C   C2        1.0  0.98784  0.46744  0.09510  1.0000 0.4552877448
C   C3        1.0  0.20479  0.26839  0.71680  1.0000 0.4279841385
C   C4        1.0  0.73161  0.79521  0.21680  1.0000 0.4279841385
C   C5        1.0  0.35687  0.93607  0.31130  1.0000 0.0306260041
C   C6        1.0  0.06393  0.64313  0.81130  1.0000 0.0306260041
C   C7        1.0  0.36035  0.81315  0.30670  1.0000 -0.2064587572
C   C8        1.0  0.18685  0.63965  0.80670  1.0000 -0.2064587572
C   C9        1.0  0.25046  0.80826  0.35760  1.0000 0.0985160614
C   C10       1.0  0.19174  0.74954  0.85760  1.0000 0.0985160614
C   C11       1.0  0.14267  0.92967  0.41500  1.0000 -0.1993759968
C   C12       1.0  0.07033  0.85733  0.91500  1.0000 -0.1993759968
C   C13       1.0  0.14756  0.04796  0.41630  1.0000 0.090367164
C   C14       1.0  0.95204  0.85244  0.91630  1.0000 0.090367164
C   C15       1.0  0.24711  0.68011  0.35210  1.0000 0.0985160614
C   C16       1.0  0.31989  0.75289  0.85210  1.0000 0.0985160614
C   C17       1.0  0.36343  0.55083  0.31540  1.0000 -0.1993759968
C   C18       1.0  0.44917  0.63657  0.81540  1.0000 -0.1993759968
C   C19       1.0  0.35773  0.43313  0.31530  1.0000 0.0677895746
C   C20       1.0  0.56687  0.64227  0.81530  1.0000 0.0677895746
C   C21       1.0  0.12780  0.68320  0.38430  1.0000 -0.1993759968
C   C22       1.0  0.31680  0.87220  0.88430  1.0000 -0.1993759968
C   C23       1.0  0.13218  0.55978  0.38260  1.0000 0.0425809413
C   C24       1.0  0.44022  0.86782  0.88260  1.0000 0.0425809413
N   N1        1.0  0.24416  0.43536  0.34910  1.0000 -0.2531068684
N   N2        1.0  0.56464  0.75584  0.84910  1.0000 -0.2531068684
N   N3        1.0  0.25247  0.05347  0.36400  1.0000 -0.2531068684
N   N4        1.0  0.94653  0.74753  0.86400  1.0000 -0.2531068684
O   O1        1.0  0.45679  0.13779  0.50770  1.0000 -0.4924063333
O   O2        1.0  0.86221  0.54321  0.00770  1.0000 -0.4924063333
O   O3        1.0  0.63902  0.96322  0.70980  1.0000 -0.4481742778
O   O4        1.0  0.03678  0.36098  0.20980  1.0000 -0.4481742778
O   O5        1.0  0.14647  0.28567  0.56830  1.0000 -0.4924063333
O   O6        1.0  0.71433  0.85353  0.06830  1.0000 -0.4924063333
O   O7        1.0  0.15598  0.26778  0.84340  1.0000 -0.4754968383
O   O8        1.0  0.73222  0.84402  0.34340  1.0000 -0.4754968383
O   O9        1.0  0.33029  0.20669  0.13670  1.0000 -0.6405454674
O   O10       1.0  0.79331  0.66971  0.63670  1.0000 -0.6405454674
