# DDEC6 charges by PACMAN v1.1 (https://github.com/mtap-research/PACMAN-charge/)
data_2009[Cd][nuc]3[FSR]6
_chemical_formula_sum              "Cd4 H144 C192 N48"
_cell_length_a       15.884
_cell_length_b       15.884
_cell_length_c       21.44
_cell_angle_alpha    90
_cell_angle_beta     90
_cell_angle_gamma    90

_symmetry_space_group_name_H-M    "P 1"
_symmetry_Int_Tables_number       1

loop_
  _symmetry_equiv_pos_as_xyz
  'x, y, z'

loop_
  _atom_site_type_symbol
  _atom_site_label
  _atom_site_symmetry_multiplicity
  _atom_site_fract_x
  _atom_site_fract_y
  _atom_site_fract_z
  _atom_site_occupancy
  _atom_site_charge
Cd  Cd1       1.0  0.44041  0.44041  0.00000  1.0000 0.6439313684
Cd  Cd2       1.0  0.55959  0.55959  0.50000  1.0000 0.6439313684
Cd  Cd3       1.0  0.05959  0.94041  0.75000  1.0000 0.6439313684
Cd  Cd4       1.0  0.94041  0.05959  0.25000  1.0000 0.6439313684
H   H1        1.0  0.93970  0.84140  0.84190  1.0000 0.1008129434
H   H2        1.0  0.06030  0.15860  0.34190  1.0000 0.1008129434
H   H3        1.0  0.65860  0.43970  0.59190  1.0000 0.1008129434
H   H4        1.0  0.34140  0.56030  0.09190  1.0000 0.1008129434
H   H5        1.0  0.56030  0.34140  0.90810  1.0000 0.1008129434
H   H6        1.0  0.43970  0.65860  0.40810  1.0000 0.1008129434
H   H7        1.0  0.84140  0.93970  0.15810  1.0000 0.1008129434
H   H8        1.0  0.15860  0.06030  0.65810  1.0000 0.1008129434
H   H9        1.0  0.84650  0.73510  0.85720  1.0000 0.1268838067
H   H10       1.0  0.15350  0.26490  0.35720  1.0000 0.1268838067
H   H11       1.0  0.76490  0.34650  0.60720  1.0000 0.1268838067
H   H12       1.0  0.23510  0.65350  0.10720  1.0000 0.1268838067
H   H13       1.0  0.65350  0.23510  0.89280  1.0000 0.1268838067
H   H14       1.0  0.34650  0.76490  0.39280  1.0000 0.1268838067
H   H15       1.0  0.73510  0.84650  0.14280  1.0000 0.1268838067
H   H16       1.0  0.26490  0.15350  0.64280  1.0000 0.1268838067
H   H17       1.0  0.90220  0.64980  0.68720  1.0000 0.1219511125
H   H18       1.0  0.09780  0.35020  0.18720  1.0000 0.1219511125
H   H19       1.0  0.85020  0.40220  0.43720  1.0000 0.1219511125
H   H20       1.0  0.14980  0.59780  0.93720  1.0000 0.1219511125
H   H21       1.0  0.59780  0.14980  0.06280  1.0000 0.1219511125
H   H22       1.0  0.40220  0.85020  0.56280  1.0000 0.1219511125
H   H23       1.0  0.64980  0.90220  0.31280  1.0000 0.1219511125
H   H24       1.0  0.35020  0.09780  0.81280  1.0000 0.1219511125
H   H25       1.0  0.99510  0.75970  0.67720  1.0000 0.0933153993
H   H26       1.0  0.00490  0.24030  0.17720  1.0000 0.0933153993
H   H27       1.0  0.74030  0.49510  0.42720  1.0000 0.0933153993
H   H28       1.0  0.25970  0.50490  0.92720  1.0000 0.0933153993
H   H29       1.0  0.50490  0.25970  0.07280  1.0000 0.0933153993
H   H30       1.0  0.49510  0.74030  0.57280  1.0000 0.0933153993
H   H31       1.0  0.75970  0.99510  0.32280  1.0000 0.0933153993
H   H32       1.0  0.24030  0.00490  0.82280  1.0000 0.0933153993
H   H33       1.0  0.83460  0.53520  0.71150  1.0000 0.1091941157
H   H34       1.0  0.16540  0.46480  0.21150  1.0000 0.1091941157
H   H35       1.0  0.96480  0.33460  0.46150  1.0000 0.1091941157
H   H36       1.0  0.03520  0.66540  0.96150  1.0000 0.1091941157
H   H37       1.0  0.66540  0.03520  0.03850  1.0000 0.1091941157
H   H38       1.0  0.33460  0.96480  0.53850  1.0000 0.1091941157
H   H39       1.0  0.53520  0.83460  0.28850  1.0000 0.1091941157
H   H40       1.0  0.46480  0.16540  0.78850  1.0000 0.1091941157
H   H41       1.0  0.73350  0.43340  0.72420  1.0000 0.1091941157
H   H42       1.0  0.26650  0.56660  0.22420  1.0000 0.1091941157
H   H43       1.0  0.06660  0.23350  0.47420  1.0000 0.1091941157
H   H44       1.0  0.93340  0.76650  0.97420  1.0000 0.1091941157
H   H45       1.0  0.76650  0.93340  0.02580  1.0000 0.1091941157
H   H46       1.0  0.23350  0.06660  0.52580  1.0000 0.1091941157
H   H47       1.0  0.43340  0.73350  0.27580  1.0000 0.1091941157
H   H48       1.0  0.56660  0.26650  0.77580  1.0000 0.1091941157
H   H49       1.0  0.62070  0.45560  0.79000  1.0000 0.1091941157
H   H50       1.0  0.37930  0.54440  0.29000  1.0000 0.1091941157
H   H51       1.0  0.04440  0.12070  0.54000  1.0000 0.1091941157
H   H52       1.0  0.95560  0.87930  0.04000  1.0000 0.1091941157
H   H53       1.0  0.87930  0.95560  0.96000  1.0000 0.1091941157
H   H54       1.0  0.12070  0.04440  0.46000  1.0000 0.1091941157
H   H55       1.0  0.45560  0.62070  0.21000  1.0000 0.1091941157
H   H56       1.0  0.54440  0.37930  0.71000  1.0000 0.1091941157
H   H57       1.0  0.72370  0.67390  0.84420  1.0000 0.1008129434
H   H58       1.0  0.27630  0.32610  0.34420  1.0000 0.1008129434
H   H59       1.0  0.82610  0.22370  0.59420  1.0000 0.1008129434
H   H60       1.0  0.17390  0.77630  0.09420  1.0000 0.1008129434
H   H61       1.0  0.77630  0.17390  0.90580  1.0000 0.1008129434
H   H62       1.0  0.22370  0.82610  0.40580  1.0000 0.1008129434
H   H63       1.0  0.67390  0.72370  0.15580  1.0000 0.1008129434
H   H64       1.0  0.32610  0.27630  0.65580  1.0000 0.1008129434
H   H65       1.0  0.50640  0.70260  0.04180  1.0000 0.1091941157
H   H66       1.0  0.49360  0.29740  0.54180  1.0000 0.1091941157
H   H67       1.0  0.79740  0.00640  0.79180  1.0000 0.1091941157
H   H68       1.0  0.20260  0.99360  0.29180  1.0000 0.1091941157
H   H69       1.0  0.99360  0.20260  0.70820  1.0000 0.1091941157
H   H70       1.0  0.00640  0.79740  0.20820  1.0000 0.1091941157
H   H71       1.0  0.70260  0.50640  0.95820  1.0000 0.1091941157
H   H72       1.0  0.29740  0.49360  0.45820  1.0000 0.1091941157
H   H73       1.0  0.41360  0.79820  0.08700  1.0000 0.1091941157
H   H74       1.0  0.58640  0.20180  0.58700  1.0000 0.1091941157
H   H75       1.0  0.70180  0.91360  0.83700  1.0000 0.1091941157
H   H76       1.0  0.29820  0.08640  0.33700  1.0000 0.1091941157
H   H77       1.0  0.08640  0.29820  0.66300  1.0000 0.1091941157
H   H78       1.0  0.91360  0.70180  0.16300  1.0000 0.1091941157
H   H79       1.0  0.79820  0.41360  0.91300  1.0000 0.1008129434
H   H80       1.0  0.20180  0.58640  0.41300  1.0000 0.1091941157
H   H81       1.0  0.29810  0.84670  0.03190  1.0000 0.1008129434
H   H82       1.0  0.70190  0.15330  0.53190  1.0000 0.1008129434
H   H83       1.0  0.65330  0.79810  0.78190  1.0000 0.1008129434
H   H84       1.0  0.34670  0.20190  0.28190  1.0000 0.1008129434
H   H85       1.0  0.20190  0.34670  0.71810  1.0000 0.1008129434
H   H86       1.0  0.79810  0.65330  0.21810  1.0000 0.1008129434
H   H87       1.0  0.84670  0.29810  0.96810  1.0000 0.1008129434
H   H88       1.0  0.15330  0.70190  0.46810  1.0000 0.1008129434
H   H89       1.0  0.35950  0.69430  0.89010  1.0000 0.1091941157
H   H90       1.0  0.64050  0.30570  0.39010  1.0000 0.1091941157
H   H91       1.0  0.80570  0.85950  0.64010  1.0000 0.1091941157
H   H92       1.0  0.19430  0.14050  0.14010  1.0000 0.1091941157
H   H93       1.0  0.14050  0.19430  0.85990  1.0000 0.1091941157
H   H94       1.0  0.85950  0.80570  0.35990  1.0000 0.1091941157
H   H95       1.0  0.69430  0.35950  0.10990  1.0000 0.1091941157
H   H96       1.0  0.30570  0.64050  0.60990  1.0000 0.1091941157
H   H97       1.0  0.21420  0.91280  0.96670  1.0000 0.1219511125
H   H98       1.0  0.78580  0.08720  0.46670  1.0000 0.1219511125
H   H99       1.0  0.58720  0.71420  0.71670  1.0000 0.1219511125
H   H100      1.0  0.41280  0.28580  0.21670  1.0000 0.1219511125
H   H101      1.0  0.28580  0.41280  0.78330  1.0000 0.1219511125
H   H102      1.0  0.71420  0.58720  0.28330  1.0000 0.1219511125
H   H103      1.0  0.91280  0.21420  0.03330  1.0000 0.1219511125
H   H104      1.0  0.08720  0.78580  0.53330  1.0000 0.1219511125
H   H105      1.0  0.11290  0.96250  0.90090  1.0000 0.1008129434
H   H106      1.0  0.88710  0.03750  0.40090  1.0000 0.1008129434
H   H107      1.0  0.53750  0.61290  0.65090  1.0000 0.1008129434
H   H108      1.0  0.46250  0.38710  0.15090  1.0000 0.1008129434
H   H109      1.0  0.38710  0.46250  0.84910  1.0000 0.1008129434
H   H110      1.0  0.61290  0.53750  0.34910  1.0000 0.1008129434
H   H111      1.0  0.96250  0.11290  0.09910  1.0000 0.1008129434
H   H112      1.0  0.03750  0.88710  0.59910  1.0000 0.1008129434
H   H113      1.0  0.13960  0.76980  0.79170  1.0000 0.0933153993
H   H114      1.0  0.86040  0.23020  0.29170  1.0000 0.0933153993
H   H115      1.0  0.73020  0.63960  0.54170  1.0000 0.0933153993
H   H116      1.0  0.26980  0.36040  0.04170  1.0000 0.0933153993
H   H117      1.0  0.36040  0.26980  0.95830  1.0000 0.0933153993
H   H118      1.0  0.63960  0.73020  0.45830  1.0000 0.0933153993
H   H119      1.0  0.76980  0.13960  0.20830  1.0000 0.0933153993
H   H120      1.0  0.23020  0.86040  0.70830  1.0000 0.0933153993
H   H121      1.0  0.23890  0.71280  0.85440  1.0000 0.1268838067
H   H122      1.0  0.76110  0.28720  0.35440  1.0000 0.1268838067
H   H123      1.0  0.78720  0.73890  0.60440  1.0000 0.1268838067
H   H124      1.0  0.21280  0.26110  0.10440  1.0000 0.1268838067
H   H125      1.0  0.26110  0.21280  0.89560  1.0000 0.1268838067
H   H126      1.0  0.73890  0.78720  0.39560  1.0000 0.1268838067
H   H127      1.0  0.71280  0.23890  0.14560  1.0000 0.1268838067
H   H128      1.0  0.28720  0.76110  0.64560  1.0000 0.1268838067
H   H129      1.0  0.53300  0.75310  0.85090  1.0000 0.2484233547
H   H130      1.0  0.46700  0.24690  0.35090  1.0000 0.2484233547
H   H131      1.0  0.74690  0.03300  0.60090  1.0000 0.2484233547
H   H132      1.0  0.25310  0.96700  0.10090  1.0000 0.2484233547
H   H133      1.0  0.96700  0.25310  0.89910  1.0000 0.2484233547
H   H134      1.0  0.03300  0.74690  0.39910  1.0000 0.2484233547
H   H135      1.0  0.75310  0.53300  0.14910  1.0000 0.2484233547
H   H136      1.0  0.24690  0.46700  0.64910  1.0000 0.2484233547
H   H137      1.0  0.59110  0.76190  0.90290  1.0000 0.2484233547
H   H138      1.0  0.40890  0.23810  0.40290  1.0000 0.2484233547
H   H139      1.0  0.73810  0.09110  0.65290  1.0000 0.2484233547
H   H140      1.0  0.26190  0.90890  0.15290  1.0000 0.2484233547
H   H141      1.0  0.90890  0.26190  0.84710  1.0000 0.2484233547
H   H142      1.0  0.09110  0.73810  0.34710  1.0000 0.2484233547
H   H143      1.0  0.76190  0.59110  0.09710  1.0000 0.2484233547
H   H144      1.0  0.23810  0.40890  0.59710  1.0000 0.2484233547
C   C1        1.0  0.93170  0.80260  0.80990  1.0000 0.0605009534
C   C2        1.0  0.06830  0.19740  0.30990  1.0000 0.0605009534
C   C3        1.0  0.69740  0.43170  0.55990  1.0000 0.0605009534
C   C4        1.0  0.30260  0.56830  0.05990  1.0000 0.0605009534
C   C5        1.0  0.56830  0.30260  0.94010  1.0000 0.0605009534
C   C6        1.0  0.43170  0.69740  0.44010  1.0000 0.0605009534
C   C7        1.0  0.80260  0.93170  0.19010  1.0000 0.0605009534
C   C8        1.0  0.19740  0.06830  0.69010  1.0000 0.0605009534
C   C9        1.0  0.87480  0.73890  0.81930  1.0000 -0.1992682417
C   C10       1.0  0.12520  0.26110  0.31930  1.0000 -0.1992682417
C   C11       1.0  0.76110  0.37480  0.56930  1.0000 -0.1992682417
C   C12       1.0  0.23890  0.62520  0.06930  1.0000 -0.1992682417
C   C13       1.0  0.62520  0.23890  0.93070  1.0000 -0.1992682417
C   C14       1.0  0.37480  0.76110  0.43070  1.0000 -0.1992682417
C   C15       1.0  0.73890  0.87480  0.18070  1.0000 -0.1992682417
C   C16       1.0  0.26110  0.12520  0.68070  1.0000 -0.1992682417
C   C17       1.0  0.85900  0.68020  0.77290  1.0000 0.1091941157
C   C18       1.0  0.14100  0.31980  0.27290  1.0000 0.1091941157
C   C19       1.0  0.81980  0.35900  0.52290  1.0000 0.1091941157
C   C20       1.0  0.18020  0.64100  0.02290  1.0000 0.1091941157
C   C21       1.0  0.64100  0.18020  0.97710  1.0000 0.1091941157
C   C22       1.0  0.35900  0.81980  0.47710  1.0000 0.1091941157
C   C23       1.0  0.68020  0.85900  0.22710  1.0000 0.1091941157
C   C24       1.0  0.31980  0.14100  0.72710  1.0000 0.1091941157
C   C25       1.0  0.90750  0.68870  0.71940  1.0000 -0.2114053946
C   C26       1.0  0.09250  0.31130  0.21940  1.0000 -0.2114053946
C   C27       1.0  0.81130  0.40750  0.46940  1.0000 -0.2114053946
C   C28       1.0  0.18870  0.59250  0.96940  1.0000 -0.2114053946
C   C29       1.0  0.59250  0.18870  0.03060  1.0000 -0.2114053946
C   C30       1.0  0.40750  0.81130  0.53060  1.0000 -0.2114053946
C   C31       1.0  0.68870  0.90750  0.28060  1.0000 -0.2114053946
C   C32       1.0  0.31130  0.09250  0.78060  1.0000 -0.2114053946
C   C33       1.0  0.96410  0.75530  0.71390  1.0000 0.0605009534
C   C34       1.0  0.03590  0.24470  0.21390  1.0000 0.0605009534
C   C35       1.0  0.74470  0.46410  0.46390  1.0000 0.0605009534
C   C36       1.0  0.25530  0.53590  0.96390  1.0000 0.0605009534
C   C37       1.0  0.53590  0.25530  0.03610  1.0000 0.0605009534
C   C38       1.0  0.46410  0.74470  0.53610  1.0000 0.0605009534
C   C39       1.0  0.75530  0.96410  0.28610  1.0000 0.0605009534
C   C40       1.0  0.24470  0.03590  0.78610  1.0000 0.0605009534
C   C41       1.0  0.79380  0.61440  0.77860  1.0000 0.0673323292
C   C42       1.0  0.20620  0.38560  0.27860  1.0000 0.0673323292
C   C43       1.0  0.88560  0.29380  0.52860  1.0000 0.0673323292
C   C44       1.0  0.11440  0.70620  0.02860  1.0000 0.0673323292
C   C45       1.0  0.70620  0.11440  0.97140  1.0000 0.0673323292
C   C46       1.0  0.29380  0.88560  0.47140  1.0000 0.0673323292
C   C47       1.0  0.61440  0.79380  0.22140  1.0000 0.0673323292
C   C48       1.0  0.38560  0.20620  0.72140  1.0000 0.0673323292
C   C49       1.0  0.79260  0.54270  0.74120  1.0000 -0.1591832433
C   C50       1.0  0.20740  0.45730  0.24120  1.0000 -0.1591832433
C   C51       1.0  0.95730  0.29260  0.49120  1.0000 -0.1591832433
C   C52       1.0  0.04270  0.70740  0.99120  1.0000 -0.1591832433
C   C53       1.0  0.70740  0.04270  0.00880  1.0000 -0.1591832433
C   C54       1.0  0.29260  0.95730  0.50880  1.0000 -0.1591832433
C   C55       1.0  0.54270  0.79260  0.25880  1.0000 -0.1591832433
C   C56       1.0  0.45730  0.20740  0.75880  1.0000 -0.1591832433
C   C57       1.0  0.73040  0.48270  0.74740  1.0000 -0.1102647418
C   C58       1.0  0.26960  0.51730  0.24740  1.0000 -0.1102647418
C   C59       1.0  0.01730  0.23040  0.49740  1.0000 -0.1102647418
C   C60       1.0  0.98270  0.76960  0.99740  1.0000 -0.1102647418
C   C61       1.0  0.76960  0.98270  0.00260  1.0000 -0.1102647418
C   C62       1.0  0.23040  0.01730  0.50260  1.0000 -0.1102647418
C   C63       1.0  0.48270  0.73040  0.25260  1.0000 -0.1102647418
C   C64       1.0  0.51730  0.26960  0.75260  1.0000 -0.1102647418
C   C65       1.0  0.66380  0.49510  0.78740  1.0000 -0.1591832433
C   C66       1.0  0.33620  0.50490  0.28740  1.0000 -0.1591832433
C   C67       1.0  0.00490  0.16380  0.53740  1.0000 -0.1591832433
C   C68       1.0  0.99510  0.83620  0.03740  1.0000 -0.1591832433
C   C69       1.0  0.83620  0.99510  0.96260  1.0000 -0.1591832433
C   C70       1.0  0.16380  0.00490  0.46260  1.0000 -0.1591832433
C   C71       1.0  0.49510  0.66380  0.21260  1.0000 -0.1591832433
C   C72       1.0  0.50490  0.33620  0.71260  1.0000 -0.1591832433
C   C73       1.0  0.66160  0.56720  0.82370  1.0000 0.0368730799
C   C74       1.0  0.33840  0.43280  0.32370  1.0000 0.0368730799
C   C75       1.0  0.93280  0.16160  0.57370  1.0000 0.0368730799
C   C76       1.0  0.06720  0.83840  0.07370  1.0000 0.0368730799
C   C77       1.0  0.83840  0.06720  0.92630  1.0000 0.0368730799
C   C78       1.0  0.16160  0.93280  0.42630  1.0000 0.0368730799
C   C79       1.0  0.56720  0.66160  0.17630  1.0000 0.0368730799
C   C80       1.0  0.43280  0.33840  0.67630  1.0000 0.0368730799
C   C81       1.0  0.72580  0.62580  0.81940  1.0000 -0.1992682417
C   C82       1.0  0.27420  0.37420  0.31940  1.0000 -0.1992682417
C   C83       1.0  0.87420  0.22580  0.56940  1.0000 -0.1992682417
C   C84       1.0  0.12580  0.77420  0.06940  1.0000 -0.1992682417
C   C85       1.0  0.77420  0.12580  0.93060  1.0000 -0.1992682417
C   C86       1.0  0.22580  0.87420  0.43060  1.0000 -0.1992682417
C   C87       1.0  0.62580  0.72580  0.18060  1.0000 -0.1992682417
C   C88       1.0  0.37420  0.27420  0.68060  1.0000 -0.1992682417
C   C89       1.0  0.59210  0.57560  0.86810  1.0000 0.1716285106
C   C90       1.0  0.40790  0.42440  0.36810  1.0000 0.1716285106
C   C91       1.0  0.92440  0.09210  0.61810  1.0000 0.1716285106
C   C92       1.0  0.07560  0.90790  0.11810  1.0000 0.1716285106
C   C93       1.0  0.90790  0.07560  0.88190  1.0000 0.1716285106
C   C94       1.0  0.09210  0.92440  0.38190  1.0000 0.1716285106
C   C95       1.0  0.57560  0.59210  0.13190  1.0000 0.1716285106
C   C96       1.0  0.42440  0.40790  0.63190  1.0000 0.1716285106
C   C97       1.0  0.49520  0.62570  0.93100  1.0000 0.1716285106
C   C98       1.0  0.50480  0.37430  0.43100  1.0000 0.1716285106
C   C99       1.0  0.87430  0.99520  0.68100  1.0000 0.1716285106
C   C100      1.0  0.12570  0.00480  0.18100  1.0000 0.1716285106
C   C101      1.0  0.00480  0.12570  0.81900  1.0000 0.1716285106
C   C102      1.0  0.99520  0.87430  0.31900  1.0000 0.1716285106
C   C103      1.0  0.62570  0.49520  0.06900  1.0000 0.1716285106
C   C104      1.0  0.37430  0.50480  0.56900  1.0000 0.1716285106
C   C105      1.0  0.44000  0.68830  0.96120  1.0000 0.022066711
C   C106      1.0  0.56000  0.31170  0.46120  1.0000 0.022066711
C   C107      1.0  0.81170  0.94000  0.71120  1.0000 0.022066711
C   C108      1.0  0.18830  0.06000  0.21120  1.0000 0.022066711
C   C109      1.0  0.06000  0.18830  0.78880  1.0000 0.022066711
C   C110      1.0  0.94000  0.81170  0.28880  1.0000 0.022066711
C   C111      1.0  0.68830  0.44000  0.03880  1.0000 0.022066711
C   C112      1.0  0.31170  0.56000  0.53880  1.0000 0.022066711
C   C113      1.0  0.45850  0.72000  0.02050  1.0000 -0.1707782577
C   C114      1.0  0.54150  0.28000  0.52050  1.0000 -0.1707782577
C   C115      1.0  0.78000  0.95850  0.77050  1.0000 -0.1707782577
C   C116      1.0  0.22000  0.04150  0.27050  1.0000 -0.1707782577
C   C117      1.0  0.04150  0.22000  0.72950  1.0000 -0.1707782577
C   C118      1.0  0.95850  0.78000  0.22950  1.0000 -0.1707782577
C   C119      1.0  0.72000  0.45850  0.97950  1.0000 -0.1707782577
C   C120      1.0  0.28000  0.54150  0.47950  1.0000 -0.1707782577
C   C121      1.0  0.40360  0.77830  0.04690  1.0000 -0.1102647418
C   C122      1.0  0.59640  0.22170  0.54690  1.0000 -0.1102647418
C   C123      1.0  0.72170  0.90360  0.79690  1.0000 -0.1102647418
C   C124      1.0  0.27830  0.09640  0.29690  1.0000 -0.1102647418
C   C125      1.0  0.09640  0.27830  0.70310  1.0000 -0.1102647418
C   C126      1.0  0.90360  0.72170  0.20310  1.0000 -0.1102647418
C   C127      1.0  0.77830  0.40360  0.95310  1.0000 -0.1102647418
C   C128      1.0  0.22170  0.59640  0.45310  1.0000 -0.1102647418
C   C129      1.0  0.33380  0.80720  0.01380  1.0000 -0.1707782577
C   C130      1.0  0.66620  0.19280  0.51380  1.0000 -0.1707782577
C   C131      1.0  0.69280  0.83380  0.76380  1.0000 -0.1707782577
C   C132      1.0  0.30720  0.16620  0.26380  1.0000 -0.1707782577
C   C133      1.0  0.16620  0.30720  0.73620  1.0000 -0.1707782577
C   C134      1.0  0.83380  0.69280  0.23620  1.0000 -0.1707782577
C   C135      1.0  0.80720  0.33380  0.98620  1.0000 -0.1707782577
C   C136      1.0  0.19280  0.66620  0.48620  1.0000 -0.1707782577
C   C137      1.0  0.31700  0.77840  0.95500  1.0000 0.0605009534
C   C138      1.0  0.68300  0.22160  0.45500  1.0000 0.0605009534
C   C139      1.0  0.72160  0.81700  0.70500  1.0000 0.0605009534
C   C140      1.0  0.27840  0.18300  0.20500  1.0000 0.0605009534
C   C141      1.0  0.18300  0.27840  0.79500  1.0000 0.0605009534
C   C142      1.0  0.81700  0.72160  0.29500  1.0000 0.0605009534
C   C143      1.0  0.77840  0.31700  0.04500  1.0000 0.0605009534
C   C144      1.0  0.22160  0.68300  0.54500  1.0000 0.0605009534
C   C145      1.0  0.37120  0.71630  0.92930  1.0000 -0.1992682417
C   C146      1.0  0.62880  0.28370  0.42930  1.0000 -0.1992682417
C   C147      1.0  0.78370  0.87120  0.67930  1.0000 -0.1992682417
C   C148      1.0  0.21630  0.12880  0.17930  1.0000 -0.1992682417
C   C149      1.0  0.12880  0.21630  0.82070  1.0000 -0.1992682417
C   C150      1.0  0.87120  0.78370  0.32070  1.0000 -0.1992682417
C   C151      1.0  0.71630  0.37120  0.07070  1.0000 -0.1992682417
C   C152      1.0  0.28370  0.62880  0.57070  1.0000 -0.1992682417
C   C153      1.0  0.24550  0.80880  0.91710  1.0000 0.1219511125
C   C154      1.0  0.75450  0.19120  0.41710  1.0000 0.1219511125
C   C155      1.0  0.69120  0.74550  0.66710  1.0000 0.1219511125
C   C156      1.0  0.30880  0.25450  0.16710  1.0000 0.1219511125
C   C157      1.0  0.25450  0.30880  0.83290  1.0000 0.1219511125
C   C158      1.0  0.74550  0.69120  0.33290  1.0000 0.1219511125
C   C159      1.0  0.80880  0.24550  0.08290  1.0000 0.1219511125
C   C160      1.0  0.19120  0.75450  0.58290  1.0000 0.1219511125
C   C161      1.0  0.20180  0.88310  0.93040  1.0000 -0.2114053946
C   C162      1.0  0.79820  0.11690  0.43040  1.0000 -0.2114053946
C   C163      1.0  0.61690  0.70180  0.68040  1.0000 -0.2114053946
C   C164      1.0  0.38310  0.29820  0.18040  1.0000 -0.2114053946
C   C165      1.0  0.29820  0.38310  0.81960  1.0000 -0.2114053946
C   C166      1.0  0.70180  0.61690  0.31960  1.0000 -0.2114053946
C   C167      1.0  0.88310  0.20180  0.06960  1.0000 -0.2114053946
C   C168      1.0  0.11690  0.79820  0.56960  1.0000 -0.2114053946
C   C169      1.0  0.14080  0.91290  0.89060  1.0000 0.0536214071
C   C170      1.0  0.85920  0.08710  0.39060  1.0000 0.0536214071
C   C171      1.0  0.58710  0.64080  0.64060  1.0000 0.0536214071
C   C172      1.0  0.41290  0.35920  0.14060  1.0000 0.0536214071
C   C173      1.0  0.35920  0.41290  0.85940  1.0000 0.0536214071
C   C174      1.0  0.64080  0.58710  0.35940  1.0000 0.0536214071
C   C175      1.0  0.91290  0.14080  0.10940  1.0000 0.0536214071
C   C176      1.0  0.08710  0.85920  0.60940  1.0000 0.0536214071
C   C177      1.0  0.15630  0.79980  0.82690  1.0000 0.0368730799
C   C178      1.0  0.84370  0.20020  0.32690  1.0000 0.0368730799
C   C179      1.0  0.70020  0.65630  0.57690  1.0000 0.0368730799
C   C180      1.0  0.29980  0.34370  0.07690  1.0000 0.0368730799
C   C181      1.0  0.34370  0.29980  0.92310  1.0000 0.0368730799
C   C182      1.0  0.65630  0.70020  0.42310  1.0000 0.0368730799
C   C183      1.0  0.79980  0.15630  0.17310  1.0000 0.0368730799
C   C184      1.0  0.20020  0.84370  0.67310  1.0000 0.0368730799
C   C185      1.0  0.21660  0.76530  0.86410  1.0000 -0.2114053946
C   C186      1.0  0.78340  0.23470  0.36410  1.0000 -0.2114053946
C   C187      1.0  0.73470  0.71660  0.61410  1.0000 -0.2114053946
C   C188      1.0  0.26530  0.28340  0.11410  1.0000 -0.2114053946
C   C189      1.0  0.28340  0.26530  0.88590  1.0000 -0.2114053946
C   C190      1.0  0.71660  0.73470  0.38590  1.0000 -0.2114053946
C   C191      1.0  0.76530  0.21660  0.13590  1.0000 -0.2114053946
C   C192      1.0  0.23470  0.78340  0.63590  1.0000 -0.2114053946
N   N1        1.0  0.49310  0.54420  0.93350  1.0000 -0.2282240111
N   N2        1.0  0.50690  0.45580  0.43350  1.0000 -0.2282240111
N   N3        1.0  0.95580  0.99310  0.68350  1.0000 -0.2282240111
N   N4        1.0  0.04420  0.00690  0.18350  1.0000 -0.2282240111
N   N5        1.0  0.00690  0.04420  0.81650  1.0000 -0.2282240111
N   N6        1.0  0.99310  0.95580  0.31650  1.0000 -0.2282240111
N   N7        1.0  0.54420  0.49310  0.06650  1.0000 -0.2282240111
N   N8        1.0  0.45580  0.50690  0.56650  1.0000 -0.2282240111
N   N9        1.0  0.55350  0.51140  0.89410  1.0000 -0.2824659739
N   N10       1.0  0.44650  0.48860  0.39410  1.0000 -0.2824659739
N   N11       1.0  0.98860  0.05350  0.64410  1.0000 -0.2824659739
N   N12       1.0  0.01140  0.94650  0.14410  1.0000 -0.2824659739
N   N13       1.0  0.94650  0.01140  0.85590  1.0000 -0.2824659739
N   N14       1.0  0.05350  0.98860  0.35590  1.0000 -0.2824659739
N   N15       1.0  0.51140  0.55350  0.10590  1.0000 -0.2824659739
N   N16       1.0  0.48860  0.44650  0.60590  1.0000 -0.2824659739
N   N17       1.0  0.55670  0.64900  0.89020  1.0000 0.0605009534
N   N18       1.0  0.44330  0.35100  0.39020  1.0000 0.0605009534
N   N19       1.0  0.85100  0.05670  0.64020  1.0000 0.0605009534
N   N20       1.0  0.14900  0.94330  0.14020  1.0000 0.0605009534
N   N21       1.0  0.94330  0.14900  0.85980  1.0000 0.0605009534
N   N22       1.0  0.05670  0.85100  0.35980  1.0000 0.0605009534
N   N23       1.0  0.64900  0.55670  0.10980  1.0000 0.0605009534
N   N24       1.0  0.35100  0.44330  0.60980  1.0000 0.0605009534
N   N25       1.0  0.57730  0.73050  0.87000  1.0000 -0.5059002246
N   N26       1.0  0.42270  0.26950  0.37000  1.0000 -0.5059002246
N   N27       1.0  0.76950  0.07730  0.62000  1.0000 -0.5059002246
N   N28       1.0  0.23050  0.92270  0.12000  1.0000 -0.5059002246
N   N29       1.0  0.92270  0.23050  0.88000  1.0000 -0.5059002246
N   N30       1.0  0.07730  0.76950  0.38000  1.0000 -0.5059002246
N   N31       1.0  0.73050  0.57730  0.13000  1.0000 -0.5059002246
N   N32       1.0  0.26950  0.42270  0.63000  1.0000 -0.5059002246
N   N33       1.0  0.97630  0.81240  0.75770  1.0000 -0.2363669071
N   N34       1.0  0.02370  0.18760  0.25770  1.0000 -0.2363669071
N   N35       1.0  0.68760  0.47630  0.50770  1.0000 -0.2363669071
N   N36       1.0  0.31240  0.52370  0.00770  1.0000 -0.2363669071
N   N37       1.0  0.52370  0.31240  0.99230  1.0000 -0.2363669071
N   N38       1.0  0.47630  0.68760  0.49230  1.0000 -0.2363669071
N   N39       1.0  0.81240  0.97630  0.24230  1.0000 -0.2363669071
N   N40       1.0  0.18760  0.02370  0.74230  1.0000 -0.2363669071
N   N41       1.0  0.11990  0.87370  0.83780  1.0000 -0.2282240111
N   N42       1.0  0.88010  0.12630  0.33780  1.0000 -0.2282240111
N   N43       1.0  0.62630  0.61990  0.58780  1.0000 -0.2282240111
N   N44       1.0  0.37370  0.38010  0.08780  1.0000 -0.2282240111
N   N45       1.0  0.38010  0.37370  0.91220  1.0000 -0.2282240111
N   N46       1.0  0.61990  0.62630  0.41220  1.0000 -0.2282240111
N   N47       1.0  0.87370  0.11990  0.16220  1.0000 -0.2282240111
N   N48       1.0  0.12630  0.88010  0.66220  1.0000 -0.2282240111
