# DDEC6 charges by PACMAN v1.1 (https://github.com/mtap-research/PACMAN-charge/)
data_2009[Cd][nuc]3[FSR]11
_chemical_formula_sum              "Cd4 H144 C192 N48"
_cell_length_a       15.903
_cell_length_b       15.903
_cell_length_c       21.615
_cell_angle_alpha    90
_cell_angle_beta     90
_cell_angle_gamma    90

_symmetry_space_group_name_H-M    "P 1"
_symmetry_Int_Tables_number       1

loop_
  _symmetry_equiv_pos_as_xyz
  'x, y, z'

loop_
  _atom_site_type_symbol
  _atom_site_label
  _atom_site_symmetry_multiplicity
  _atom_site_fract_x
  _atom_site_fract_y
  _atom_site_fract_z
  _atom_site_occupancy
  _atom_site_charge
Cd  Cd1       1.0  0.44103  0.55897  0.75000  1.0000 0.6423630162
Cd  Cd2       1.0  0.55897  0.44103  0.25000  1.0000 0.6423630162
Cd  Cd3       1.0  0.94103  0.94103  0.50000  1.0000 0.6423630162
Cd  Cd4       1.0  0.05897  0.05897  0.00000  1.0000 0.6423630162
H   H1        1.0  0.99340  0.24050  0.07150  1.0000 0.0939851075
H   H2        1.0  0.00660  0.75950  0.57150  1.0000 0.0939851075
H   H3        1.0  0.25950  0.49340  0.82150  1.0000 0.0939851075
H   H4        1.0  0.74050  0.50660  0.32150  1.0000 0.0939851075
H   H5        1.0  0.50660  0.74050  0.67850  1.0000 0.0939851075
H   H6        1.0  0.49340  0.25950  0.17850  1.0000 0.0939851075
H   H7        1.0  0.24050  0.99340  0.92850  1.0000 0.0939851075
H   H8        1.0  0.75950  0.00660  0.42850  1.0000 0.0939851075
H   H9        1.0  0.89990  0.34930  0.06170  1.0000 0.124491696
H   H10       1.0  0.10010  0.65070  0.56170  1.0000 0.124491696
H   H11       1.0  0.15070  0.39990  0.81170  1.0000 0.124491696
H   H12       1.0  0.84930  0.60010  0.31170  1.0000 0.124491696
H   H13       1.0  0.60010  0.84930  0.68830  1.0000 0.124491696
H   H14       1.0  0.39990  0.15070  0.18830  1.0000 0.124491696
H   H15       1.0  0.34930  0.89990  0.93830  1.0000 0.124491696
H   H16       1.0  0.65070  0.10010  0.43830  1.0000 0.124491696
H   H17       1.0  0.84540  0.26360  0.89250  1.0000 0.127984414
H   H18       1.0  0.15460  0.73640  0.39250  1.0000 0.127984414
H   H19       1.0  0.23640  0.34540  0.64250  1.0000 0.127984414
H   H20       1.0  0.76360  0.65460  0.14250  1.0000 0.127984414
H   H21       1.0  0.65460  0.76360  0.85750  1.0000 0.127984414
H   H22       1.0  0.34540  0.23640  0.35750  1.0000 0.127984414
H   H23       1.0  0.26360  0.84540  0.10750  1.0000 0.127984414
H   H24       1.0  0.73640  0.15460  0.60750  1.0000 0.127984414
H   H25       1.0  0.94040  0.15890  0.90760  1.0000 0.0991625275
H   H26       1.0  0.05960  0.84110  0.40760  1.0000 0.0991625275
H   H27       1.0  0.34110  0.44040  0.65760  1.0000 0.0991625275
H   H28       1.0  0.65890  0.55960  0.15760  1.0000 0.0991625275
H   H29       1.0  0.55960  0.65890  0.84240  1.0000 0.0991625275
H   H30       1.0  0.44040  0.34110  0.34240  1.0000 0.0991625275
H   H31       1.0  0.15890  0.94040  0.09240  1.0000 0.0991625275
H   H32       1.0  0.84110  0.05960  0.59240  1.0000 0.0991625275
H   H33       1.0  0.83430  0.46360  0.03640  1.0000 0.1102975463
H   H34       1.0  0.16570  0.53640  0.53640  1.0000 0.1102975463
H   H35       1.0  0.03640  0.33430  0.78640  1.0000 0.1102975463
H   H36       1.0  0.96360  0.66570  0.28640  1.0000 0.1102975463
H   H37       1.0  0.66570  0.96360  0.71360  1.0000 0.1102975463
H   H38       1.0  0.33430  0.03640  0.21360  1.0000 0.1102975463
H   H39       1.0  0.46360  0.83430  0.96360  1.0000 0.1102975463
H   H40       1.0  0.53640  0.16570  0.46360  1.0000 0.1102975463
H   H41       1.0  0.73090  0.56310  0.02690  1.0000 0.1102975463
H   H42       1.0  0.26910  0.43690  0.52690  1.0000 0.1102975463
H   H43       1.0  0.93690  0.23090  0.77690  1.0000 0.1102975463
H   H44       1.0  0.06310  0.76910  0.27690  1.0000 0.1102975463
H   H45       1.0  0.76910  0.06310  0.72310  1.0000 0.1102975463
H   H46       1.0  0.23090  0.93690  0.22310  1.0000 0.1102975463
H   H47       1.0  0.56310  0.73090  0.97310  1.0000 0.1102975463
H   H48       1.0  0.43690  0.26910  0.47310  1.0000 0.1102975463
H   H49       1.0  0.62070  0.54360  0.95870  1.0000 0.1102975463
H   H50       1.0  0.37930  0.45640  0.45870  1.0000 0.1102975463
H   H51       1.0  0.95640  0.12070  0.70870  1.0000 0.1102975463
H   H52       1.0  0.04360  0.87930  0.20870  1.0000 0.1102975463
H   H53       1.0  0.87930  0.04360  0.79130  1.0000 0.1102975463
H   H54       1.0  0.12070  0.95640  0.29130  1.0000 0.1102975463
H   H55       1.0  0.54360  0.62070  0.04130  1.0000 0.1102975463
H   H56       1.0  0.45640  0.37930  0.54130  1.0000 0.1102975463
H   H57       1.0  0.72370  0.32440  0.90440  1.0000 0.0991625275
H   H58       1.0  0.27630  0.67560  0.40440  1.0000 0.0991625275
H   H59       1.0  0.17560  0.22370  0.65440  1.0000 0.0991625275
H   H60       1.0  0.82440  0.77630  0.15440  1.0000 0.0991625275
H   H61       1.0  0.77630  0.82440  0.84560  1.0000 0.0991625275
H   H62       1.0  0.22370  0.17560  0.34560  1.0000 0.0991625275
H   H63       1.0  0.32440  0.72370  0.09560  1.0000 0.0991625275
H   H64       1.0  0.67560  0.27630  0.59560  1.0000 0.0991625275
H   H65       1.0  0.50350  0.29860  0.70860  1.0000 0.1102975463
H   H66       1.0  0.49650  0.70140  0.20860  1.0000 0.1102975463
H   H67       1.0  0.20140  0.00350  0.45860  1.0000 0.1102975463
H   H68       1.0  0.79860  0.99650  0.95860  1.0000 0.1102975463
H   H69       1.0  0.99650  0.79860  0.04140  1.0000 0.1102975463
H   H70       1.0  0.00350  0.20140  0.54140  1.0000 0.1102975463
H   H71       1.0  0.29860  0.50350  0.29140  1.0000 0.1102975463
H   H72       1.0  0.70140  0.49650  0.79140  1.0000 0.1102975463
H   H73       1.0  0.41000  0.20260  0.66400  1.0000 0.1102975463
H   H74       1.0  0.59000  0.79740  0.16400  1.0000 0.1102975463
H   H75       1.0  0.29740  0.91000  0.41400  1.0000 0.1102975463
H   H76       1.0  0.70260  0.09000  0.91400  1.0000 0.1102975463
H   H77       1.0  0.09000  0.70260  0.08600  1.0000 0.1102975463
H   H78       1.0  0.91000  0.29740  0.58600  1.0000 0.1102975463
H   H79       1.0  0.20260  0.41000  0.33600  1.0000 0.1102975463
H   H80       1.0  0.79740  0.59000  0.83600  1.0000 0.1102975463
H   H81       1.0  0.29690  0.15360  0.71900  1.0000 0.0991625275
H   H82       1.0  0.70310  0.84640  0.21900  1.0000 0.0991625275
H   H83       1.0  0.34640  0.79690  0.46900  1.0000 0.0991625275
H   H84       1.0  0.65360  0.20310  0.96900  1.0000 0.0991625275
H   H85       1.0  0.20310  0.65360  0.03100  1.0000 0.0991625275
H   H86       1.0  0.79690  0.34640  0.53100  1.0000 0.0991625275
H   H87       1.0  0.15360  0.29690  0.28100  1.0000 0.0991625275
H   H88       1.0  0.84640  0.70310  0.78100  1.0000 0.0991625275
H   H89       1.0  0.35970  0.30280  0.86080  1.0000 0.1102975463
H   H90       1.0  0.64030  0.69720  0.36080  1.0000 0.1102975463
H   H91       1.0  0.19720  0.85970  0.61080  1.0000 0.1102975463
H   H92       1.0  0.80280  0.14030  0.11080  1.0000 0.1102975463
H   H93       1.0  0.14030  0.80280  0.88920  1.0000 0.1102975463
H   H94       1.0  0.85970  0.19720  0.38920  1.0000 0.1102975463
H   H95       1.0  0.30280  0.35970  0.13920  1.0000 0.1102975463
H   H96       1.0  0.69720  0.64030  0.63920  1.0000 0.1102975463
H   H97       1.0  0.21370  0.08680  0.78390  1.0000 0.127984414
H   H98       1.0  0.78630  0.91320  0.28390  1.0000 0.127984414
H   H99       1.0  0.41320  0.71370  0.53390  1.0000 0.127984414
H   H100      1.0  0.58680  0.28630  0.03390  1.0000 0.127984414
H   H101      1.0  0.28630  0.58680  0.96610  1.0000 0.127984414
H   H102      1.0  0.71370  0.41320  0.46610  1.0000 0.127984414
H   H103      1.0  0.08680  0.21370  0.21610  1.0000 0.127984414
H   H104      1.0  0.91320  0.78630  0.71610  1.0000 0.127984414
H   H105      1.0  0.11500  0.03660  0.85040  1.0000 0.0991625275
H   H106      1.0  0.88500  0.96340  0.35040  1.0000 0.0991625275
H   H107      1.0  0.46340  0.61500  0.60040  1.0000 0.0991625275
H   H108      1.0  0.53660  0.38500  0.10040  1.0000 0.0991625275
H   H109      1.0  0.38500  0.53660  0.89960  1.0000 0.0991625275
H   H110      1.0  0.61500  0.46340  0.39960  1.0000 0.0991625275
H   H111      1.0  0.03660  0.11500  0.14960  1.0000 0.0991625275
H   H112      1.0  0.96340  0.88500  0.64960  1.0000 0.0991625275
H   H113      1.0  0.14100  0.22930  0.95840  1.0000 0.0991625275
H   H114      1.0  0.85900  0.77070  0.45840  1.0000 0.0991625275
H   H115      1.0  0.27070  0.64100  0.70840  1.0000 0.0991625275
H   H116      1.0  0.72930  0.35900  0.20840  1.0000 0.0991625275
H   H117      1.0  0.35900  0.72930  0.79160  1.0000 0.0991625275
H   H118      1.0  0.64100  0.27070  0.29160  1.0000 0.0991625275
H   H119      1.0  0.22930  0.14100  0.04160  1.0000 0.0991625275
H   H120      1.0  0.77070  0.85900  0.54160  1.0000 0.0991625275
H   H121      1.0  0.23860  0.28670  0.89490  1.0000 0.127984414
H   H122      1.0  0.76140  0.71330  0.39490  1.0000 0.127984414
H   H123      1.0  0.21330  0.73860  0.64490  1.0000 0.127984414
H   H124      1.0  0.78670  0.26140  0.14490  1.0000 0.127984414
H   H125      1.0  0.26140  0.78670  0.85510  1.0000 0.127984414
H   H126      1.0  0.73860  0.21330  0.35510  1.0000 0.127984414
H   H127      1.0  0.28670  0.23860  0.10510  1.0000 0.127984414
H   H128      1.0  0.71330  0.76140  0.60510  1.0000 0.127984414
H   H129      1.0  0.59960  0.24400  0.84770  1.0000 0.2440817308
H   H130      1.0  0.40040  0.75600  0.34770  1.0000 0.2440817308
H   H131      1.0  0.25600  0.09960  0.59770  1.0000 0.2440817308
H   H132      1.0  0.74400  0.90040  0.09770  1.0000 0.2440817308
H   H133      1.0  0.90040  0.74400  0.90230  1.0000 0.2440817308
H   H134      1.0  0.09960  0.25600  0.40230  1.0000 0.2440817308
H   H135      1.0  0.24400  0.59960  0.15230  1.0000 0.2440817308
H   H136      1.0  0.75600  0.40040  0.65230  1.0000 0.2440817308
H   H137      1.0  0.52390  0.24440  0.88670  1.0000 0.2509625002
H   H138      1.0  0.47610  0.75560  0.38670  1.0000 0.2509625002
H   H139      1.0  0.25560  0.02390  0.63670  1.0000 0.2509625002
H   H140      1.0  0.74440  0.97610  0.13670  1.0000 0.2509625002
H   H141      1.0  0.97610  0.74440  0.86330  1.0000 0.2509625002
H   H142      1.0  0.02390  0.25560  0.36330  1.0000 0.2509625002
H   H143      1.0  0.24440  0.52390  0.11330  1.0000 0.2509625002
H   H144      1.0  0.75560  0.47610  0.61330  1.0000 0.2509625002
C   C1        1.0  0.96240  0.24470  0.03510  1.0000 0.0535644737
C   C2        1.0  0.03760  0.75530  0.53510  1.0000 0.0535644737
C   C3        1.0  0.25530  0.46240  0.78510  1.0000 0.0535644737
C   C4        1.0  0.74470  0.53760  0.28510  1.0000 0.0535644737
C   C5        1.0  0.53760  0.74470  0.71490  1.0000 0.0535644737
C   C6        1.0  0.46240  0.25530  0.21490  1.0000 0.0535644737
C   C7        1.0  0.24470  0.96240  0.96490  1.0000 0.0535644737
C   C8        1.0  0.75530  0.03760  0.46490  1.0000 0.0535644737
C   C9        1.0  0.90570  0.31060  0.02970  1.0000 -0.1999039218
C   C10       1.0  0.09430  0.68940  0.52970  1.0000 -0.2067535624
C   C11       1.0  0.18940  0.40570  0.77970  1.0000 -0.1999039218
C   C12       1.0  0.81060  0.59430  0.27970  1.0000 -0.1999039218
C   C13       1.0  0.59430  0.81060  0.72030  1.0000 -0.2067535624
C   C14       1.0  0.40570  0.18940  0.22030  1.0000 -0.1999039218
C   C15       1.0  0.31060  0.90570  0.97030  1.0000 -0.2067535624
C   C16       1.0  0.68940  0.09430  0.47030  1.0000 -0.2067535624
C   C17       1.0  0.85790  0.31870  0.97672  1.0000 0.1102975463
C   C18       1.0  0.14210  0.68130  0.47672  1.0000 0.1102975463
C   C19       1.0  0.18130  0.35790  0.72672  1.0000 0.1102975463
C   C20       1.0  0.81870  0.64210  0.22672  1.0000 0.1102975463
C   C21       1.0  0.64210  0.81870  0.77328  1.0000 0.1102975463
C   C22       1.0  0.35790  0.18130  0.27328  1.0000 0.1102975463
C   C23       1.0  0.31870  0.85790  0.02328  1.0000 0.1102975463
C   C24       1.0  0.68130  0.14210  0.52328  1.0000 0.1102975463
C   C25       1.0  0.87380  0.26000  0.92998  1.0000 -0.1999039218
C   C26       1.0  0.12620  0.74000  0.42998  1.0000 -0.1999039218
C   C27       1.0  0.24000  0.37380  0.67998  1.0000 -0.1999039218
C   C28       1.0  0.76000  0.62620  0.17998  1.0000 -0.1999039218
C   C29       1.0  0.62620  0.76000  0.82002  1.0000 -0.1999039218
C   C30       1.0  0.37380  0.24000  0.32002  1.0000 -0.1999039218
C   C31       1.0  0.26000  0.87380  0.07002  1.0000 -0.1999039218
C   C32       1.0  0.74000  0.12620  0.57002  1.0000 -0.1999039218
C   C33       1.0  0.93140  0.19700  0.93950  1.0000 0.0628595546
C   C34       1.0  0.06860  0.80300  0.43950  1.0000 0.0628595546
C   C35       1.0  0.30300  0.43140  0.68950  1.0000 0.0628595546
C   C36       1.0  0.69700  0.56860  0.18950  1.0000 0.0628595546
C   C37       1.0  0.56860  0.69700  0.81050  1.0000 0.0628595546
C   C38       1.0  0.43140  0.30300  0.31050  1.0000 0.0628595546
C   C39       1.0  0.19700  0.93140  0.06050  1.0000 0.0628595546
C   C40       1.0  0.80300  0.06860  0.56050  1.0000 0.0628595546
C   C41       1.0  0.79160  0.38420  0.97066  1.0000 0.0668682589
C   C42       1.0  0.20840  0.61580  0.47066  1.0000 0.0668682589
C   C43       1.0  0.11580  0.29160  0.72066  1.0000 0.0668682589
C   C44       1.0  0.88420  0.70840  0.22066  1.0000 0.0668682589
C   C45       1.0  0.70840  0.88420  0.77934  1.0000 0.0668682589
C   C46       1.0  0.29160  0.11580  0.27934  1.0000 0.0668682589
C   C47       1.0  0.38420  0.79160  0.02934  1.0000 0.0668682589
C   C48       1.0  0.61580  0.20840  0.52934  1.0000 0.0668682589
C   C49       1.0  0.79140  0.45570  0.00770  1.0000 -0.1610490704
C   C50       1.0  0.20860  0.54430  0.50770  1.0000 -0.1610490704
C   C51       1.0  0.04430  0.29140  0.75770  1.0000 -0.1610490704
C   C52       1.0  0.95570  0.70860  0.25770  1.0000 -0.1610490704
C   C53       1.0  0.70860  0.95570  0.74230  1.0000 -0.1610490704
C   C54       1.0  0.29140  0.04430  0.24230  1.0000 -0.1610490704
C   C55       1.0  0.45570  0.79140  0.99230  1.0000 -0.1610490704
C   C56       1.0  0.54430  0.20860  0.49230  1.0000 -0.1610490704
C   C57       1.0  0.72890  0.51490  0.00260  1.0000 -0.1104813248
C   C58       1.0  0.27110  0.48510  0.50260  1.0000 -0.1104813248
C   C59       1.0  0.98510  0.22890  0.75260  1.0000 -0.1104813248
C   C60       1.0  0.01490  0.77110  0.25260  1.0000 -0.1104813248
C   C61       1.0  0.77110  0.01490  0.74740  1.0000 -0.1104813248
C   C62       1.0  0.22890  0.98510  0.24740  1.0000 -0.1104813248
C   C63       1.0  0.51490  0.72890  0.99740  1.0000 -0.1104813248
C   C64       1.0  0.48510  0.27110  0.49740  1.0000 -0.1104813248
C   C65       1.0  0.66310  0.50350  0.96180  1.0000 -0.1610490704
C   C66       1.0  0.33690  0.49650  0.46180  1.0000 -0.1610490704
C   C67       1.0  0.99650  0.16310  0.71180  1.0000 -0.1610490704
C   C68       1.0  0.00350  0.83690  0.21180  1.0000 -0.1610490704
C   C69       1.0  0.83690  0.00350  0.78820  1.0000 -0.1610490704
C   C70       1.0  0.16310  0.99650  0.28820  1.0000 -0.1610490704
C   C71       1.0  0.50350  0.66310  0.03820  1.0000 -0.1610490704
C   C72       1.0  0.49650  0.33690  0.53820  1.0000 -0.1610490704
C   C73       1.0  0.66090  0.43170  0.92540  1.0000 0.0372073797
C   C74       1.0  0.33910  0.56830  0.42540  1.0000 0.0372073797
C   C75       1.0  0.06830  0.16090  0.67540  1.0000 0.0372073797
C   C76       1.0  0.93170  0.83910  0.17540  1.0000 0.0372073797
C   C77       1.0  0.83910  0.93170  0.82460  1.0000 0.0372073797
C   C78       1.0  0.16090  0.06830  0.32460  1.0000 0.0372073797
C   C79       1.0  0.43170  0.66090  0.07460  1.0000 0.0372073797
C   C80       1.0  0.56830  0.33910  0.57460  1.0000 0.0372073797
C   C81       1.0  0.72510  0.37210  0.92928  1.0000 -0.1999039218
C   C82       1.0  0.27490  0.62790  0.42928  1.0000 -0.1999039218
C   C83       1.0  0.12790  0.22510  0.67928  1.0000 -0.1999039218
C   C84       1.0  0.87210  0.77490  0.17928  1.0000 -0.1999039218
C   C85       1.0  0.77490  0.87210  0.82072  1.0000 -0.1999039218
C   C86       1.0  0.22510  0.12790  0.32072  1.0000 -0.1999039218
C   C87       1.0  0.37210  0.72510  0.07072  1.0000 -0.1999039218
C   C88       1.0  0.62790  0.27490  0.57072  1.0000 -0.1999039218
C   C89       1.0  0.59090  0.42370  0.88096  1.0000 0.1788519367
C   C90       1.0  0.40910  0.57630  0.38096  1.0000 0.1788519367
C   C91       1.0  0.07630  0.09090  0.63096  1.0000 0.1788519367
C   C92       1.0  0.92370  0.90910  0.13096  1.0000 0.1788519367
C   C93       1.0  0.90910  0.92370  0.86904  1.0000 0.1788519367
C   C94       1.0  0.09090  0.07630  0.36904  1.0000 0.1788519367
C   C95       1.0  0.42370  0.59090  0.11904  1.0000 0.1788519367
C   C96       1.0  0.57630  0.40910  0.61904  1.0000 0.1788519367
C   C97       1.0  0.49480  0.37270  0.81911  1.0000 0.1570890665
C   C98       1.0  0.50520  0.62730  0.31911  1.0000 0.1570890665
C   C99       1.0  0.12730  0.99480  0.56911  1.0000 0.1570890665
C   C100      1.0  0.87270  0.00520  0.06911  1.0000 0.1570890665
C   C101      1.0  0.00520  0.87270  0.93089  1.0000 0.1570890665
C   C102      1.0  0.99480  0.12730  0.43089  1.0000 0.1570890665
C   C103      1.0  0.37270  0.49480  0.18089  1.0000 0.1570890665
C   C104      1.0  0.62730  0.50520  0.68089  1.0000 0.1570890665
C   C105      1.0  0.43920  0.31070  0.78887  1.0000 0.0211675202
C   C106      1.0  0.56080  0.68930  0.28887  1.0000 0.0211675202
C   C107      1.0  0.18930  0.93920  0.53887  1.0000 0.0211675202
C   C108      1.0  0.81070  0.06080  0.03887  1.0000 0.0211675202
C   C109      1.0  0.06080  0.81070  0.96113  1.0000 0.0211675202
C   C110      1.0  0.93920  0.18930  0.46113  1.0000 0.0211675202
C   C111      1.0  0.31070  0.43920  0.21113  1.0000 0.0211675202
C   C112      1.0  0.68930  0.56080  0.71113  1.0000 0.0211675202
C   C113      1.0  0.45630  0.28050  0.73017  1.0000 -0.1675575666
C   C114      1.0  0.54370  0.71950  0.23017  1.0000 -0.1675575666
C   C115      1.0  0.21950  0.95630  0.48017  1.0000 -0.1675575666
C   C116      1.0  0.78050  0.04370  0.98017  1.0000 -0.1675575666
C   C117      1.0  0.04370  0.78050  0.01983  1.0000 -0.1675575666
C   C118      1.0  0.95630  0.21950  0.51983  1.0000 -0.1675575666
C   C119      1.0  0.28050  0.45630  0.26983  1.0000 -0.1675575666
C   C120      1.0  0.71950  0.54370  0.76983  1.0000 -0.1675575666
C   C121      1.0  0.40070  0.22200  0.70400  1.0000 -0.1043888491
C   C122      1.0  0.59930  0.77800  0.20400  1.0000 -0.1043888491
C   C123      1.0  0.27800  0.90070  0.45400  1.0000 -0.1043888491
C   C124      1.0  0.72200  0.09930  0.95400  1.0000 -0.1043888491
C   C125      1.0  0.09930  0.72200  0.04600  1.0000 -0.1043888491
C   C126      1.0  0.90070  0.27800  0.54600  1.0000 -0.1043888491
C   C127      1.0  0.22200  0.40070  0.29600  1.0000 -0.1043888491
C   C128      1.0  0.77800  0.59930  0.79600  1.0000 -0.1043888491
C   C129      1.0  0.33260  0.19310  0.73690  1.0000 -0.1610490704
C   C130      1.0  0.66740  0.80690  0.23690  1.0000 -0.1610490704
C   C131      1.0  0.30690  0.83260  0.48690  1.0000 -0.1610490704
C   C132      1.0  0.69310  0.16740  0.98690  1.0000 -0.1610490704
C   C133      1.0  0.16740  0.69310  0.01310  1.0000 -0.1610490704
C   C134      1.0  0.83260  0.30690  0.51310  1.0000 -0.1610490704
C   C135      1.0  0.19310  0.33260  0.26310  1.0000 -0.1610490704
C   C136      1.0  0.80690  0.66740  0.76310  1.0000 -0.1610490704
C   C137      1.0  0.31630  0.22190  0.79645  1.0000 0.0668682589
C   C138      1.0  0.68370  0.77810  0.29645  1.0000 0.0668682589
C   C139      1.0  0.27810  0.81630  0.54645  1.0000 0.0668682589
C   C140      1.0  0.72190  0.18370  0.04645  1.0000 0.0668682589
C   C141      1.0  0.18370  0.72190  0.95355  1.0000 0.0668682589
C   C142      1.0  0.81630  0.27810  0.45355  1.0000 0.0668682589
C   C143      1.0  0.22190  0.31630  0.20355  1.0000 0.0668682589
C   C144      1.0  0.77810  0.68370  0.70355  1.0000 0.0668682589
C   C145      1.0  0.37020  0.28180  0.82144  1.0000 -0.2067535624
C   C146      1.0  0.62980  0.71820  0.32144  1.0000 -0.2067535624
C   C147      1.0  0.21820  0.87020  0.57144  1.0000 -0.2067535624
C   C148      1.0  0.78180  0.12980  0.07144  1.0000 -0.2067535624
C   C149      1.0  0.12980  0.78180  0.92856  1.0000 -0.2067535624
C   C150      1.0  0.87020  0.21820  0.42856  1.0000 -0.2067535624
C   C151      1.0  0.28180  0.37020  0.17856  1.0000 -0.2067535624
C   C152      1.0  0.71820  0.62980  0.67856  1.0000 -0.2067535624
C   C153      1.0  0.24460  0.19120  0.83356  1.0000 0.1102975463
C   C154      1.0  0.75540  0.80880  0.33356  1.0000 0.1102975463
C   C155      1.0  0.30880  0.74460  0.58356  1.0000 0.1102975463
C   C156      1.0  0.69120  0.25540  0.08356  1.0000 0.1102975463
C   C157      1.0  0.25540  0.69120  0.91644  1.0000 0.1102975463
C   C158      1.0  0.74460  0.30880  0.41644  1.0000 0.1102975463
C   C159      1.0  0.19120  0.24460  0.16644  1.0000 0.1102975463
C   C160      1.0  0.80880  0.75540  0.66644  1.0000 0.1102975463
C   C161      1.0  0.20170  0.11620  0.82003  1.0000 -0.2067535624
C   C162      1.0  0.79830  0.88380  0.32003  1.0000 -0.2067535624
C   C163      1.0  0.38380  0.70170  0.57003  1.0000 -0.2067535624
C   C164      1.0  0.61620  0.29830  0.07003  1.0000 -0.2067535624
C   C165      1.0  0.29830  0.61620  0.92997  1.0000 -0.2067535624
C   C166      1.0  0.70170  0.38380  0.42997  1.0000 -0.2067535624
C   C167      1.0  0.11620  0.20170  0.17997  1.0000 -0.2067535624
C   C168      1.0  0.88380  0.79830  0.67997  1.0000 -0.2067535624
C   C169      1.0  0.14200  0.08670  0.86027  1.0000 0.0535644737
C   C170      1.0  0.85800  0.91330  0.36027  1.0000 0.0535644737
C   C171      1.0  0.41330  0.64200  0.61027  1.0000 0.0535644737
C   C172      1.0  0.58670  0.35800  0.11027  1.0000 0.0535644737
C   C173      1.0  0.35800  0.58670  0.88973  1.0000 0.0535644737
C   C174      1.0  0.64200  0.41330  0.38973  1.0000 0.0535644737
C   C175      1.0  0.08670  0.14200  0.13973  1.0000 0.0535644737
C   C176      1.0  0.91330  0.85800  0.63973  1.0000 0.0535644737
C   C177      1.0  0.15700  0.19950  0.92333  1.0000 0.0321276707
C   C178      1.0  0.84300  0.80050  0.42333  1.0000 0.0321276707
C   C179      1.0  0.30050  0.65700  0.67333  1.0000 0.0321276707
C   C180      1.0  0.69950  0.34300  0.17333  1.0000 0.0321276707
C   C181      1.0  0.34300  0.69950  0.82667  1.0000 0.0321276707
C   C182      1.0  0.65700  0.30050  0.32667  1.0000 0.0321276707
C   C183      1.0  0.19950  0.15700  0.07667  1.0000 0.0321276707
C   C184      1.0  0.80050  0.84300  0.57667  1.0000 0.0321276707
C   C185      1.0  0.21660  0.23400  0.88561  1.0000 -0.2067535624
C   C186      1.0  0.78340  0.76600  0.38561  1.0000 -0.2067535624
C   C187      1.0  0.26600  0.71660  0.63561  1.0000 -0.2067535624
C   C188      1.0  0.73400  0.28340  0.13561  1.0000 -0.2067535624
C   C189      1.0  0.28340  0.73400  0.86439  1.0000 -0.2067535624
C   C190      1.0  0.71660  0.26600  0.36439  1.0000 -0.2067535624
C   C191      1.0  0.23400  0.21660  0.11439  1.0000 -0.2067535624
C   C192      1.0  0.76600  0.78340  0.61439  1.0000 -0.2067535624
N   N1        1.0  0.55380  0.48733  0.85469  1.0000 -0.2764613435
N   N2        1.0  0.44620  0.51267  0.35469  1.0000 -0.2764613435
N   N3        1.0  0.01267  0.05380  0.60469  1.0000 -0.2764613435
N   N4        1.0  0.98733  0.94620  0.10469  1.0000 -0.2764613435
N   N5        1.0  0.94620  0.98733  0.89531  1.0000 -0.2764613435
N   N6        1.0  0.05380  0.01267  0.39531  1.0000 -0.2764613435
N   N7        1.0  0.48733  0.55380  0.14531  1.0000 -0.2764613435
N   N8        1.0  0.51267  0.44620  0.64531  1.0000 -0.2764613435
N   N9        1.0  0.49271  0.45517  0.81577  1.0000 -0.2298256683
N   N10       1.0  0.50729  0.54483  0.31577  1.0000 -0.2298256683
N   N11       1.0  0.04483  0.99271  0.56577  1.0000 -0.2298256683
N   N12       1.0  0.95517  0.00729  0.06577  1.0000 -0.2298256683
N   N13       1.0  0.00729  0.95517  0.93423  1.0000 -0.2298256683
N   N14       1.0  0.99271  0.04483  0.43423  1.0000 -0.2298256683
N   N15       1.0  0.45517  0.49271  0.18423  1.0000 -0.2298256683
N   N16       1.0  0.54483  0.50729  0.68423  1.0000 -0.2298256683
N   N17       1.0  0.55570  0.35061  0.85993  1.0000 0.0535644737
N   N18       1.0  0.44430  0.64939  0.35993  1.0000 0.0535644737
N   N19       1.0  0.14939  0.05570  0.60993  1.0000 0.0535644737
N   N20       1.0  0.85061  0.94430  0.10993  1.0000 0.0535644737
N   N21       1.0  0.94430  0.85061  0.89007  1.0000 0.0535644737
N   N22       1.0  0.05570  0.14939  0.39007  1.0000 0.0535644737
N   N23       1.0  0.35061  0.55570  0.14007  1.0000 0.0535644737
N   N24       1.0  0.64939  0.44430  0.64007  1.0000 0.0535644737
N   N25       1.0  0.57520  0.26880  0.88073  1.0000 -0.5173467949
N   N26       1.0  0.42480  0.73120  0.38073  1.0000 -0.5173467949
N   N27       1.0  0.23120  0.07520  0.63073  1.0000 -0.5173467949
N   N28       1.0  0.76880  0.92480  0.13073  1.0000 -0.5173467949
N   N29       1.0  0.92480  0.76880  0.86927  1.0000 -0.5173467949
N   N30       1.0  0.07520  0.23120  0.36927  1.0000 -0.5173467949
N   N31       1.0  0.26880  0.57520  0.11927  1.0000 -0.5173467949
N   N32       1.0  0.73120  0.42480  0.61927  1.0000 -0.5173467949
N   N33       1.0  0.97525  0.18710  0.99143  1.0000 -0.23815016
N   N34       1.0  0.02475  0.81290  0.49143  1.0000 -0.23815016
N   N35       1.0  0.31290  0.47525  0.74143  1.0000 -0.23815016
N   N36       1.0  0.68710  0.52475  0.24143  1.0000 -0.23815016
N   N37       1.0  0.52475  0.68710  0.75857  1.0000 -0.23815016
N   N38       1.0  0.47525  0.31290  0.25857  1.0000 -0.23815016
N   N39       1.0  0.18710  0.97525  0.00857  1.0000 -0.23815016
N   N40       1.0  0.81290  0.02475  0.50857  1.0000 -0.23815016
N   N41       1.0  0.12030  0.12510  0.91255  1.0000 -0.2298256683
N   N42       1.0  0.87970  0.87490  0.41255  1.0000 -0.2298256683
N   N43       1.0  0.37490  0.62030  0.66255  1.0000 -0.2298256683
N   N44       1.0  0.62510  0.37970  0.16255  1.0000 -0.2298256683
N   N45       1.0  0.37970  0.62510  0.83745  1.0000 -0.2298256683
N   N46       1.0  0.62030  0.37490  0.33745  1.0000 -0.2298256683
N   N47       1.0  0.12510  0.12030  0.08745  1.0000 -0.2298256683
N   N48       1.0  0.87490  0.87970  0.58745  1.0000 -0.2298256683
