# DDEC6 charges by PACMAN v1.1 (https://github.com/mtap-research/PACMAN-charge/)
data_2009[TbCu][stp]3[FSR]1
_chemical_formula_sum              "Tb4 Cu6 H60 C48 N12 O48"
_cell_length_a       13.352
_cell_length_b       13.352
_cell_length_c       14.414
_cell_angle_alpha    90
_cell_angle_beta     90
_cell_angle_gamma    120

_symmetry_space_group_name_H-M    "P 1"
_symmetry_Int_Tables_number       1

loop_
  _symmetry_equiv_pos_as_xyz
  'x, y, z'

loop_
  _atom_site_type_symbol
  _atom_site_label
  _atom_site_symmetry_multiplicity
  _atom_site_fract_x
  _atom_site_fract_y
  _atom_site_fract_z
  _atom_site_occupancy
  _atom_site_charge
Tb  Tb1       1.0  0.66667  0.33333  0.83240  1.0000 2.048658159
Tb  Tb2       1.0  0.33333  0.66667  0.66760  1.0000 2.048658159
Tb  Tb3       1.0  0.33333  0.66667  0.16760  1.0000 2.048658159
Tb  Tb4       1.0  0.66667  0.33333  0.33240  1.0000 2.048658159
Cu  Cu1       1.0  0.50000  0.00000  0.00000  1.0000 0.756259299
Cu  Cu2       1.0  0.00000  0.50000  0.00000  1.0000 0.756259299
Cu  Cu3       1.0  0.50000  0.50000  0.00000  1.0000 0.756259299
Cu  Cu4       1.0  0.00000  0.50000  0.50000  1.0000 0.756259299
Cu  Cu5       1.0  0.50000  0.50000  0.50000  1.0000 0.756259299
Cu  Cu6       1.0  0.50000  0.00000  0.50000  1.0000 0.756259299
H   H1        1.0  0.02390  0.35070  0.57880  1.0000 0.2583148148
H   H2        1.0  0.64930  0.67320  0.57880  1.0000 0.2583148148
H   H3        1.0  0.32680  0.97610  0.57880  1.0000 0.2583148148
H   H4        1.0  0.35070  0.02390  0.92120  1.0000 0.2583148148
H   H5        1.0  0.97610  0.32680  0.92120  1.0000 0.2583148148
H   H6        1.0  0.67320  0.64930  0.92120  1.0000 0.2583148148
H   H7        1.0  0.97610  0.64930  0.42120  1.0000 0.2583148148
H   H8        1.0  0.35070  0.32680  0.42120  1.0000 0.2583148148
H   H9        1.0  0.67320  0.02390  0.42120  1.0000 0.2583148148
H   H10       1.0  0.64930  0.97610  0.07880  1.0000 0.2583148148
H   H11       1.0  0.02390  0.67320  0.07880  1.0000 0.2583148148
H   H12       1.0  0.32680  0.35070  0.07880  1.0000 0.2583148148
H   H13       1.0  0.91460  0.31340  0.69440  1.0000 0.1547416862
H   H14       1.0  0.68660  0.60120  0.69440  1.0000 0.1547416862
H   H15       1.0  0.39880  0.08540  0.69440  1.0000 0.1547416862
H   H16       1.0  0.31340  0.91460  0.80560  1.0000 0.1547416862
H   H17       1.0  0.08540  0.39880  0.80560  1.0000 0.1547416862
H   H18       1.0  0.60120  0.68660  0.80560  1.0000 0.1547416862
H   H19       1.0  0.08540  0.68660  0.30560  1.0000 0.1547416862
H   H20       1.0  0.31340  0.39880  0.30560  1.0000 0.1547416862
H   H21       1.0  0.60120  0.91460  0.30560  1.0000 0.1547416862
H   H22       1.0  0.68660  0.08540  0.19440  1.0000 0.1547416862
H   H23       1.0  0.91460  0.60120  0.19440  1.0000 0.1547416862
H   H24       1.0  0.39880  0.31340  0.19440  1.0000 0.1547416862
H   H25       1.0  0.80640  0.26610  0.62910  1.0000 0.1577615704
H   H26       1.0  0.73390  0.54030  0.62910  1.0000 0.1577615704
H   H27       1.0  0.45970  0.19360  0.62910  1.0000 0.1577615704
H   H28       1.0  0.26610  0.80640  0.87090  1.0000 0.1577615704
H   H29       1.0  0.19360  0.45970  0.87090  1.0000 0.1577615704
H   H30       1.0  0.54030  0.73390  0.87090  1.0000 0.1577615704
H   H31       1.0  0.19360  0.73390  0.37090  1.0000 0.1577615704
H   H32       1.0  0.26610  0.45970  0.37090  1.0000 0.1577615704
H   H33       1.0  0.54030  0.80640  0.37090  1.0000 0.1577615704
H   H34       1.0  0.73390  0.19360  0.12910  1.0000 0.1577615704
H   H35       1.0  0.80640  0.54030  0.12910  1.0000 0.1577615704
H   H36       1.0  0.45970  0.26610  0.12910  1.0000 0.1577615704
H   H37       1.0  0.86120  0.18000  0.52280  1.0000 0.1319206373
H   H38       1.0  0.82000  0.68120  0.52280  1.0000 0.1319206373
H   H39       1.0  0.31880  0.13880  0.52280  1.0000 0.1319206373
H   H40       1.0  0.18000  0.86120  0.97720  1.0000 0.1319206373
H   H41       1.0  0.13880  0.31880  0.97720  1.0000 0.1319206373
H   H42       1.0  0.68120  0.82000  0.97720  1.0000 0.1319206373
H   H43       1.0  0.13880  0.82000  0.47720  1.0000 0.1319206373
H   H44       1.0  0.18000  0.31880  0.47720  1.0000 0.1319206373
H   H45       1.0  0.68120  0.86120  0.47720  1.0000 0.1319206373
H   H46       1.0  0.82000  0.13880  0.02280  1.0000 0.1319206373
H   H47       1.0  0.86120  0.68120  0.02280  1.0000 0.1319206373
H   H48       1.0  0.31880  0.18000  0.02280  1.0000 0.1319206373
H   H49       1.0  0.96020  0.25220  0.45120  1.0000 0.1426051971
H   H50       1.0  0.74780  0.70800  0.45120  1.0000 0.1426051971
H   H51       1.0  0.29200  0.03980  0.45120  1.0000 0.1426051971
H   H52       1.0  0.25220  0.96020  0.04880  1.0000 0.1426051971
H   H53       1.0  0.03980  0.29200  0.04880  1.0000 0.1426051971
H   H54       1.0  0.70800  0.74780  0.04880  1.0000 0.1426051971
H   H55       1.0  0.03980  0.74780  0.54880  1.0000 0.1426051971
H   H56       1.0  0.25220  0.29200  0.54880  1.0000 0.1426051971
H   H57       1.0  0.70800  0.96020  0.54880  1.0000 0.1426051971
H   H58       1.0  0.74780  0.03980  0.95120  1.0000 0.1426051971
H   H59       1.0  0.96020  0.70800  0.95120  1.0000 0.1426051971
H   H60       1.0  0.29200  0.25220  0.95120  1.0000 0.1426051971
C   C1        1.0  0.87360  0.43580  0.66020  1.0000 0.6573424604
C   C2        1.0  0.56420  0.43780  0.66020  1.0000 0.6573424604
C   C3        1.0  0.56220  0.12640  0.66020  1.0000 0.6573424604
C   C4        1.0  0.43580  0.87360  0.83980  1.0000 0.6573424604
C   C5        1.0  0.12640  0.56220  0.83980  1.0000 0.6573424604
C   C6        1.0  0.43780  0.56420  0.83980  1.0000 0.6573424604
C   C7        1.0  0.12640  0.56420  0.33980  1.0000 0.6573424604
C   C8        1.0  0.43580  0.56220  0.33980  1.0000 0.6573424604
C   C9        1.0  0.43780  0.87360  0.33980  1.0000 0.6573424604
C   C10       1.0  0.56420  0.12640  0.16020  1.0000 0.6573424604
C   C11       1.0  0.87360  0.43780  0.16020  1.0000 0.6573424604
C   C12       1.0  0.56220  0.43580  0.16020  1.0000 0.6573424604
C   C13       1.0  0.88300  0.33130  0.64040  1.0000 -0.270363364
C   C14       1.0  0.66870  0.55170  0.64040  1.0000 -0.270363364
C   C15       1.0  0.44830  0.11700  0.64040  1.0000 -0.270363364
C   C16       1.0  0.33130  0.88300  0.85960  1.0000 -0.270363364
C   C17       1.0  0.11700  0.44830  0.85960  1.0000 -0.270363364
C   C18       1.0  0.55170  0.66870  0.85960  1.0000 -0.270363364
C   C19       1.0  0.11700  0.66870  0.35960  1.0000 -0.270363364
C   C20       1.0  0.33130  0.44830  0.35960  1.0000 -0.270363364
C   C21       1.0  0.55170  0.88300  0.35960  1.0000 -0.270363364
C   C22       1.0  0.66870  0.11700  0.14040  1.0000 -0.270363364
C   C23       1.0  0.88300  0.55170  0.14040  1.0000 -0.270363364
C   C24       1.0  0.44830  0.33130  0.14040  1.0000 -0.270363364
C   C25       1.0  0.81620  0.26960  0.43030  1.0000 0.617711034
C   C26       1.0  0.73040  0.54660  0.43030  1.0000 0.617711034
C   C27       1.0  0.45340  0.18380  0.43030  1.0000 0.617711034
C   C28       1.0  0.26960  0.81620  0.06970  1.0000 0.617711034
C   C29       1.0  0.18380  0.45340  0.06970  1.0000 0.617711034
C   C30       1.0  0.54660  0.73040  0.06970  1.0000 0.617711034
C   C31       1.0  0.18380  0.73040  0.56970  1.0000 0.617711034
C   C32       1.0  0.26960  0.45340  0.56970  1.0000 0.617711034
C   C33       1.0  0.54660  0.81620  0.56970  1.0000 0.617711034
C   C34       1.0  0.73040  0.18380  0.93030  1.0000 0.617711034
C   C35       1.0  0.81620  0.54660  0.93030  1.0000 0.617711034
C   C36       1.0  0.45340  0.26960  0.93030  1.0000 0.617711034
C   C37       1.0  0.90180  0.25340  0.49050  1.0000 -0.236420143
C   C38       1.0  0.74660  0.64840  0.49050  1.0000 -0.236420143
C   C39       1.0  0.35160  0.09820  0.49050  1.0000 -0.236420143
C   C40       1.0  0.25340  0.90180  0.00950  1.0000 -0.236420143
C   C41       1.0  0.09820  0.35160  0.00950  1.0000 -0.236420143
C   C42       1.0  0.64840  0.74660  0.00950  1.0000 -0.236420143
C   C43       1.0  0.09820  0.74660  0.50950  1.0000 -0.236420143
C   C44       1.0  0.25340  0.35160  0.50950  1.0000 -0.236420143
C   C45       1.0  0.64840  0.90180  0.50950  1.0000 -0.236420143
C   C46       1.0  0.74660  0.09820  0.99050  1.0000 -0.236420143
C   C47       1.0  0.90180  0.64840  0.99050  1.0000 -0.236420143
C   C48       1.0  0.35160  0.25340  0.99050  1.0000 -0.236420143
N   N1        1.0  0.95800  0.34780  0.55860  1.0000 -0.2539928788
N   N2        1.0  0.65220  0.61020  0.55860  1.0000 -0.2539928788
N   N3        1.0  0.38980  0.04200  0.55860  1.0000 -0.2539928788
N   N4        1.0  0.34780  0.95800  0.94140  1.0000 -0.2539928788
N   N5        1.0  0.04200  0.38980  0.94140  1.0000 -0.2539928788
N   N6        1.0  0.61020  0.65220  0.94140  1.0000 -0.2539928788
N   N7        1.0  0.04200  0.65220  0.44140  1.0000 -0.2539928788
N   N8        1.0  0.34780  0.38980  0.44140  1.0000 -0.2539928788
N   N9        1.0  0.61020  0.95800  0.44140  1.0000 -0.2539928788
N   N10       1.0  0.65220  0.04200  0.05860  1.0000 -0.2539928788
N   N11       1.0  0.95800  0.61020  0.05860  1.0000 -0.2539928788
N   N12       1.0  0.38980  0.34780  0.05860  1.0000 -0.2539928788
O   O1        1.0  0.81580  0.43460  0.72870  1.0000 -0.6527149661
O   O2        1.0  0.56540  0.38120  0.72870  1.0000 -0.6527149661
O   O3        1.0  0.61880  0.18420  0.72870  1.0000 -0.6527149661
O   O4        1.0  0.43460  0.81580  0.77130  1.0000 -0.6527149661
O   O5        1.0  0.18420  0.61880  0.77130  1.0000 -0.6527149661
O   O6        1.0  0.38120  0.56540  0.77130  1.0000 -0.6527149661
O   O7        1.0  0.18420  0.56540  0.27130  1.0000 -0.6527149661
O   O8        1.0  0.43460  0.61880  0.27130  1.0000 -0.6527149661
O   O9        1.0  0.38120  0.81580  0.27130  1.0000 -0.6527149661
O   O10       1.0  0.56540  0.18420  0.22870  1.0000 -0.6527149661
O   O11       1.0  0.81580  0.38120  0.22870  1.0000 -0.6527149661
O   O12       1.0  0.61880  0.43460  0.22870  1.0000 -0.6527149661
O   O13       1.0  0.92550  0.52360  0.60770  1.0000 -0.5167018507
O   O14       1.0  0.47640  0.40190  0.60770  1.0000 -0.5167018507
O   O15       1.0  0.59810  0.07450  0.60770  1.0000 -0.5167018507
O   O16       1.0  0.52360  0.92550  0.89230  1.0000 -0.5167018507
O   O17       1.0  0.07450  0.59810  0.89230  1.0000 -0.5167018507
O   O18       1.0  0.40190  0.47640  0.89230  1.0000 -0.5167018507
O   O19       1.0  0.07450  0.47640  0.39230  1.0000 -0.5167018507
O   O20       1.0  0.52360  0.59810  0.39230  1.0000 -0.5167018507
O   O21       1.0  0.40190  0.92550  0.39230  1.0000 -0.5167018507
O   O22       1.0  0.47640  0.07450  0.10770  1.0000 -0.5167018507
O   O23       1.0  0.92550  0.40190  0.10770  1.0000 -0.5167018507
O   O24       1.0  0.59810  0.52360  0.10770  1.0000 -0.5167018507
O   O25       1.0  0.81130  0.36070  0.44140  1.0000 -0.6527149661
O   O26       1.0  0.63930  0.45060  0.44140  1.0000 -0.6527149661
O   O27       1.0  0.54940  0.18870  0.44140  1.0000 -0.6527149661
O   O28       1.0  0.36070  0.81130  0.05860  1.0000 -0.6527149661
O   O29       1.0  0.18870  0.54940  0.05860  1.0000 -0.6527149661
O   O30       1.0  0.45060  0.63930  0.05860  1.0000 -0.6527149661
O   O31       1.0  0.18870  0.63930  0.55860  1.0000 -0.6527149661
O   O32       1.0  0.36070  0.54940  0.55860  1.0000 -0.6527149661
O   O33       1.0  0.45060  0.81130  0.55860  1.0000 -0.6527149661
O   O34       1.0  0.63930  0.18870  0.94140  1.0000 -0.6527149661
O   O35       1.0  0.81130  0.45060  0.94140  1.0000 -0.6527149661
O   O36       1.0  0.54940  0.36070  0.94140  1.0000 -0.6527149661
O   O37       1.0  0.75530  0.19420  0.37240  1.0000 -0.5985049341
O   O38       1.0  0.80580  0.56110  0.37240  1.0000 -0.5985049341
O   O39       1.0  0.43890  0.24470  0.37240  1.0000 -0.5985049341
O   O40       1.0  0.19420  0.75530  0.12760  1.0000 -0.5985049341
O   O41       1.0  0.24470  0.43890  0.12760  1.0000 -0.5985049341
O   O42       1.0  0.56110  0.80580  0.12760  1.0000 -0.5985049341
O   O43       1.0  0.24470  0.80580  0.62760  1.0000 -0.5985049341
O   O44       1.0  0.19420  0.43890  0.62760  1.0000 -0.5985049341
O   O45       1.0  0.56110  0.75530  0.62760  1.0000 -0.5985049341
O   O46       1.0  0.80580  0.24470  0.87240  1.0000 -0.5985049341
O   O47       1.0  0.75530  0.56110  0.87240  1.0000 -0.5985049341
O   O48       1.0  0.43890  0.19420  0.87240  1.0000 -0.5985049341
