# DDEC6 charges by PACMAN v1.1 (https://github.com/mtap-research/PACMAN-charge/)
data_2009[Tb][nan]3[FSR]1
_chemical_formula_sum              "Tb2 H12 C12 O20"
_cell_length_a       5.99
_cell_length_b       7.435
_cell_length_c       13.323
_cell_angle_alpha    102.89
_cell_angle_beta     101.55
_cell_angle_gamma    90.85

_symmetry_space_group_name_H-M    "P 1"
_symmetry_Int_Tables_number       1

loop_
  _symmetry_equiv_pos_as_xyz
  'x, y, z'

loop_
  _atom_site_type_symbol
  _atom_site_label
  _atom_site_symmetry_multiplicity
  _atom_site_fract_x
  _atom_site_fract_y
  _atom_site_fract_z
  _atom_site_occupancy
  _atom_site_charge
Tb  Tb1       1.0  0.76233  0.36241  0.88143  1.0000 1.9682960999
Tb  Tb2       1.0  0.80047  0.00015  0.24053  1.0000 1.9682960999
H   H1        1.0  0.13690  0.14030  0.61630  1.0000 0.1197707471
H   H2        1.0  0.42780  0.08050  0.51860  1.0000 0.1197707471
H   H3        1.0  0.27340  0.49650  0.12800  1.0000 0.1343300832
H   H4        1.0  0.24760  0.45860  0.28710  1.0000 0.1383398465
H   H5        1.0  0.32810  0.78030  0.83140  1.0000 0.1383398465
H   H6        1.0  0.30310  0.93270  0.99860  1.0000 0.1383398465
H   H7        1.0  0.01970  0.43310  0.55470  1.0000 0.3673116458
H   H8        1.0  0.56150  0.31290  0.47000  1.0000 0.3590433192
H   H9        1.0  0.40900  0.78370  0.26010  1.0000 0.3971136105
H   H10       1.0  0.50250  0.95000  0.32590  1.0000 0.3673116458
H   H11       1.0  0.13750  0.15830  0.78500  1.0000 0.4069607151
H   H12       1.0  0.05280  0.16380  0.87580  1.0000 0.3673116458
C   C1        1.0  0.99800  0.11900  0.45870  1.0000 0.5523850513
C   C2        1.0  0.15400  0.21080  0.56400  1.0000 0.0184656712
C   C3        1.0  0.39900  0.20800  0.54950  1.0000 0.0256811199
C   C4        1.0  0.56000  0.26800  0.65650  1.0000 0.5523850513
C   C5        1.0  0.94300  0.56830  0.13190  1.0000 0.642066021
C   C6        1.0  0.13100  0.43160  0.12920  1.0000 0.0016003861
C   C7        1.0  0.16130  0.36190  0.22920  1.0000 0.0184656712
C   C8        1.0  0.29360  0.18340  0.22410  1.0000 0.6215141905
C   C9        1.0  0.27560  0.55340  0.89140  1.0000 0.628997196
C   C10       1.0  0.40790  0.72590  0.88810  1.0000 0.0184656712
C   C11       1.0  0.44600  0.87070  0.99620  1.0000 0.0184656712
C   C12       1.0  0.62600  0.01550  0.99430  1.0000 0.642066021
O   O1        1.0  0.82280  0.20180  0.42000  1.0000 -0.6320048678
O   O2        1.0  0.03710  0.96390  0.41150  1.0000 -0.543600421
O   O3        1.0  0.10580  0.39810  0.60160  1.0000 -0.3919392633
O   O4        1.0  0.42950  0.31690  0.47840  1.0000 -0.4289294887
O   O5        1.0  0.70090  0.39640  0.68100  1.0000 -0.4702378321
O   O6        1.0  0.53220  0.16940  0.72290  1.0000 -0.6320048678
O   O7        1.0  0.96370  0.70400  0.20580  1.0000 -0.5519173848
O   O8        1.0  0.76950  0.53180  0.05480  1.0000 -0.558685075
O   O9        1.0  0.06620  0.28630  0.03340  1.0000 -0.4226310807
O   O10       1.0  0.94490  0.32620  0.25350  1.0000 -0.4289294887
O   O11       1.0  0.49610  0.19630  0.21780  1.0000 -0.5801382967
O   O12       1.0  0.19010  0.04210  0.23090  1.0000 -0.5719010341
O   O13       1.0  0.37350  0.40970  0.88910  1.0000 -0.5211637127
O   O14       1.0  0.07100  0.57070  0.89340  1.0000 -0.5801382967
O   O15       1.0  0.62720  0.66940  0.86880  1.0000 -0.4289294887
O   O16       1.0  0.49810  0.80000  0.08490  1.0000 -0.4226310807
O   O17       1.0  0.79870  0.03600  0.06830  1.0000 -0.543600421
O   O18       1.0  0.60070  0.09730  0.92050  1.0000 -0.5801382967
O   O19       1.0  0.52720  0.83720  0.30400  1.0000 -0.7133343327
O   O20       1.0  0.01840  0.14720  0.80920  1.0000 -0.7282388913
