# DDEC6 charges by PACMAN v1.1 (https://github.com/mtap-research/PACMAN-charge/)
data_2009[Ag][nan]3[FSR]1
_chemical_formula_sum              "Ag8 H12 C28 N4 O16"
_cell_length_a       9.98971
_cell_length_b       9.98971
_cell_length_c       10.389
_cell_angle_alpha    72.3345
_cell_angle_beta     107.665
_cell_angle_gamma    80.3484

_symmetry_space_group_name_H-M    "P 1"
_symmetry_Int_Tables_number       1

loop_
  _symmetry_equiv_pos_as_xyz
  'x, y, z'

loop_
  _atom_site_type_symbol
  _atom_site_label
  _atom_site_symmetry_multiplicity
  _atom_site_fract_x
  _atom_site_fract_y
  _atom_site_fract_z
  _atom_site_occupancy
  _atom_site_charge
Ag  Ag1       1.0  0.74625  0.89251  0.57359  1.0000 0.4133330126
Ag  Ag2       1.0  0.89251  0.74625  0.92641  1.0000 0.4133330126
Ag  Ag3       1.0  0.25375  0.10749  0.42641  1.0000 0.4133330126
Ag  Ag4       1.0  0.10749  0.25375  0.07359  1.0000 0.4133330126
Ag  Ag5       1.0  0.78850  0.51032  0.85896  1.0000 0.3627849658
Ag  Ag6       1.0  0.51032  0.78850  0.64104  1.0000 0.3627849658
Ag  Ag7       1.0  0.21150  0.48968  0.14104  1.0000 0.3627849658
Ag  Ag8       1.0  0.48968  0.21150  0.35896  1.0000 0.3627849658
H   H1        1.0  0.74260  0.23520  0.76160  1.0000 0.1182031621
H   H2        1.0  0.23520  0.74260  0.73840  1.0000 0.1182031621
H   H3        1.0  0.25740  0.76480  0.23840  1.0000 0.1182031621
H   H4        1.0  0.76480  0.25740  0.26160  1.0000 0.1182031621
H   H5        1.0  0.41600  0.10200  0.85370  1.0000 0.1421986957
H   H6        1.0  0.10200  0.41600  0.64630  1.0000 0.1421986957
H   H7        1.0  0.58400  0.89800  0.14630  1.0000 0.1421986957
H   H8        1.0  0.89800  0.58400  0.35370  1.0000 0.1421986957
H   H9        1.0  0.56790  0.40170  0.98610  1.0000 0.1068677221
H   H10       1.0  0.40170  0.56790  0.51390  1.0000 0.1068677221
H   H11       1.0  0.43210  0.59830  0.01390  1.0000 0.1068677221
H   H12       1.0  0.59830  0.43210  0.48610  1.0000 0.1068677221
C   C1        1.0  0.67390  0.24070  0.80490  1.0000 0.0537985255
C   C2        1.0  0.24070  0.67390  0.69510  1.0000 0.0537985255
C   C3        1.0  0.32610  0.75930  0.19510  1.0000 0.0537985255
C   C4        1.0  0.75930  0.32610  0.30490  1.0000 0.0537985255
C   C5        1.0  0.58270  0.15070  0.79840  1.0000 -0.0406561653
C   C6        1.0  0.15070  0.58270  0.70160  1.0000 -0.0406561653
C   C7        1.0  0.41730  0.84930  0.20160  1.0000 -0.0406561653
C   C8        1.0  0.84930  0.41730  0.29840  1.0000 -0.0406561653
C   C9        1.0  0.59520  0.04620  0.71990  1.0000 0.5445626517
C   C10       1.0  0.04620  0.59520  0.78010  1.0000 0.5445626517
C   C11       1.0  0.40480  0.95380  0.28010  1.0000 0.5445626517
C   C12       1.0  0.95380  0.40480  0.21990  1.0000 0.5445626517
C   C13       1.0  0.48000  0.15960  0.85990  1.0000 -0.061275167
C   C14       1.0  0.15960  0.48000  0.64010  1.0000 -0.061275167
C   C15       1.0  0.52000  0.84040  0.14010  1.0000 -0.061275167
C   C16       1.0  0.84040  0.52000  0.35990  1.0000 -0.061275167
C   C17       1.0  0.47240  0.25560  0.93190  1.0000 -0.061275167
C   C18       1.0  0.25560  0.47240  0.56810  1.0000 -0.061275167
C   C19       1.0  0.52760  0.74440  0.06810  1.0000 -0.061275167
C   C20       1.0  0.74440  0.52760  0.43190  1.0000 -0.061275167
C   C21       1.0  0.56980  0.33920  0.93580  1.0000 0.0567919564
C   C22       1.0  0.33920  0.56980  0.56420  1.0000 0.0567919564
C   C23       1.0  0.43020  0.66080  0.06420  1.0000 0.0567919564
C   C24       1.0  0.66080  0.43020  0.43580  1.0000 0.0567919564
C   C25       1.0  0.36010  0.27690  0.99930  1.0000 0.5499536236
C   C26       1.0  0.27690  0.36010  0.50070  1.0000 0.5499536236
C   C27       1.0  0.63990  0.72310  0.00070  1.0000 0.5499536236
C   C28       1.0  0.72310  0.63990  0.49930  1.0000 0.5499536236
N   N1        1.0  0.66600  0.33500  0.87160  1.0000 -0.1842459153
N   N2        1.0  0.33500  0.66600  0.62840  1.0000 -0.1842459153
N   N3        1.0  0.33400  0.66500  0.12840  1.0000 -0.1842459153
N   N4        1.0  0.66500  0.33400  0.37160  1.0000 -0.1842459153
O   O1        1.0  0.70140  0.03520  0.68080  1.0000 -0.5163246254
O   O2        1.0  0.03520  0.70140  0.81920  1.0000 -0.5163246254
O   O3        1.0  0.29860  0.96480  0.31920  1.0000 -0.5163246254
O   O4        1.0  0.96480  0.29860  0.18080  1.0000 -0.5163246254
O   O5        1.0  0.49920  0.98260  0.70270  1.0000 -0.4843609865
O   O6        1.0  0.98260  0.49920  0.79730  1.0000 -0.4843609865
O   O7        1.0  0.50080  0.01740  0.29730  1.0000 -0.4843609865
O   O8        1.0  0.01740  0.50080  0.20270  1.0000 -0.4843609865
O   O9        1.0  0.26770  0.20830  0.97970  1.0000 -0.4633606236
O   O10       1.0  0.20830  0.26770  0.52030  1.0000 -0.4633606236
O   O11       1.0  0.73230  0.79170  0.02030  1.0000 -0.4633606236
O   O12       1.0  0.79170  0.73230  0.47970  1.0000 -0.4633606236
O   O13       1.0  0.36790  0.36190  0.06590  1.0000 -0.5369956653
O   O14       1.0  0.36190  0.36790  0.43410  1.0000 -0.5369956653
O   O15       1.0  0.63210  0.63810  0.93410  1.0000 -0.5369956653
O   O16       1.0  0.63810  0.63210  0.56590  1.0000 -0.5369956653
