# DDEC6 charges by PACMAN v1.1 (https://github.com/mtap-research/PACMAN-charge/)
data_2009[La][nan]3[FSR]2
_chemical_formula_sum              "La8 H184 C216 S12 N16 O88"
_cell_length_a       19.5011
_cell_length_b       16.7853
_cell_length_c       24.5349
_cell_angle_alpha    90
_cell_angle_beta     114.183
_cell_angle_gamma    90

_symmetry_space_group_name_H-M    "P 1"
_symmetry_Int_Tables_number       1

loop_
  _symmetry_equiv_pos_as_xyz
  'x, y, z'

loop_
  _atom_site_type_symbol
  _atom_site_label
  _atom_site_symmetry_multiplicity
  _atom_site_fract_x
  _atom_site_fract_y
  _atom_site_fract_z
  _atom_site_occupancy
  _atom_site_charge
La  La1       1.0  0.08171  0.48420  0.96851  1.0000 1.8988879515
La  La2       1.0  0.91829  0.98420  0.53149  1.0000 1.8988879515
La  La3       1.0  0.91829  0.51580  0.03149  1.0000 1.8988879515
La  La4       1.0  0.08171  0.01580  0.46851  1.0000 1.8988879515
La  La5       1.0  0.40157  0.47805  0.01912  1.0000 1.9125211431
La  La6       1.0  0.59843  0.97805  0.48088  1.0000 1.9125211431
La  La7       1.0  0.59843  0.52195  0.98088  1.0000 1.9125211431
La  La8       1.0  0.40157  0.02195  0.51912  1.0000 1.9125211431
H   H1        1.0  0.48080  0.44090  0.30400  1.0000 0.1296469157
H   H2        1.0  0.51920  0.94090  0.19600  1.0000 0.1296469157
H   H3        1.0  0.51920  0.55910  0.69600  1.0000 0.1296469157
H   H4        1.0  0.48080  0.05910  0.80400  1.0000 0.1296469157
H   H5        1.0  0.40670  0.47050  0.25180  1.0000 0.1216824172
H   H6        1.0  0.59330  0.97050  0.24820  1.0000 0.1216824172
H   H7        1.0  0.59330  0.52950  0.74820  1.0000 0.1216824172
H   H8        1.0  0.40670  0.02950  0.75180  1.0000 0.1216824172
H   H9        1.0  0.42730  0.37970  0.25780  1.0000 0.1216824172
H   H10       1.0  0.57270  0.87970  0.24220  1.0000 0.1216824172
H   H11       1.0  0.57270  0.62030  0.74220  1.0000 0.1216824172
H   H12       1.0  0.42730  0.12030  0.75780  1.0000 0.1216824172
H   H13       1.0  0.34350  0.29680  0.09060  1.0000 0.1296469157
H   H14       1.0  0.65650  0.79680  0.40940  1.0000 0.1296469157
H   H15       1.0  0.65650  0.70320  0.90940  1.0000 0.1296469157
H   H16       1.0  0.34350  0.20320  0.59060  1.0000 0.1296469157
H   H17       1.0  0.31380  0.21440  0.10180  1.0000 0.1296469157
H   H18       1.0  0.68620  0.71440  0.39820  1.0000 0.1296469157
H   H19       1.0  0.68620  0.78560  0.89820  1.0000 0.1296469157
H   H20       1.0  0.31380  0.28560  0.60180  1.0000 0.1296469157
H   H21       1.0  0.39960  0.23500  0.13430  1.0000 0.1296469157
H   H22       1.0  0.60040  0.73500  0.36570  1.0000 0.1296469157
H   H23       1.0  0.60040  0.76500  0.86570  1.0000 0.1296469157
H   H24       1.0  0.39960  0.26500  0.63430  1.0000 0.1296469157
H   H25       1.0  0.09550  0.14080  0.01660  1.0000 0.1216824172
H   H26       1.0  0.90450  0.64080  0.48340  1.0000 0.1216824172
H   H27       1.0  0.90450  0.85920  0.98340  1.0000 0.1216824172
H   H28       1.0  0.09550  0.35920  0.51660  1.0000 0.1216824172
H   H29       1.0  0.12670  0.22170  0.04920  1.0000 0.1296469157
H   H30       1.0  0.87330  0.72170  0.45080  1.0000 0.1296469157
H   H31       1.0  0.87330  0.77830  0.95080  1.0000 0.1296469157
H   H32       1.0  0.12670  0.27830  0.54920  1.0000 0.1296469157
H   H33       1.0  0.04800  0.21900  0.99490  1.0000 0.1296469157
H   H34       1.0  0.95200  0.71900  0.50510  1.0000 0.1296469157
H   H35       1.0  0.95200  0.78100  0.00510  1.0000 0.1296469157
H   H36       1.0  0.04800  0.28100  0.49490  1.0000 0.1296469157
H   H37       1.0  0.38480  0.09820  0.07730  1.0000 0.1402039937
H   H38       1.0  0.61520  0.59820  0.42270  1.0000 0.1402039937
H   H39       1.0  0.61520  0.90180  0.92270  1.0000 0.1402039937
H   H40       1.0  0.38480  0.40180  0.57730  1.0000 0.1402039937
H   H41       1.0  0.36820  0.10090  0.00910  1.0000 0.1296469157
H   H42       1.0  0.63180  0.60090  0.49090  1.0000 0.1296469157
H   H43       1.0  0.63180  0.89910  0.99090  1.0000 0.1296469157
H   H44       1.0  0.36820  0.39910  0.50910  1.0000 0.1296469157
H   H45       1.0  0.44720  0.12680  0.05690  1.0000 0.1402039937
H   H46       1.0  0.55280  0.62680  0.44310  1.0000 0.1402039937
H   H47       1.0  0.55280  0.87320  0.94310  1.0000 0.1402039937
H   H48       1.0  0.44720  0.37320  0.55690  1.0000 0.1402039937
H   H49       1.0  0.30270  0.51330  0.84000  1.0000 0.1216824172
H   H50       1.0  0.69730  0.01330  0.66000  1.0000 0.1216824172
H   H51       1.0  0.69730  0.48670  0.16000  1.0000 0.1216824172
H   H52       1.0  0.30270  0.98670  0.34000  1.0000 0.1216824172
H   H53       1.0  0.24290  0.69230  0.32280  1.0000 0.1296469157
H   H54       1.0  0.75710  0.19230  0.17720  1.0000 0.1296469157
H   H55       1.0  0.75710  0.30770  0.67720  1.0000 0.1296469157
H   H56       1.0  0.24290  0.80770  0.82280  1.0000 0.1296469157
H   H57       1.0  0.20130  0.60390  0.22750  1.0000 0.1216824172
H   H58       1.0  0.79870  0.10390  0.27250  1.0000 0.1216824172
H   H59       1.0  0.79870  0.39610  0.77250  1.0000 0.1216824172
H   H60       1.0  0.20130  0.89610  0.72750  1.0000 0.1216824172
H   H61       1.0  0.60960  0.76080  0.76350  1.0000 0.1216824172
H   H62       1.0  0.39040  0.26080  0.73650  1.0000 0.1216824172
H   H63       1.0  0.39040  0.23920  0.23650  1.0000 0.1216824172
H   H64       1.0  0.60960  0.73920  0.26350  1.0000 0.1216824172
H   H65       1.0  0.40510  0.24670  0.98570  1.0000 0.1111364967
H   H66       1.0  0.59490  0.74670  0.51430  1.0000 0.1111364967
H   H67       1.0  0.59490  0.75330  0.01430  1.0000 0.1111364967
H   H68       1.0  0.40510  0.25330  0.48570  1.0000 0.1111364967
H   H69       1.0  0.57990  0.46700  0.29870  1.0000 0.1296469157
H   H70       1.0  0.42010  0.96700  0.20130  1.0000 0.1296469157
H   H71       1.0  0.42010  0.53300  0.70130  1.0000 0.1296469157
H   H72       1.0  0.57990  0.03300  0.79870  1.0000 0.1296469157
H   H73       1.0  0.59560  0.42430  0.24820  1.0000 0.1216824172
H   H74       1.0  0.40440  0.92430  0.25180  1.0000 0.1216824172
H   H75       1.0  0.40440  0.57570  0.75180  1.0000 0.1216824172
H   H76       1.0  0.59560  0.07570  0.74820  1.0000 0.1216824172
H   H77       1.0  0.57460  0.51500  0.24230  1.0000 0.1296469157
H   H78       1.0  0.42540  0.01500  0.25770  1.0000 0.1296469157
H   H79       1.0  0.42540  0.48500  0.75770  1.0000 0.1296469157
H   H80       1.0  0.57460  0.98500  0.74230  1.0000 0.1296469157
H   H81       1.0  0.28370  0.57850  0.75160  1.0000 0.1216824172
H   H82       1.0  0.71630  0.07850  0.74840  1.0000 0.1216824172
H   H83       1.0  0.71630  0.42150  0.24840  1.0000 0.1216824172
H   H84       1.0  0.28370  0.92150  0.25160  1.0000 0.1216824172
H   H85       1.0  0.24670  0.66840  0.65730  1.0000 0.1216824172
H   H86       1.0  0.75330  0.16840  0.84270  1.0000 0.1216824172
H   H87       1.0  0.75330  0.33160  0.34270  1.0000 0.1216824172
H   H88       1.0  0.24670  0.83160  0.15730  1.0000 0.1216824172
H   H89       1.0  0.18120  0.53550  0.14000  1.0000 0.1216824172
H   H90       1.0  0.81880  0.03550  0.36000  1.0000 0.1216824172
H   H91       1.0  0.81880  0.46450  0.86000  1.0000 0.1216824172
H   H92       1.0  0.18120  0.96450  0.64000  1.0000 0.1216824172
H   H93       1.0  0.29630  0.78280  0.40120  1.0000 0.1296469157
H   H94       1.0  0.70370  0.28280  0.09880  1.0000 0.1296469157
H   H95       1.0  0.70370  0.21720  0.59880  1.0000 0.1296469157
H   H96       1.0  0.29630  0.71720  0.90120  1.0000 0.1296469157
H   H97       1.0  0.92520  0.67180  0.79450  1.0000 0.1468770249
H   H98       1.0  0.07480  0.17180  0.70550  1.0000 0.1468770249
H   H99       1.0  0.07480  0.32820  0.20550  1.0000 0.1468770249
H   H100      1.0  0.92520  0.82820  0.29450  1.0000 0.1468770249
H   H101      1.0  0.71470  0.68460  0.84000  1.0000 0.1111364967
H   H102      1.0  0.28530  0.18460  0.66000  1.0000 0.1111364967
H   H103      1.0  0.28530  0.31540  0.16000  1.0000 0.1111364967
H   H104      1.0  0.71470  0.81540  0.34000  1.0000 0.1111364967
H   H105      1.0  0.11020  0.60510  0.83740  1.0000 0.1402039937
H   H106      1.0  0.88980  0.10510  0.66260  1.0000 0.1402039937
H   H107      1.0  0.88980  0.39490  0.16260  1.0000 0.1402039937
H   H108      1.0  0.11020  0.89490  0.33740  1.0000 0.1402039937
H   H109      1.0  0.67700  0.86040  0.61330  1.0000 0.1402039937
H   H110      1.0  0.32300  0.36040  0.88670  1.0000 0.1402039937
H   H111      1.0  0.32300  0.13960  0.38670  1.0000 0.1402039937
H   H112      1.0  0.67700  0.63960  0.11330  1.0000 0.1402039937
H   H113      1.0  0.38520  0.60260  0.15100  1.0000 0.1402039937
H   H114      1.0  0.61480  0.10260  0.34900  1.0000 0.1402039937
H   H115      1.0  0.61480  0.39740  0.84900  1.0000 0.1402039937
H   H116      1.0  0.38520  0.89740  0.65100  1.0000 0.1402039937
H   H117      1.0  0.52710  0.83950  0.68730  1.0000 0.1216824172
H   H118      1.0  0.47290  0.33950  0.81270  1.0000 0.1216824172
H   H119      1.0  0.47290  0.16050  0.31270  1.0000 0.1216824172
H   H120      1.0  0.52710  0.66050  0.18730  1.0000 0.1216824172
H   H121      1.0  0.15580  0.28860  0.92130  1.0000 0.1216824172
H   H122      1.0  0.84420  0.78860  0.57870  1.0000 0.1216824172
H   H123      1.0  0.84420  0.71140  0.07870  1.0000 0.1216824172
H   H124      1.0  0.15580  0.21140  0.42130  1.0000 0.1216824172
H   H125      1.0  0.11530  0.09820  0.96020  1.0000 0.1216824172
H   H126      1.0  0.88470  0.59820  0.53980  1.0000 0.1216824172
H   H127      1.0  0.88470  0.90180  0.03980  1.0000 0.1216824172
H   H128      1.0  0.11530  0.40180  0.46020  1.0000 0.1216824172
H   H129      1.0  0.08070  0.14600  0.90020  1.0000 0.1296469157
H   H130      1.0  0.91930  0.64600  0.59980  1.0000 0.1296469157
H   H131      1.0  0.91930  0.85400  0.09980  1.0000 0.1296469157
H   H132      1.0  0.08070  0.35400  0.40020  1.0000 0.1296469157
H   H133      1.0  0.16740  0.12990  0.93040  1.0000 0.1296469157
H   H134      1.0  0.83260  0.62990  0.56960  1.0000 0.1296469157
H   H135      1.0  0.83260  0.87010  0.06960  1.0000 0.1296469157
H   H136      1.0  0.16740  0.37010  0.43040  1.0000 0.1296469157
H   H137      1.0  0.96600  0.47320  0.67630  1.0000 0.1296469157
H   H138      1.0  0.03400  0.97320  0.82370  1.0000 0.1296469157
H   H139      1.0  0.03400  0.52680  0.32370  1.0000 0.1296469157
H   H140      1.0  0.96600  0.02680  0.17630  1.0000 0.1296469157
H   H141      1.0  0.05000  0.48880  0.71960  1.0000 0.1216824172
H   H142      1.0  0.95000  0.98880  0.78040  1.0000 0.1216824172
H   H143      1.0  0.95000  0.51120  0.28040  1.0000 0.1216824172
H   H144      1.0  0.05000  0.01120  0.21960  1.0000 0.1216824172
H   H145      1.0  0.01950  0.40140  0.70640  1.0000 0.1402039937
H   H146      1.0  0.98050  0.90140  0.79360  1.0000 0.1402039937
H   H147      1.0  0.98050  0.59860  0.29360  1.0000 0.1402039937
H   H148      1.0  0.01950  0.09860  0.20640  1.0000 0.1402039937
H   H149      1.0  0.38620  0.41620  0.16650  1.0000 0.0817326499
H   H150      1.0  0.61380  0.91620  0.33350  1.0000 0.0817326499
H   H151      1.0  0.61380  0.58380  0.83350  1.0000 0.0817326499
H   H152      1.0  0.38620  0.08380  0.66650  1.0000 0.0817326499
H   H153      1.0  0.88590  0.49710  0.70570  1.0000 0.1296469157
H   H154      1.0  0.11410  0.99710  0.79430  1.0000 0.1296469157
H   H155      1.0  0.11410  0.50290  0.29430  1.0000 0.1296469157
H   H156      1.0  0.88590  0.00290  0.20570  1.0000 0.1296469157
H   H157      1.0  0.88310  0.44200  0.75640  1.0000 0.1296469157
H   H158      1.0  0.11690  0.94200  0.74360  1.0000 0.1296469157
H   H159      1.0  0.11690  0.55800  0.24360  1.0000 0.1296469157
H   H160      1.0  0.88310  0.05800  0.25640  1.0000 0.1296469157
H   H161      1.0  0.91060  0.53040  0.77070  1.0000 0.1296469157
H   H162      1.0  0.08940  0.03040  0.72930  1.0000 0.1296469157
H   H163      1.0  0.08940  0.46960  0.22930  1.0000 0.1296469157
H   H164      1.0  0.91060  0.96960  0.27070  1.0000 0.1296469157
H   H165      1.0  0.19790  0.75740  0.57870  1.0000 0.1216824172
H   H166      1.0  0.80210  0.25740  0.92130  1.0000 0.1216824172
H   H167      1.0  0.80210  0.24260  0.42130  1.0000 0.1216824172
H   H168      1.0  0.19790  0.74260  0.07870  1.0000 0.1216824172
H   H169      1.0  0.48290  0.79760  0.36930  1.0000 0.1216824172
H   H170      1.0  0.51710  0.29760  0.13070  1.0000 0.1216824172
H   H171      1.0  0.51710  0.20240  0.63070  1.0000 0.1216824172
H   H172      1.0  0.48290  0.70240  0.86930  1.0000 0.1216824172
H   H173      1.0  0.08160  0.42370  0.82200  1.0000 0.0988402931
H   H174      1.0  0.91840  0.92370  0.67800  1.0000 0.0988402931
H   H175      1.0  0.91840  0.57630  0.17800  1.0000 0.0988402931
H   H176      1.0  0.08160  0.07630  0.32200  1.0000 0.0988402931
H   H177      1.0  0.82150  0.61680  0.90240  1.0000 0.1216824172
H   H178      1.0  0.17850  0.11680  0.59760  1.0000 0.1216824172
H   H179      1.0  0.17850  0.38320  0.09760  1.0000 0.1216824172
H   H180      1.0  0.82150  0.88320  0.40240  1.0000 0.1216824172
H   H181      1.0  0.02230  0.80360  0.62140  1.0000 0.1296469157
H   H182      1.0  0.97770  0.30360  0.87860  1.0000 0.1296469157
H   H183      1.0  0.97770  0.19640  0.37860  1.0000 0.1296469157
H   H184      1.0  0.02230  0.69640  0.12140  1.0000 0.1296469157
C   C1        1.0  0.44720  0.43280  0.26290  1.0000 -0.3193898903
C   C2        1.0  0.55280  0.93280  0.23710  1.0000 -0.3193898903
C   C3        1.0  0.55280  0.56720  0.73710  1.0000 -0.3193898903
C   C4        1.0  0.44720  0.06720  0.76290  1.0000 -0.3193898903
C   C5        1.0  0.35510  0.24120  0.09800  1.0000 -0.3838375689
C   C6        1.0  0.64490  0.74120  0.40200  1.0000 -0.3838375689
C   C7        1.0  0.64490  0.75880  0.90200  1.0000 -0.3838375689
C   C8        1.0  0.35510  0.25880  0.59800  1.0000 -0.3838375689
C   C9        1.0  0.09790  0.19720  0.01130  1.0000 -0.3091707038
C   C10       1.0  0.90210  0.69720  0.48870  1.0000 -0.3091707038
C   C11       1.0  0.90210  0.80280  0.98870  1.0000 -0.3091707038
C   C12       1.0  0.09790  0.30280  0.51130  1.0000 -0.3091707038
C   C13       1.0  0.22000  0.50800  0.90410  1.0000 0.6178791864
C   C14       1.0  0.78000  0.00800  0.59590  1.0000 0.6178791864
C   C15       1.0  0.78000  0.49200  0.09590  1.0000 0.6178791864
C   C16       1.0  0.22000  0.99200  0.40410  1.0000 0.6178791864
C   C17       1.0  0.39420  0.12660  0.04700  1.0000 -0.3014222609
C   C18       1.0  0.60580  0.62660  0.45300  1.0000 -0.3014222609
C   C19       1.0  0.60580  0.87340  0.95300  1.0000 -0.3014222609
C   C20       1.0  0.39420  0.37340  0.54700  1.0000 -0.3014222609
C   C21       1.0  0.20840  0.55110  0.84750  1.0000 -0.0282880635
C   C22       1.0  0.79160  0.05110  0.65250  1.0000 -0.0282880635
C   C23       1.0  0.79160  0.44890  0.15250  1.0000 -0.0282880635
C   C24       1.0  0.20840  0.94890  0.34750  1.0000 -0.0282880635
C   C25       1.0  0.26020  0.54480  0.82160  1.0000 -0.0880430257
C   C26       1.0  0.73980  0.04480  0.67840  1.0000 -0.0880430257
C   C27       1.0  0.73980  0.45520  0.17840  1.0000 -0.0880430257
C   C28       1.0  0.26020  0.95520  0.32160  1.0000 -0.0880430257
C   C29       1.0  0.30480  0.64410  0.24270  1.0000 0.0472009793
C   C30       1.0  0.69520  0.14410  0.25730  1.0000 0.0472009793
C   C31       1.0  0.69520  0.35590  0.75730  1.0000 0.0472009793
C   C32       1.0  0.30480  0.85590  0.74270  1.0000 0.0472009793
C   C33       1.0  0.29000  0.71410  0.33120  1.0000 -0.1301021258
C   C34       1.0  0.71000  0.21410  0.16880  1.0000 -0.1301021258
C   C35       1.0  0.71000  0.28590  0.66880  1.0000 -0.1301021258
C   C36       1.0  0.29000  0.78590  0.83120  1.0000 -0.1301021258
C   C37       1.0  0.27980  0.56440  0.13530  1.0000 -0.041604841
C   C38       1.0  0.72020  0.06440  0.36470  1.0000 -0.041604841
C   C39       1.0  0.72020  0.43560  0.86470  1.0000 -0.041604841
C   C40       1.0  0.27980  0.93560  0.63530  1.0000 -0.041604841
C   C41       1.0  0.23820  0.60400  0.21260  1.0000 -0.1200782429
C   C42       1.0  0.76180  0.10400  0.28740  1.0000 -0.1200782429
C   C43       1.0  0.76180  0.39600  0.78740  1.0000 -0.1200782429
C   C44       1.0  0.23820  0.89600  0.71260  1.0000 -0.1301021258
C   C45       1.0  0.62320  0.78070  0.73390  1.0000 -0.1200782429
C   C46       1.0  0.37680  0.28070  0.76610  1.0000 -0.1200782429
C   C47       1.0  0.37680  0.21930  0.26610  1.0000 -0.1200782429
C   C48       1.0  0.62320  0.71930  0.23390  1.0000 -0.1200782429
C   C49       1.0  0.37860  0.26030  0.00840  1.0000 0.294467148
C   C50       1.0  0.62140  0.76030  0.49160  1.0000 0.294467148
C   C51       1.0  0.62140  0.73970  0.99160  1.0000 0.294467148
C   C52       1.0  0.37860  0.23970  0.50840  1.0000 0.294467148
C   C53       1.0  0.56590  0.46420  0.25640  1.0000 -0.2931848647
C   C54       1.0  0.43410  0.96420  0.24360  1.0000 -0.2931848647
C   C55       1.0  0.43410  0.53580  0.74360  1.0000 -0.2931848647
C   C56       1.0  0.56590  0.03580  0.75640  1.0000 -0.2931848647
C   C57       1.0  0.24950  0.58470  0.76880  1.0000 -0.1301021258
C   C58       1.0  0.75050  0.08470  0.73120  1.0000 -0.1301021258
C   C59       1.0  0.75050  0.41530  0.23120  1.0000 -0.1301021258
C   C60       1.0  0.24950  0.91530  0.26880  1.0000 -0.1301021258
C   C61       1.0  0.75480  0.71790  0.77910  1.0000 0.0404636326
C   C62       1.0  0.24520  0.21790  0.72090  1.0000 0.0404636326
C   C63       1.0  0.24520  0.28210  0.22090  1.0000 0.0404636326
C   C64       1.0  0.75480  0.78210  0.27910  1.0000 0.0404636326
C   C65       1.0  0.20250  0.69580  0.65060  1.0000 -0.1301021258
C   C66       1.0  0.79750  0.19580  0.84940  1.0000 -0.1301021258
C   C67       1.0  0.79750  0.30420  0.34940  1.0000 -0.1301021258
C   C68       1.0  0.20250  0.80420  0.15060  1.0000 -0.1301021258
C   C69       1.0  0.59300  0.85880  0.64300  1.0000 -0.0187942343
C   C70       1.0  0.40700  0.35880  0.85700  1.0000 -0.0187942343
C   C71       1.0  0.40700  0.14120  0.35700  1.0000 -0.0187942343
C   C72       1.0  0.59300  0.64120  0.14300  1.0000 -0.0187942343
C   C73       1.0  0.71030  0.79350  0.68830  1.0000 -0.1107583946
C   C74       1.0  0.28970  0.29350  0.81170  1.0000 -0.1107583946
C   C75       1.0  0.28970  0.20650  0.31170  1.0000 -0.1107583946
C   C76       1.0  0.71030  0.70650  0.18830  1.0000 -0.1107583946
C   C77       1.0  0.22580  0.56350  0.15950  1.0000 -0.0880430257
C   C78       1.0  0.77420  0.06350  0.34050  1.0000 -0.0880430257
C   C79       1.0  0.77420  0.43650  0.84050  1.0000 -0.0880430257
C   C80       1.0  0.22580  0.93650  0.65950  1.0000 -0.0880430257
C   C81       1.0  0.32900  0.69420  0.29700  1.0000 0.0404636326
C   C82       1.0  0.67100  0.19420  0.20300  1.0000 0.0404636326
C   C83       1.0  0.67100  0.30580  0.70300  1.0000 0.0404636326
C   C84       1.0  0.32900  0.80580  0.79700  1.0000 0.0404636326
C   C85       1.0  0.69310  0.76400  0.73460  1.0000 0.0404636326
C   C86       1.0  0.30690  0.26400  0.76540  1.0000 0.0404636326
C   C87       1.0  0.30690  0.23600  0.26540  1.0000 0.0404636326
C   C88       1.0  0.69310  0.73600  0.23460  1.0000 0.0404636326
C   C89       1.0  0.18720  0.63380  0.74220  1.0000 0.0404636326
C   C90       1.0  0.81280  0.13380  0.75780  1.0000 0.0404636326
C   C91       1.0  0.81280  0.36620  0.25780  1.0000 0.0404636326
C   C92       1.0  0.18720  0.86620  0.24220  1.0000 0.0404636326
C   C93       1.0  0.32280  0.76780  0.37880  1.0000 -0.0880430257
C   C94       1.0  0.67720  0.26780  0.12120  1.0000 -0.0880430257
C   C95       1.0  0.67720  0.23220  0.62120  1.0000 -0.0880430257
C   C96       1.0  0.32280  0.73220  0.87880  1.0000 -0.0880430257
C   C97       1.0  0.88330  0.67300  0.80350  1.0000 -0.0880430257
C   C98       1.0  0.11670  0.17300  0.69650  1.0000 -0.0880430257
C   C99       1.0  0.11670  0.32700  0.19650  1.0000 -0.0880430257
C   C100      1.0  0.88330  0.82700  0.30350  1.0000 -0.0880430257
C   C101      1.0  0.10510  0.79060  0.59180  1.0000 -0.0282880635
C   C102      1.0  0.89490  0.29060  0.90820  1.0000 -0.0282880635
C   C103      1.0  0.89490  0.20940  0.40820  1.0000 -0.0282880635
C   C104      1.0  0.10510  0.70940  0.09180  1.0000 -0.0282880635
C   C105      1.0  0.75630  0.68160  0.83070  1.0000 -0.1461770938
C   C106      1.0  0.24370  0.18160  0.66930  1.0000 -0.1461770938
C   C107      1.0  0.24370  0.31840  0.16930  1.0000 -0.144947912
C   C108      1.0  0.75630  0.81840  0.33070  1.0000 -0.144947912
C   C109      1.0  0.14510  0.59970  0.82080  1.0000 -0.0993697894
C   C110      1.0  0.85490  0.09970  0.67920  1.0000 -0.0993697894
C   C111      1.0  0.85490  0.40030  0.17920  1.0000 -0.0993697894
C   C112      1.0  0.14510  0.90030  0.32080  1.0000 -0.0993697894
C   C113      1.0  0.66310  0.84090  0.64280  1.0000 -0.0993697894
C   C114      1.0  0.33690  0.34090  0.85720  1.0000 -0.0993697894
C   C115      1.0  0.33690  0.15910  0.35720  1.0000 -0.0993697894
C   C116      1.0  0.66310  0.65910  0.14280  1.0000 -0.0993697894
C   C117      1.0  0.34820  0.60290  0.16570  1.0000 -0.1107583946
C   C118      1.0  0.65180  0.10290  0.33430  1.0000 -0.1107583946
C   C119      1.0  0.65180  0.39710  0.83430  1.0000 -0.1107583946
C   C120      1.0  0.34820  0.89710  0.66570  1.0000 -0.1107583946
C   C121      1.0  0.16570  0.68410  0.68790  1.0000 0.0404636326
C   C122      1.0  0.83430  0.18410  0.81210  1.0000 0.0404636326
C   C123      1.0  0.83430  0.31590  0.31210  1.0000 0.0404636326
C   C124      1.0  0.16570  0.81590  0.18790  1.0000 0.0404636326
C   C125      1.0  0.39450  0.79930  0.39330  1.0000 -0.0187942343
C   C126      1.0  0.60550  0.29930  0.10670  1.0000 -0.0187942343
C   C127      1.0  0.60550  0.20070  0.60670  1.0000 -0.0187942343
C   C128      1.0  0.39450  0.70070  0.89330  1.0000 -0.0187942343
C   C129      1.0  0.35970  0.64160  0.21840  1.0000 -0.1200782429
C   C130      1.0  0.64030  0.14160  0.28160  1.0000 -0.1200782429
C   C131      1.0  0.64030  0.35840  0.78160  1.0000 -0.1200782429
C   C132      1.0  0.35970  0.85840  0.71840  1.0000 -0.1200782429
C   C133      1.0  0.88410  0.63570  0.85430  1.0000 -0.0110134035
C   C134      1.0  0.11590  0.13570  0.64570  1.0000 -0.0110134035
C   C135      1.0  0.11590  0.36430  0.14570  1.0000 -0.0110134035
C   C136      1.0  0.88410  0.86430  0.35430  1.0000 -0.0110134035
C   C137      1.0  0.57410  0.82790  0.68810  1.0000 -0.0810829134
C   C138      1.0  0.42590  0.32790  0.81190  1.0000 -0.0810829134
C   C139      1.0  0.42590  0.17210  0.31190  1.0000 -0.0810829134
C   C140      1.0  0.57410  0.67210  0.18810  1.0000 -0.0810829134
C   C141      1.0  0.14360  0.28510  0.95410  1.0000 0.3123640014
C   C142      1.0  0.85640  0.78510  0.54590  1.0000 0.3123640014
C   C143      1.0  0.85640  0.71490  0.04590  1.0000 0.3123640014
C   C144      1.0  0.14360  0.21490  0.45410  1.0000 0.3123640014
C   C145      1.0  0.42870  0.86150  0.44160  1.0000 0.6052812828
C   C146      1.0  0.57130  0.36150  0.05840  1.0000 0.6052812828
C   C147      1.0  0.57130  0.13850  0.55840  1.0000 0.6001303329
C   C148      1.0  0.42870  0.63850  0.94160  1.0000 0.6052812828
C   C149      1.0  0.81810  0.71210  0.76650  1.0000 -0.1107583946
C   C150      1.0  0.18190  0.21210  0.73350  1.0000 -0.1107583946
C   C151      1.0  0.18190  0.28790  0.23350  1.0000 -0.1107583946
C   C152      1.0  0.81810  0.78790  0.26650  1.0000 -0.1107583946
C   C153      1.0  0.53700  0.91190  0.59690  1.0000 0.5789778499
C   C154      1.0  0.46300  0.41190  0.90310  1.0000 0.5789778499
C   C155      1.0  0.46300  0.08810  0.40310  1.0000 0.5789778499
C   C156      1.0  0.53700  0.58810  0.09690  1.0000 0.5789778499
C   C157      1.0  0.13620  0.63920  0.76930  1.0000 -0.1107583946
C   C158      1.0  0.86380  0.13920  0.73070  1.0000 -0.1107583946
C   C159      1.0  0.86380  0.36080  0.23070  1.0000 -0.1107583946
C   C160      1.0  0.13620  0.86080  0.26930  1.0000 -0.1107583946
C   C161      1.0  0.09850  0.72600  0.67540  1.0000 -0.1200782429
C   C162      1.0  0.90150  0.22600  0.82460  1.0000 -0.1200782429
C   C163      1.0  0.90150  0.27400  0.32460  1.0000 -0.1200782429
C   C164      1.0  0.09850  0.77400  0.17540  1.0000 -0.1200782429
C   C165      1.0  0.40080  0.72670  0.31270  1.0000 -0.1200782429
C   C166      1.0  0.59920  0.22670  0.18730  1.0000 -0.1200782429
C   C167      1.0  0.59920  0.27330  0.68730  1.0000 -0.1200782429
C   C168      1.0  0.40080  0.77330  0.81270  1.0000 -0.1200782429
C   C169      1.0  0.12350  0.14100  0.93760  1.0000 -0.3091707038
C   C170      1.0  0.87650  0.64100  0.56240  1.0000 -0.3014222609
C   C171      1.0  0.87650  0.85900  0.06240  1.0000 -0.3091707038
C   C172      1.0  0.12350  0.35900  0.43760  1.0000 -0.3091707038
C   C173      1.0  0.07450  0.85330  0.54470  1.0000 0.6001303329
C   C174      1.0  0.92550  0.35330  0.95530  1.0000 0.6001303329
C   C175      1.0  0.92550  0.14670  0.45530  1.0000 0.6001303329
C   C176      1.0  0.07450  0.64670  0.04470  1.0000 0.6001303329
C   C177      1.0  0.00710  0.45530  0.71180  1.0000 -0.3091707038
C   C178      1.0  0.99290  0.95530  0.78820  1.0000 -0.3091707038
C   C179      1.0  0.99290  0.54470  0.28820  1.0000 -0.3091707038
C   C180      1.0  0.00710  0.04470  0.21180  1.0000 -0.3091707038
C   C181      1.0  0.43430  0.42790  0.16960  1.0000 0.2975286139
C   C182      1.0  0.56570  0.92790  0.33040  1.0000 0.2975286139
C   C183      1.0  0.56570  0.57210  0.83040  1.0000 0.2975286139
C   C184      1.0  0.43430  0.07210  0.66960  1.0000 0.2975286139
C   C185      1.0  0.91000  0.48420  0.74740  1.0000 -0.3091707038
C   C186      1.0  0.09000  0.98420  0.75260  1.0000 -0.3091707038
C   C187      1.0  0.09000  0.51580  0.25260  1.0000 -0.3091707038
C   C188      1.0  0.91000  0.01580  0.24740  1.0000 -0.3091707038
C   C189      1.0  0.17290  0.74900  0.60330  1.0000 -0.0880430257
C   C190      1.0  0.82710  0.24900  0.89670  1.0000 -0.0880430257
C   C191      1.0  0.82710  0.25100  0.39670  1.0000 -0.0880430257
C   C192      1.0  0.17290  0.75100  0.10330  1.0000 -0.0880430257
C   C193      1.0  0.43490  0.77800  0.36000  1.0000 -0.1107583946
C   C194      1.0  0.56510  0.27800  0.14000  1.0000 -0.1107583946
C   C195      1.0  0.56510  0.22200  0.64000  1.0000 -0.1107583946
C   C196      1.0  0.43490  0.72200  0.86000  1.0000 -0.1107583946
C   C197      1.0  0.03290  0.43750  0.81610  1.0000 0.3242637856
C   C198      1.0  0.96710  0.93750  0.68390  1.0000 0.3242637856
C   C199      1.0  0.96710  0.56250  0.18390  1.0000 0.3242637856
C   C200      1.0  0.03290  0.06250  0.31610  1.0000 0.3242637856
C   C201      1.0  0.82050  0.64090  0.86800  1.0000 -0.0993697894
C   C202      1.0  0.17950  0.14090  0.63200  1.0000 -0.0993697894
C   C203      1.0  0.17950  0.35910  0.13200  1.0000 -0.0993697894
C   C204      1.0  0.82050  0.85910  0.36800  1.0000 -0.0993697894
C   C205      1.0  0.95110  0.58840  0.89510  1.0000 0.5789778499
C   C206      1.0  0.04890  0.08840  0.60490  1.0000 0.5789778499
C   C207      1.0  0.04890  0.41160  0.10490  1.0000 0.5789778499
C   C208      1.0  0.95110  0.91160  0.39510  1.0000 0.5789778499
C   C209      1.0  0.06730  0.77770  0.62850  1.0000 -0.0993697894
C   C210      1.0  0.93270  0.27770  0.87150  1.0000 -0.0993697894
C   C211      1.0  0.93270  0.22230  0.37150  1.0000 -0.0993697894
C   C212      1.0  0.06730  0.72230  0.12850  1.0000 -0.0993697894
C   C213      1.0  0.26320  0.52610  0.07610  1.0000 0.6178791864
C   C214      1.0  0.73680  0.02610  0.42390  1.0000 0.6178791864
C   C215      1.0  0.73680  0.47390  0.92390  1.0000 0.6178791864
C   C216      1.0  0.26320  0.97390  0.57610  1.0000 0.6178791864
S   S1        1.0  0.80192  0.76244  0.69846  1.0000 0.992397268
S   S2        1.0  0.19808  0.26244  0.80154  1.0000 0.992397268
S   S3        1.0  0.19808  0.23756  0.30154  1.0000 0.992397268
S   S4        1.0  0.80192  0.73756  0.19846  1.0000 0.992397268
S   S5        1.0  0.44014  0.69600  0.26297  1.0000 0.9532070948
S   S6        1.0  0.55986  0.19600  0.23703  1.0000 0.9532070948
S   S7        1.0  0.55986  0.30400  0.73703  1.0000 0.9532070948
S   S8        1.0  0.44014  0.80400  0.76297  1.0000 0.9532070948
S   S9        1.0  0.06272  0.70654  0.72953  1.0000 0.9661077155
S   S10       1.0  0.93728  0.20654  0.77047  1.0000 0.9661077155
S   S11       1.0  0.93728  0.29346  0.27047  1.0000 0.9661077155
S   S12       1.0  0.06272  0.79346  0.22953  1.0000 0.963817109
N   N1        1.0  0.98600  0.45910  0.76180  1.0000 0.0244975054
N   N2        1.0  0.01400  0.95910  0.73820  1.0000 0.0244975054
N   N3        1.0  0.01400  0.54090  0.23820  1.0000 0.0244975054
N   N4        1.0  0.98600  0.04090  0.26180  1.0000 0.0244975054
N   N5        1.0  0.13420  0.21290  0.97010  1.0000 0.0087165009
N   N6        1.0  0.86580  0.71290  0.52990  1.0000 0.0087165009
N   N7        1.0  0.86580  0.78710  0.02990  1.0000 0.0087165009
N   N8        1.0  0.13420  0.28710  0.47010  1.0000 0.0087165009
N   N9        1.0  0.48670  0.44370  0.22630  1.0000 -0.041604841
N   N10       1.0  0.51330  0.94370  0.27370  1.0000 -0.041604841
N   N11       1.0  0.51330  0.55630  0.77370  1.0000 -0.041604841
N   N12       1.0  0.48670  0.05630  0.72630  1.0000 -0.041604841
N   N13       1.0  0.36890  0.20380  0.04380  1.0000 0.0472009793
N   N14       1.0  0.63110  0.70380  0.45620  1.0000 0.0472009793
N   N15       1.0  0.63110  0.79620  0.95620  1.0000 0.0472009793
N   N16       1.0  0.36890  0.29620  0.54380  1.0000 0.0472009793
O   O1        1.0  0.20578  0.48330  0.05168  1.0000 -0.6120312469
O   O2        1.0  0.79422  0.98330  0.44832  1.0000 -0.6120312469
O   O3        1.0  0.79422  0.51670  0.94832  1.0000 -0.6120312469
O   O4        1.0  0.20578  0.01670  0.55168  1.0000 -0.6120312469
O   O5        1.0  0.28026  0.47070  0.93066  1.0000 -0.6120312469
O   O6        1.0  0.71974  0.97070  0.56934  1.0000 -0.6120312469
O   O7        1.0  0.71974  0.52930  0.06934  1.0000 -0.6120312469
O   O8        1.0  0.28026  0.02930  0.43066  1.0000 -0.6120312469
O   O9        1.0  0.01180  0.59570  0.89010  1.0000 -0.5483778374
O   O10       1.0  0.98820  0.09570  0.60990  1.0000 -0.5483778374
O   O11       1.0  0.98820  0.40430  0.10990  1.0000 -0.5483778374
O   O12       1.0  0.01180  0.90430  0.39010  1.0000 -0.5483778374
O   O13       1.0  0.16660  0.51240  0.92040  1.0000 -0.6246939258
O   O14       1.0  0.83340  0.01240  0.57960  1.0000 -0.6246939258
O   O15       1.0  0.83340  0.48760  0.07960  1.0000 -0.6246939258
O   O16       1.0  0.16660  0.98760  0.42040  1.0000 -0.6246939258
O   O17       1.0  0.38730  0.89180  0.46400  1.0000 -0.5929892914
O   O18       1.0  0.61270  0.39180  0.03600  1.0000 -0.5929892914
O   O19       1.0  0.61270  0.10820  0.53600  1.0000 -0.5929892914
O   O20       1.0  0.38730  0.60820  0.96400  1.0000 -0.5929892914
O   O21       1.0  0.31240  0.53790  0.05470  1.0000 -0.6336477504
O   O22       1.0  0.68760  0.03790  0.44530  1.0000 -0.6336477504
O   O23       1.0  0.68760  0.46210  0.94530  1.0000 -0.6336477504
O   O24       1.0  0.31240  0.96210  0.55470  1.0000 -0.6336477504
O   O25       1.0  0.47210  0.91420  0.59420  1.0000 -0.5631998287
O   O26       1.0  0.52790  0.41420  0.90580  1.0000 -0.5631998287
O   O27       1.0  0.52790  0.08580  0.40580  1.0000 -0.5631998287
O   O28       1.0  0.47210  0.58580  0.09420  1.0000 -0.5631998287
O   O29       1.0  0.06820  0.77760  0.76450  1.0000 -0.5215352454
O   O30       1.0  0.93180  0.27760  0.73550  1.0000 -0.5215352454
O   O31       1.0  0.93180  0.22240  0.23550  1.0000 -0.5215352454
O   O32       1.0  0.06820  0.72240  0.26450  1.0000 -0.5215352454
O   O33       1.0  0.45160  0.76310  0.23080  1.0000 -0.5215352454
O   O34       1.0  0.54840  0.26310  0.26920  1.0000 -0.5215352454
O   O35       1.0  0.54840  0.23690  0.76920  1.0000 -0.5215352454
O   O36       1.0  0.45160  0.73690  0.73080  1.0000 -0.5215352454
O   O37       1.0  0.55770  0.95770  0.56590  1.0000 -0.6471757547
O   O38       1.0  0.44230  0.45770  0.93410  1.0000 -0.6471757547
O   O39       1.0  0.44230  0.04230  0.43410  1.0000 -0.6471757547
O   O40       1.0  0.55770  0.54230  0.06590  1.0000 -0.6471757547
O   O41       1.0  0.13890  0.34590  0.97590  1.0000 -0.4074979754
O   O42       1.0  0.86110  0.84590  0.52410  1.0000 -0.4074979754
O   O43       1.0  0.86110  0.65410  0.02410  1.0000 -0.4074979754
O   O44       1.0  0.13890  0.15410  0.47590  1.0000 -0.4074979754
O   O45       1.0  0.99150  0.66650  0.70490  1.0000 -0.5215352454
O   O46       1.0  0.00850  0.16650  0.79510  1.0000 -0.5215352454
O   O47       1.0  0.00850  0.33350  0.29510  1.0000 -0.5215352454
O   O48       1.0  0.99150  0.83350  0.20490  1.0000 -0.5215352454
O   O49       1.0  0.49810  0.87390  0.45880  1.0000 -0.6471757547
O   O50       1.0  0.50190  0.37390  0.04120  1.0000 -0.6471757547
O   O51       1.0  0.50190  0.12610  0.54120  1.0000 -0.6471757547
O   O52       1.0  0.49810  0.62610  0.95880  1.0000 -0.6471757547
O   O53       1.0  0.85130  0.82980  0.70900  1.0000 -0.5256305783
O   O54       1.0  0.14870  0.32980  0.79100  1.0000 -0.5256305783
O   O55       1.0  0.14870  0.17020  0.29100  1.0000 -0.5256305783
O   O56       1.0  0.85130  0.67020  0.20900  1.0000 -0.5256305783
O   O57       1.0  0.35470  0.32810  0.00440  1.0000 -0.4660133229
O   O58       1.0  0.64530  0.82810  0.49560  1.0000 -0.4660133229
O   O59       1.0  0.64530  0.67190  0.99560  1.0000 -0.4660133229
O   O60       1.0  0.35470  0.17190  0.50440  1.0000 -0.4660133229
O   O61       1.0  0.11380  0.87700  0.51820  1.0000 -0.5722755896
O   O62       1.0  0.88620  0.37700  0.98180  1.0000 -0.5722755896
O   O63       1.0  0.88620  0.12300  0.48180  1.0000 -0.5722755896
O   O64       1.0  0.11380  0.62300  0.01820  1.0000 -0.5722755896
O   O65       1.0  0.50320  0.64380  0.29200  1.0000 -0.5256305783
O   O66       1.0  0.49680  0.14380  0.20800  1.0000 -0.5215352454
O   O67       1.0  0.49680  0.35620  0.70800  1.0000 -0.5215352454
O   O68       1.0  0.50320  0.85620  0.79200  1.0000 -0.5256305783
O   O69       1.0  0.79850  0.70670  0.65300  1.0000 -0.5215352454
O   O70       1.0  0.20150  0.20670  0.84700  1.0000 -0.5215352454
O   O71       1.0  0.20150  0.29330  0.34700  1.0000 -0.5256305783
O   O72       1.0  0.79850  0.79330  0.15300  1.0000 -0.5215352454
O   O73       1.0  0.94230  0.53930  0.93260  1.0000 -0.684158753
O   O74       1.0  0.05770  0.03930  0.56740  1.0000 -0.684158753
O   O75       1.0  0.05770  0.46070  0.06740  1.0000 -0.684158753
O   O76       1.0  0.94230  0.96070  0.43260  1.0000 -0.684158753
O   O77       1.0  0.01610  0.43450  0.86010  1.0000 -0.5215352454
O   O78       1.0  0.98390  0.93450  0.63990  1.0000 -0.5215352454
O   O79       1.0  0.98390  0.56550  0.13990  1.0000 -0.5215352454
O   O80       1.0  0.01610  0.06550  0.36010  1.0000 -0.5215352454
O   O81       1.0  0.00380  0.87410  0.53390  1.0000 -0.698163818
O   O82       1.0  0.99620  0.37410  0.96610  1.0000 -0.698163818
O   O83       1.0  0.99620  0.12590  0.46610  1.0000 -0.698163818
O   O84       1.0  0.00380  0.62590  0.03390  1.0000 -0.698163818
O   O85       1.0  0.44150  0.42700  0.12650  1.0000 -0.372487794
O   O86       1.0  0.55850  0.92700  0.37350  1.0000 -0.372487794
O   O87       1.0  0.55850  0.57300  0.87350  1.0000 -0.372487794
O   O88       1.0  0.44150  0.07300  0.62650  1.0000 -0.372487794
