# DDEC6 charges by PACMAN v1.1 (https://github.com/mtap-research/PACMAN-charge/)
data_2009[Cd][cds]3[FSR]1
_chemical_formula_sum              "Cd4 H56 C76 N8 O20"
_cell_length_a       11.7368
_cell_length_b       11.7368
_cell_length_c       15.462
_cell_angle_alpha    82.0011
_cell_angle_beta     97.9989
_cell_angle_gamma    103.309

_symmetry_space_group_name_H-M    "P 1"
_symmetry_Int_Tables_number       1

loop_
  _symmetry_equiv_pos_as_xyz
  'x, y, z'

loop_
  _atom_site_type_symbol
  _atom_site_label
  _atom_site_symmetry_multiplicity
  _atom_site_fract_x
  _atom_site_fract_y
  _atom_site_fract_z
  _atom_site_occupancy
  _atom_site_charge
Cd  Cd1       1.0  0.46423  0.02805  0.87155  1.0000 0.8635468903
Cd  Cd2       1.0  0.02805  0.46423  0.62845  1.0000 0.8635468903
Cd  Cd3       1.0  0.53577  0.97196  0.12846  1.0000 0.8635468903
Cd  Cd4       1.0  0.97196  0.53577  0.37155  1.0000 0.8635468903
H   H1        1.0  0.40470  0.11509  0.54641  1.0000 0.1205471109
H   H2        1.0  0.11510  0.40470  0.95359  1.0000 0.1205471109
H   H3        1.0  0.59530  0.88491  0.45359  1.0000 0.1205471109
H   H4        1.0  0.88491  0.59530  0.04641  1.0000 0.1205471109
H   H5        1.0  0.36260  0.23260  0.41880  1.0000 0.1086679115
H   H6        1.0  0.23259  0.36260  0.08120  1.0000 0.1086679115
H   H7        1.0  0.63740  0.76741  0.58120  1.0000 0.1086679115
H   H8        1.0  0.76741  0.63740  0.91880  1.0000 0.1086679115
H   H9        1.0  0.34290  0.42270  0.42340  1.0000 0.1205471109
H   H10       1.0  0.42269  0.34290  0.07659  1.0000 0.1205471109
H   H11       1.0  0.65710  0.57731  0.57659  1.0000 0.1205471109
H   H12       1.0  0.57730  0.65710  0.92341  1.0000 0.1205471109
H   H13       1.0  0.42290  0.38450  0.68461  1.0000 0.1510352615
H   H14       1.0  0.38450  0.42290  0.81539  1.0000 0.1510352615
H   H15       1.0  0.57710  0.61551  0.31539  1.0000 0.1510352615
H   H16       1.0  0.61550  0.57710  0.18460  1.0000 0.1510352615
H   H17       1.0  0.34600  0.68480  0.50440  1.0000 0.1288689745
H   H18       1.0  0.68480  0.34600  0.99560  1.0000 0.1288689745
H   H19       1.0  0.65400  0.31521  0.49559  1.0000 0.1288689745
H   H20       1.0  0.31521  0.65400  0.00440  1.0000 0.1288689745
H   H21       1.0  0.38310  0.60410  0.44550  1.0000 0.1205471109
H   H22       1.0  0.60410  0.38310  0.05449  1.0000 0.1205471109
H   H23       1.0  0.61690  0.39591  0.55449  1.0000 0.1205471109
H   H24       1.0  0.39591  0.61690  0.94551  1.0000 0.1205471109
H   H25       1.0  0.28320  0.18220  0.88390  1.0000 0.1086679115
H   H26       1.0  0.18219  0.28320  0.61609  1.0000 0.1086679115
H   H27       1.0  0.71680  0.81781  0.11609  1.0000 0.1086679115
H   H28       1.0  0.81780  0.71680  0.38390  1.0000 0.1086679115
H   H29       1.0  0.09030  0.18949  0.87550  1.0000 0.1288689745
H   H30       1.0  0.18950  0.09030  0.62449  1.0000 0.1288689745
H   H31       1.0  0.90970  0.81051  0.12449  1.0000 0.1288689745
H   H32       1.0  0.81051  0.90970  0.37550  1.0000 0.1288689745
H   H33       1.0  0.91830  0.19050  0.89090  1.0000 0.1379706088
H   H34       1.0  0.19049  0.91830  0.60909  1.0000 0.1379706088
H   H35       1.0  0.08170  0.80951  0.10909  1.0000 0.1379706088
H   H36       1.0  0.80950  0.08170  0.39090  1.0000 0.1379706088
H   H37       1.0  0.72280  0.18980  0.88410  1.0000 0.1205471109
H   H38       1.0  0.18980  0.72280  0.61589  1.0000 0.1205471109
H   H39       1.0  0.27720  0.81021  0.11589  1.0000 0.1205471109
H   H40       1.0  0.81021  0.27720  0.38410  1.0000 0.1205471109
H   H41       1.0  0.63520  0.86660  0.83391  1.0000 0.1086679115
H   H42       1.0  0.86660  0.63520  0.66609  1.0000 0.1086679115
H   H43       1.0  0.36480  0.13340  0.16609  1.0000 0.1086679115
H   H44       1.0  0.13340  0.36480  0.33391  1.0000 0.1086679115
H   H45       1.0  0.82780  0.85640  0.83940  1.0000 0.1205471109
H   H46       1.0  0.85640  0.82780  0.66060  1.0000 0.1205471109
H   H47       1.0  0.17220  0.14361  0.16059  1.0000 0.1205471109
H   H48       1.0  0.14361  0.17220  0.33941  1.0000 0.1205471109
H   H49       1.0  0.00840  0.84640  0.86900  1.0000 0.1288689745
H   H50       1.0  0.84640  0.00840  0.63099  1.0000 0.1288689745
H   H51       1.0  0.99160  0.15360  0.13100  1.0000 0.1288689745
H   H52       1.0  0.15361  0.99160  0.36901  1.0000 0.1288689745
H   H53       1.0  0.20380  0.84960  0.87511  1.0000 0.1086679115
H   H54       1.0  0.84960  0.20380  0.62489  1.0000 0.1086679115
H   H55       1.0  0.79620  0.15041  0.12490  1.0000 0.1086679115
H   H56       1.0  0.15041  0.79620  0.37510  1.0000 0.1086679115
C   C1        1.0  0.44166  0.16280  0.71342  1.0000 0.5402107659
C   C2        1.0  0.16279  0.44166  0.78657  1.0000 0.5402107659
C   C3        1.0  0.55834  0.83721  0.28657  1.0000 0.5402107659
C   C4        1.0  0.83720  0.55834  0.21343  1.0000 0.5402107659
C   C5        1.0  0.41725  0.23839  0.62873  1.0000 -0.0019167322
C   C6        1.0  0.23838  0.41725  0.87126  1.0000 -0.0019167322
C   C7        1.0  0.58275  0.76162  0.37126  1.0000 -0.0019167322
C   C8        1.0  0.76162  0.58275  0.12873  1.0000 -0.0019167322
C   C9        1.0  0.39914  0.19240  0.54870  1.0000 -0.1600681421
C   C10       1.0  0.19239  0.39914  0.95130  1.0000 -0.1600681421
C   C11       1.0  0.60086  0.80761  0.45130  1.0000 -0.1600681421
C   C12       1.0  0.80761  0.60086  0.04869  1.0000 -0.1600681421
C   C13       1.0  0.37288  0.26252  0.47266  1.0000 -0.0841040042
C   C14       1.0  0.26252  0.37288  0.02733  1.0000 -0.0841040042
C   C15       1.0  0.62712  0.73749  0.52733  1.0000 -0.0841040042
C   C16       1.0  0.73748  0.62712  0.97267  1.0000 -0.0841040042
C   C17       1.0  0.36152  0.37672  0.47515  1.0000 -0.2296705794
C   C18       1.0  0.37672  0.36152  0.02484  1.0000 -0.2296705794
C   C19       1.0  0.63848  0.62328  0.52485  1.0000 -0.2296705794
C   C20       1.0  0.62329  0.63848  0.97515  1.0000 -0.2296705794
C   C21       1.0  0.37783  0.42230  0.55466  1.0000 0.2431384447
C   C22       1.0  0.42231  0.37783  0.94534  1.0000 0.2431384447
C   C23       1.0  0.62217  0.57769  0.44534  1.0000 0.2431384447
C   C24       1.0  0.57769  0.62217  0.05466  1.0000 0.2431384447
C   C25       1.0  0.40834  0.35303  0.63114  1.0000 -0.2296705794
C   C26       1.0  0.35304  0.40834  0.86885  1.0000 -0.2296705794
C   C27       1.0  0.59166  0.64697  0.36885  1.0000 -0.2296705794
C   C28       1.0  0.64697  0.59166  0.13115  1.0000 -0.2296705794
C   C29       1.0  0.33261  0.60454  0.49005  1.0000 -0.1730191585
C   C30       1.0  0.60454  0.33261  0.00996  1.0000 -0.1730191585
C   C31       1.0  0.66739  0.39546  0.50996  1.0000 -0.1730191585
C   C32       1.0  0.39546  0.66739  0.99004  1.0000 -0.1730191585
C   C33       1.0  0.20566  0.56730  0.45206  1.0000 0.5683789674
C   C34       1.0  0.56730  0.20566  0.04793  1.0000 0.5683789674
C   C35       1.0  0.79434  0.43271  0.54793  1.0000 0.5683789674
C   C36       1.0  0.43271  0.79434  0.95206  1.0000 0.5683789674
C   C37       1.0  0.22712  0.11208  0.88091  1.0000 0.0799821142
C   C38       1.0  0.11207  0.22712  0.61909  1.0000 0.0799821142
C   C39       1.0  0.77288  0.88792  0.11910  1.0000 0.0799821142
C   C40       1.0  0.88792  0.77288  0.38090  1.0000 0.0799821142
C   C41       1.0  0.11036  0.11724  0.87630  1.0000 -0.190519574
C   C42       1.0  0.11724  0.11036  0.62369  1.0000 -0.190519574
C   C43       1.0  0.88964  0.88277  0.12369  1.0000 -0.190519574
C   C44       1.0  0.88277  0.88964  0.37631  1.0000 -0.190519574
C   C45       1.0  0.02481  0.01885  0.87284  1.0000 0.0929895017
C   C46       1.0  0.01884  0.02481  0.62716  1.0000 0.0929895017
C   C47       1.0  0.97519  0.98115  0.12717  1.0000 0.0929895017
C   C48       1.0  0.98115  0.97519  0.37283  1.0000 0.0929895017
C   C49       1.0  0.89850  0.02222  0.86814  1.0000 0.1086679115
C   C50       1.0  0.02222  0.89850  0.63186  1.0000 0.1086679115
C   C51       1.0  0.10150  0.97779  0.13185  1.0000 0.1086679115
C   C52       1.0  0.97779  0.10150  0.36814  1.0000 0.1086679115
C   C53       1.0  0.86265  0.12215  0.88020  1.0000 -0.190519574
C   C54       1.0  0.12215  0.86265  0.61979  1.0000 -0.190519574
C   C55       1.0  0.13735  0.87786  0.11979  1.0000 -0.190519574
C   C56       1.0  0.87786  0.13735  0.38021  1.0000 -0.190519574
C   C57       1.0  0.74437  0.12083  0.87630  1.0000 0.0929895017
C   C58       1.0  0.12083  0.74437  0.62369  1.0000 0.0929895017
C   C59       1.0  0.25563  0.87918  0.12369  1.0000 0.0929895017
C   C60       1.0  0.87918  0.25563  0.37631  1.0000 0.0929895017
C   C61       1.0  0.69323  0.93236  0.84701  1.0000 0.071071935
C   C62       1.0  0.93236  0.69323  0.65299  1.0000 0.071071935
C   C63       1.0  0.30677  0.06764  0.15299  1.0000 0.071071935
C   C64       1.0  0.06763  0.30677  0.34700  1.0000 0.071071935
C   C65       1.0  0.80921  0.92578  0.84981  1.0000 -0.2100895359
C   C66       1.0  0.92579  0.80921  0.65019  1.0000 -0.2100895359
C   C67       1.0  0.19079  0.07422  0.15019  1.0000 -0.2100895359
C   C68       1.0  0.07421  0.19079  0.34980  1.0000 -0.2100895359
C   C69       1.0  0.06268  0.91751  0.87221  1.0000 -0.2100895359
C   C70       1.0  0.91751  0.06268  0.62779  1.0000 -0.2100895359
C   C71       1.0  0.93732  0.08249  0.12779  1.0000 -0.2100895359
C   C72       1.0  0.08249  0.93732  0.37221  1.0000 -0.2100895359
C   C73       1.0  0.18131  0.92029  0.87621  1.0000 0.071071935
C   C74       1.0  0.92029  0.18131  0.62379  1.0000 0.071071935
C   C75       1.0  0.81869  0.07972  0.12379  1.0000 0.071071935
C   C76       1.0  0.07971  0.81869  0.37620  1.0000 0.071071935
N   N1        1.0  0.26450  0.01566  0.88141  1.0000 -0.2100895359
N   N2        1.0  0.01566  0.26450  0.61859  1.0000 -0.2100895359
N   N3        1.0  0.73550  0.98435  0.11858  1.0000 -0.2100895359
N   N4        1.0  0.98435  0.73550  0.38142  1.0000 -0.2100895359
N   N5        1.0  0.66003  0.02759  0.86215  1.0000 -0.2199637768
N   N6        1.0  0.02758  0.66003  0.63784  1.0000 -0.2199637768
N   N7        1.0  0.33997  0.97242  0.13784  1.0000 -0.2199637768
N   N8        1.0  0.97242  0.33997  0.36216  1.0000 -0.2199637768
O   O1        1.0  0.48464  0.21156  0.78161  1.0000 -0.5388270196
O   O2        1.0  0.21155  0.48464  0.71838  1.0000 -0.5388270196
O   O3        1.0  0.51536  0.78844  0.21838  1.0000 -0.5388270196
O   O4        1.0  0.78845  0.51536  0.28161  1.0000 -0.5388270196
O   O5        1.0  0.41333  0.05266  0.71493  1.0000 -0.5511513131
O   O6        1.0  0.05267  0.41333  0.78507  1.0000 -0.5511513131
O   O7        1.0  0.58667  0.94734  0.28508  1.0000 -0.5511513131
O   O8        1.0  0.94734  0.58667  0.21493  1.0000 -0.5511513131
O   O9        1.0  0.36577  0.53200  0.56644  1.0000 -0.1430662748
O   O10       1.0  0.53200  0.36577  0.93356  1.0000 -0.1430662748
O   O11       1.0  0.63423  0.46799  0.43356  1.0000 -0.1430662748
O   O12       1.0  0.46799  0.63423  0.06643  1.0000 -0.1430662748
O   O13       1.0  0.12697  0.52101  0.50082  1.0000 -0.5511513131
O   O14       1.0  0.52101  0.12697  0.99917  1.0000 -0.5511513131
O   O15       1.0  0.87303  0.47900  0.49917  1.0000 -0.5511513131
O   O16       1.0  0.47900  0.87303  0.00082  1.0000 -0.5511513131
O   O17       1.0  0.18212  0.58986  0.37062  1.0000 -0.5511513131
O   O18       1.0  0.58986  0.18212  0.12939  1.0000 -0.5511513131
O   O19       1.0  0.81788  0.41015  0.62938  1.0000 -0.5511513131
O   O20       1.0  0.41015  0.81788  0.87062  1.0000 -0.5511513131
