# DDEC6 charges by PACMAN v1.1 (https://github.com/mtap-research/PACMAN-charge/)
data_2009[Cd][nuc]3[FSR]3
_chemical_formula_sum              "Cd4 H144 C192 N48"
_cell_length_a       15.8955
_cell_length_b       15.8955
_cell_length_c       21.599
_cell_angle_alpha    90
_cell_angle_beta     90
_cell_angle_gamma    90

_symmetry_space_group_name_H-M    "P 1"
_symmetry_Int_Tables_number       1

loop_
  _symmetry_equiv_pos_as_xyz
  'x, y, z'

loop_
  _atom_site_type_symbol
  _atom_site_label
  _atom_site_symmetry_multiplicity
  _atom_site_fract_x
  _atom_site_fract_y
  _atom_site_fract_z
  _atom_site_occupancy
  _atom_site_charge
Cd  Cd1       1.0  0.55853  0.55853  0.00000  1.0000 0.6453799568
Cd  Cd2       1.0  0.44147  0.44147  0.50000  1.0000 0.6453799568
Cd  Cd3       1.0  0.94147  0.05853  0.75000  1.0000 0.6453799568
Cd  Cd4       1.0  0.05853  0.94147  0.25000  1.0000 0.6453799568
H   H1        1.0  0.88880  0.03910  0.90000  1.0000 0.0978870134
H   H2        1.0  0.11120  0.96090  0.40000  1.0000 0.0978870134
H   H3        1.0  0.46090  0.38880  0.65000  1.0000 0.0978870134
H   H4        1.0  0.53910  0.61120  0.15000  1.0000 0.0978870134
H   H5        1.0  0.61120  0.53910  0.85000  1.0000 0.0978870134
H   H6        1.0  0.38880  0.46090  0.35000  1.0000 0.0978870134
H   H7        1.0  0.03910  0.88880  0.10000  1.0000 0.0978870134
H   H8        1.0  0.96090  0.11120  0.60000  1.0000 0.0978870134
H   H9        1.0  0.78330  0.08590  0.96390  1.0000 0.1284266589
H   H10       1.0  0.21670  0.91410  0.46390  1.0000 0.1284266589
H   H11       1.0  0.41410  0.28330  0.71390  1.0000 0.1284266589
H   H12       1.0  0.58590  0.71670  0.21390  1.0000 0.1284266589
H   H13       1.0  0.71670  0.58590  0.78610  1.0000 0.1284266589
H   H14       1.0  0.28330  0.41410  0.28610  1.0000 0.1284266589
H   H15       1.0  0.08590  0.78330  0.03610  1.0000 0.1284266589
H   H16       1.0  0.91410  0.21670  0.53610  1.0000 0.1284266589
H   H17       1.0  0.75980  0.28580  0.85490  1.0000 0.1284266589
H   H18       1.0  0.24020  0.71420  0.35490  1.0000 0.1284266589
H   H19       1.0  0.21420  0.25980  0.60490  1.0000 0.1284266589
H   H20       1.0  0.78580  0.74020  0.10490  1.0000 0.1284266589
H   H21       1.0  0.74020  0.78580  0.89510  1.0000 0.1284266589
H   H22       1.0  0.25980  0.21420  0.39510  1.0000 0.1284266589
H   H23       1.0  0.28580  0.75980  0.14510  1.0000 0.1284266589
H   H24       1.0  0.71420  0.24020  0.64510  1.0000 0.1284266589
H   H25       1.0  0.86010  0.22970  0.79030  1.0000 0.0978870134
H   H26       1.0  0.13990  0.77030  0.29030  1.0000 0.0978870134
H   H27       1.0  0.27030  0.36010  0.54030  1.0000 0.0978870134
H   H28       1.0  0.72970  0.63990  0.04030  1.0000 0.0978870134
H   H29       1.0  0.63990  0.72970  0.95970  1.0000 0.0978870134
H   H30       1.0  0.36010  0.27030  0.45970  1.0000 0.0978870134
H   H31       1.0  0.22970  0.86010  0.20970  1.0000 0.0978870134
H   H32       1.0  0.77030  0.13990  0.70970  1.0000 0.0978870134
H   H33       1.0  0.69810  0.14800  0.02900  1.0000 0.0978870134
H   H34       1.0  0.30190  0.85200  0.52900  1.0000 0.0978870134
H   H35       1.0  0.35200  0.19810  0.77900  1.0000 0.0978870134
H   H36       1.0  0.64800  0.80190  0.27900  1.0000 0.0978870134
H   H37       1.0  0.80190  0.64800  0.72100  1.0000 0.0978870134
H   H38       1.0  0.19810  0.35200  0.22100  1.0000 0.0978870134
H   H39       1.0  0.14800  0.69810  0.97100  1.0000 0.0978870134
H   H40       1.0  0.85200  0.30190  0.47100  1.0000 0.0978870134
H   H41       1.0  0.58880  0.20090  0.08480  1.0000 0.1094160424
H   H42       1.0  0.41120  0.79910  0.58480  1.0000 0.1094160424
H   H43       1.0  0.29910  0.08880  0.83480  1.0000 0.1094160424
H   H44       1.0  0.70090  0.91120  0.33480  1.0000 0.1094160424
H   H45       1.0  0.91120  0.70090  0.66520  1.0000 0.1094160424
H   H46       1.0  0.08880  0.29910  0.16520  1.0000 0.1094160424
H   H47       1.0  0.20090  0.58880  0.91520  1.0000 0.1094160424
H   H48       1.0  0.79910  0.41120  0.41520  1.0000 0.1094160424
H   H49       1.0  0.49650  0.29940  0.04110  1.0000 0.1094160424
H   H50       1.0  0.50350  0.70060  0.54110  1.0000 0.1094160424
H   H51       1.0  0.20060  0.99650  0.79110  1.0000 0.1094160424
H   H52       1.0  0.79940  0.00350  0.29110  1.0000 0.1094160424
H   H53       1.0  0.00350  0.79940  0.70890  1.0000 0.1094160424
H   H54       1.0  0.99650  0.20060  0.20890  1.0000 0.1094160424
H   H55       1.0  0.29940  0.49650  0.95890  1.0000 0.1094160424
H   H56       1.0  0.70060  0.50350  0.45890  1.0000 0.1094160424
H   H57       1.0  0.63880  0.30310  0.88870  1.0000 0.1094160424
H   H58       1.0  0.36120  0.69690  0.38870  1.0000 0.1094160424
H   H59       1.0  0.19690  0.13880  0.63870  1.0000 0.1094160424
H   H60       1.0  0.80310  0.86120  0.13870  1.0000 0.1094160424
H   H61       1.0  0.86120  0.80310  0.86130  1.0000 0.1094160424
H   H62       1.0  0.13880  0.19690  0.36130  1.0000 0.1094160424
H   H63       1.0  0.30310  0.63880  0.11130  1.0000 0.1094160424
H   H64       1.0  0.69690  0.36120  0.61130  1.0000 0.1094160424
H   H65       1.0  0.37800  0.54480  0.79150  1.0000 0.1094160424
H   H66       1.0  0.62200  0.45520  0.29150  1.0000 0.1094160424
H   H67       1.0  0.95520  0.87800  0.54150  1.0000 0.1094160424
H   H68       1.0  0.04480  0.12200  0.04150  1.0000 0.1094160424
H   H69       1.0  0.12200  0.04480  0.95850  1.0000 0.1094160424
H   H70       1.0  0.87800  0.95520  0.45850  1.0000 0.1094160424
H   H71       1.0  0.54480  0.37800  0.20850  1.0000 0.1094160424
H   H72       1.0  0.45520  0.62200  0.70850  1.0000 0.1094160424
H   H73       1.0  0.26920  0.56260  0.72270  1.0000 0.1094160424
H   H74       1.0  0.73080  0.43740  0.22270  1.0000 0.1094160424
H   H75       1.0  0.93740  0.76920  0.47270  1.0000 0.1094160424
H   H76       1.0  0.06260  0.23080  0.97270  1.0000 0.1094160424
H   H77       1.0  0.23080  0.06260  0.02730  1.0000 0.1094160424
H   H78       1.0  0.76920  0.93740  0.52730  1.0000 0.1094160424
H   H79       1.0  0.56260  0.26920  0.27730  1.0000 0.1094160424
H   H80       1.0  0.43740  0.73080  0.77730  1.0000 0.1094160424
H   H81       1.0  0.16260  0.46680  0.71510  1.0000 0.1094160424
H   H82       1.0  0.83740  0.53320  0.21510  1.0000 0.1094160424
H   H83       1.0  0.03320  0.66260  0.46510  1.0000 0.1094160424
H   H84       1.0  0.96680  0.33740  0.96510  1.0000 0.1094160424
H   H85       1.0  0.33740  0.96680  0.03490  1.0000 0.1094160424
H   H86       1.0  0.66260  0.03320  0.53490  1.0000 0.1094160424
H   H87       1.0  0.46680  0.16260  0.28490  1.0000 0.1094160424
H   H88       1.0  0.53320  0.83740  0.78490  1.0000 0.1094160424
H   H89       1.0  0.27780  0.32350  0.84360  1.0000 0.1094160424
H   H90       1.0  0.72220  0.67650  0.34360  1.0000 0.1094160424
H   H91       1.0  0.17650  0.77780  0.59360  1.0000 0.1094160424
H   H92       1.0  0.82350  0.22220  0.09360  1.0000 0.1094160424
H   H93       1.0  0.22220  0.82350  0.90640  1.0000 0.1094160424
H   H94       1.0  0.77780  0.17650  0.40640  1.0000 0.1094160424
H   H95       1.0  0.32350  0.27780  0.15640  1.0000 0.1094160424
H   H96       1.0  0.67650  0.72220  0.65640  1.0000 0.1094160424
H   H97       1.0  0.09760  0.34950  0.69020  1.0000 0.1284266589
H   H98       1.0  0.90240  0.65050  0.19020  1.0000 0.1284266589
H   H99       1.0  0.15050  0.59760  0.44020  1.0000 0.1284266589
H   H100      1.0  0.84950  0.40240  0.94020  1.0000 0.1284266589
H   H101      1.0  0.40240  0.84950  0.05980  1.0000 0.1284266589
H   H102      1.0  0.59760  0.15050  0.55980  1.0000 0.1284266589
H   H103      1.0  0.34950  0.09760  0.30980  1.0000 0.1284266589
H   H104      1.0  0.65050  0.90240  0.80980  1.0000 0.1284266589
H   H105      1.0  0.00630  0.23990  0.67940  1.0000 0.0978870134
H   H106      1.0  0.99370  0.76010  0.17940  1.0000 0.0978870134
H   H107      1.0  0.26010  0.50630  0.42940  1.0000 0.0978870134
H   H108      1.0  0.73990  0.49370  0.92940  1.0000 0.0978870134
H   H109      1.0  0.49370  0.73990  0.07060  1.0000 0.0978870134
H   H110      1.0  0.50630  0.26010  0.57060  1.0000 0.0978870134
H   H111      1.0  0.23990  0.00630  0.32060  1.0000 0.0978870134
H   H112      1.0  0.76010  0.99370  0.82060  1.0000 0.0978870134
H   H113      1.0  0.06230  0.15560  0.84130  1.0000 0.0978870134
H   H114      1.0  0.93770  0.84440  0.34130  1.0000 0.0978870134
H   H115      1.0  0.34440  0.56230  0.59130  1.0000 0.0978870134
H   H116      1.0  0.65560  0.43770  0.09130  1.0000 0.0978870134
H   H117      1.0  0.43770  0.65560  0.90870  1.0000 0.0978870134
H   H118      1.0  0.56230  0.34440  0.40870  1.0000 0.0978870134
H   H119      1.0  0.15560  0.06230  0.15870  1.0000 0.0978870134
H   H120      1.0  0.84440  0.93770  0.65870  1.0000 0.0978870134
H   H121      1.0  0.15650  0.26300  0.85690  1.0000 0.1284266589
H   H122      1.0  0.84350  0.73700  0.35690  1.0000 0.1284266589
H   H123      1.0  0.23700  0.65650  0.60690  1.0000 0.1284266589
H   H124      1.0  0.76300  0.34350  0.10690  1.0000 0.1284266589
H   H125      1.0  0.34350  0.76300  0.89310  1.0000 0.1284266589
H   H126      1.0  0.65650  0.23700  0.39310  1.0000 0.1284266589
H   H127      1.0  0.26300  0.15650  0.14310  1.0000 0.1284266589
H   H128      1.0  0.73700  0.84350  0.64310  1.0000 0.1284266589
H   H129      1.0  0.46840  0.25000  0.84540  1.0000 0.2455573138
H   H130      1.0  0.53160  0.75000  0.34540  1.0000 0.2455573138
H   H131      1.0  0.25000  0.96840  0.59540  1.0000 0.2455573138
H   H132      1.0  0.75000  0.03160  0.09540  1.0000 0.2455573138
H   H133      1.0  0.03160  0.75000  0.90460  1.0000 0.2455573138
H   H134      1.0  0.96840  0.25000  0.40460  1.0000 0.2455573138
H   H135      1.0  0.25000  0.46840  0.15460  1.0000 0.2455573138
H   H136      1.0  0.75000  0.53160  0.65460  1.0000 0.2455573138
H   H137      1.0  0.41630  0.23570  0.89970  1.0000 0.2455573138
H   H138      1.0  0.58370  0.76430  0.39970  1.0000 0.2455573138
H   H139      1.0  0.26430  0.91630  0.64970  1.0000 0.2455573138
H   H140      1.0  0.73570  0.08370  0.14970  1.0000 0.2455573138
H   H141      1.0  0.08370  0.73570  0.85030  1.0000 0.2455573138
H   H142      1.0  0.91630  0.26430  0.35030  1.0000 0.2455573138
H   H143      1.0  0.23570  0.41630  0.10030  1.0000 0.2455573138
H   H144      1.0  0.76430  0.58370  0.60030  1.0000 0.2455573138
C   C1        1.0  0.85950  0.08740  0.88880  1.0000 0.0777212344
C   C2        1.0  0.14050  0.91260  0.38880  1.0000 0.0777212344
C   C3        1.0  0.41260  0.35950  0.63880  1.0000 0.0777212344
C   C4        1.0  0.58740  0.64050  0.13880  1.0000 0.0777212344
C   C5        1.0  0.64050  0.58740  0.86120  1.0000 0.0777212344
C   C6        1.0  0.35950  0.41260  0.36120  1.0000 0.0777212344
C   C7        1.0  0.08740  0.85950  0.11120  1.0000 0.0777212344
C   C8        1.0  0.91260  0.14050  0.61120  1.0000 0.0777212344
C   C9        1.0  0.79680  0.11630  0.92850  1.0000 -0.2223925181
C   C10       1.0  0.20320  0.88370  0.42850  1.0000 -0.2223925181
C   C11       1.0  0.38370  0.29680  0.67850  1.0000 -0.2223925181
C   C12       1.0  0.61630  0.70320  0.17850  1.0000 -0.2223925181
C   C13       1.0  0.70320  0.61630  0.82150  1.0000 -0.2223925181
C   C14       1.0  0.29680  0.38370  0.32150  1.0000 -0.2223925181
C   C15       1.0  0.11630  0.79680  0.07150  1.0000 -0.2223925181
C   C16       1.0  0.88370  0.20320  0.57150  1.0000 -0.2223925181
C   C17       1.0  0.75430  0.19080  0.91510  1.0000 0.1094160424
C   C18       1.0  0.24570  0.80920  0.41510  1.0000 0.1094160424
C   C19       1.0  0.30920  0.25430  0.66510  1.0000 0.1094160424
C   C20       1.0  0.69080  0.74570  0.16510  1.0000 0.1094160424
C   C21       1.0  0.74570  0.69080  0.83490  1.0000 0.1094160424
C   C22       1.0  0.25430  0.30920  0.33490  1.0000 0.1094160424
C   C23       1.0  0.19080  0.75430  0.08490  1.0000 0.1094160424
C   C24       1.0  0.80920  0.24570  0.58490  1.0000 0.1094160424
C   C25       1.0  0.78230  0.23320  0.86390  1.0000 -0.2005603258
C   C26       1.0  0.21770  0.76680  0.36390  1.0000 -0.2005603258
C   C27       1.0  0.26680  0.28230  0.61390  1.0000 -0.2005603258
C   C28       1.0  0.73320  0.71770  0.11390  1.0000 -0.2005603258
C   C29       1.0  0.71770  0.73320  0.88610  1.0000 -0.2005603258
C   C30       1.0  0.28230  0.26680  0.38610  1.0000 -0.2005603258
C   C31       1.0  0.23320  0.78230  0.13610  1.0000 -0.2005603258
C   C32       1.0  0.76680  0.21770  0.63610  1.0000 -0.2005603258
C   C33       1.0  0.84340  0.19960  0.82520  1.0000 0.0184705949
C   C34       1.0  0.15660  0.80040  0.32520  1.0000 0.0184705949
C   C35       1.0  0.30040  0.34340  0.57520  1.0000 0.0184705949
C   C36       1.0  0.69960  0.65660  0.07520  1.0000 0.0184705949
C   C37       1.0  0.65660  0.69960  0.92480  1.0000 0.0184705949
C   C38       1.0  0.34340  0.30040  0.42480  1.0000 0.0184705949
C   C39       1.0  0.19960  0.84340  0.17480  1.0000 0.0184705949
C   C40       1.0  0.80040  0.15660  0.67480  1.0000 0.0184705949
C   C41       1.0  0.68200  0.22040  0.95250  1.0000 0.0717607578
C   C42       1.0  0.31800  0.77960  0.45250  1.0000 0.0717607578
C   C43       1.0  0.27960  0.18200  0.70250  1.0000 0.0717607578
C   C44       1.0  0.72040  0.81800  0.20250  1.0000 0.0717607578
C   C45       1.0  0.81800  0.72040  0.79750  1.0000 0.0717607578
C   C46       1.0  0.18200  0.27960  0.29750  1.0000 0.0717607578
C   C47       1.0  0.22040  0.68200  0.04750  1.0000 0.0717607578
C   C48       1.0  0.77960  0.31800  0.54750  1.0000 0.0717607578
C   C49       1.0  0.66420  0.18970  0.01190  1.0000 -0.1622103006
C   C50       1.0  0.33580  0.81030  0.51190  1.0000 -0.1622103006
C   C51       1.0  0.31030  0.16420  0.76190  1.0000 -0.1622103006
C   C52       1.0  0.68970  0.83580  0.26190  1.0000 -0.1622103006
C   C53       1.0  0.83580  0.68970  0.73810  1.0000 -0.1622103006
C   C54       1.0  0.16420  0.31030  0.23810  1.0000 -0.1622103006
C   C55       1.0  0.18970  0.66420  0.98810  1.0000 -0.1622103006
C   C56       1.0  0.81030  0.33580  0.48810  1.0000 -0.1622103006
C   C57       1.0  0.59800  0.22010  0.04470  1.0000 -0.1039711647
C   C58       1.0  0.40200  0.77990  0.54470  1.0000 -0.1039711647
C   C59       1.0  0.27990  0.09800  0.79470  1.0000 -0.1039711647
C   C60       1.0  0.72010  0.90200  0.29470  1.0000 -0.1039711647
C   C61       1.0  0.90200  0.72010  0.70530  1.0000 -0.1039711647
C   C62       1.0  0.09800  0.27990  0.20530  1.0000 -0.1039711647
C   C63       1.0  0.22010  0.59800  0.95530  1.0000 -0.1039711647
C   C64       1.0  0.77990  0.40200  0.45530  1.0000 -0.1039711647
C   C65       1.0  0.54300  0.28040  0.01900  1.0000 -0.1668741498
C   C66       1.0  0.45700  0.71960  0.51900  1.0000 -0.1668741498
C   C67       1.0  0.21960  0.04300  0.76900  1.0000 -0.1668741498
C   C68       1.0  0.78040  0.95700  0.26900  1.0000 -0.1668741498
C   C69       1.0  0.95700  0.78040  0.73100  1.0000 -0.1668741498
C   C70       1.0  0.04300  0.21960  0.23100  1.0000 -0.1668741498
C   C71       1.0  0.28040  0.54300  0.98100  1.0000 -0.1668741498
C   C72       1.0  0.71960  0.45700  0.48100  1.0000 -0.1668741498
C   C73       1.0  0.56000  0.31080  0.95970  1.0000 0.0184705949
C   C74       1.0  0.44000  0.68920  0.45970  1.0000 0.0184705949
C   C75       1.0  0.18920  0.06000  0.70970  1.0000 0.0184705949
C   C76       1.0  0.81080  0.94000  0.20970  1.0000 0.0184705949
C   C77       1.0  0.94000  0.81080  0.79030  1.0000 0.0184705949
C   C78       1.0  0.06000  0.18920  0.29030  1.0000 0.0184705949
C   C79       1.0  0.31080  0.56000  0.04030  1.0000 0.0184705949
C   C80       1.0  0.68920  0.44000  0.54030  1.0000 0.0184705949
C   C81       1.0  0.62790  0.28170  0.92790  1.0000 -0.2005603258
C   C82       1.0  0.37210  0.71830  0.42790  1.0000 -0.2005603258
C   C83       1.0  0.21830  0.12790  0.67790  1.0000 -0.2005603258
C   C84       1.0  0.78170  0.87210  0.17790  1.0000 -0.2005603258
C   C85       1.0  0.87210  0.78170  0.82210  1.0000 -0.2005603258
C   C86       1.0  0.12790  0.21830  0.32210  1.0000 -0.2005603258
C   C87       1.0  0.28170  0.62790  0.07210  1.0000 -0.2005603258
C   C88       1.0  0.71830  0.37210  0.57210  1.0000 -0.2005603258
C   C89       1.0  0.50440  0.37350  0.92980  1.0000 0.1716400636
C   C90       1.0  0.49560  0.62650  0.42980  1.0000 0.1716400636
C   C91       1.0  0.12650  0.00440  0.67980  1.0000 0.1716400636
C   C92       1.0  0.87350  0.99560  0.17980  1.0000 0.1716400636
C   C93       1.0  0.99560  0.87350  0.82020  1.0000 0.1716400636
C   C94       1.0  0.00440  0.12650  0.32020  1.0000 0.1716400636
C   C95       1.0  0.37350  0.50440  0.07020  1.0000 0.1716400636
C   C96       1.0  0.62650  0.49560  0.57020  1.0000 0.1716400636
C   C97       1.0  0.40760  0.42380  0.86740  1.0000 0.1716400636
C   C98       1.0  0.59240  0.57620  0.36740  1.0000 0.1716400636
C   C99       1.0  0.07620  0.90760  0.61740  1.0000 0.1716400636
C   C100      1.0  0.92380  0.09240  0.11740  1.0000 0.1716400636
C   C101      1.0  0.09240  0.92380  0.88260  1.0000 0.1716400636
C   C102      1.0  0.90760  0.07620  0.38260  1.0000 0.1716400636
C   C103      1.0  0.42380  0.40760  0.13260  1.0000 0.1716400636
C   C104      1.0  0.57620  0.59240  0.63260  1.0000 0.1716400636
C   C105      1.0  0.33950  0.43180  0.82430  1.0000 0.0264951612
C   C106      1.0  0.66050  0.56820  0.32430  1.0000 0.0264951612
C   C107      1.0  0.06820  0.83950  0.57430  1.0000 0.0264951612
C   C108      1.0  0.93180  0.16050  0.07430  1.0000 0.0264951612
C   C109      1.0  0.16050  0.93180  0.92570  1.0000 0.0264951612
C   C110      1.0  0.83950  0.06820  0.42570  1.0000 0.0264951612
C   C111      1.0  0.43180  0.33950  0.17570  1.0000 0.0264951612
C   C112      1.0  0.56820  0.66050  0.67570  1.0000 0.0264951612
C   C113      1.0  0.33620  0.50410  0.78820  1.0000 -0.1622103006
C   C114      1.0  0.66380  0.49590  0.28820  1.0000 -0.1622103006
C   C115      1.0  0.99590  0.83620  0.53820  1.0000 -0.1622103006
C   C116      1.0  0.00410  0.16380  0.03820  1.0000 -0.1622103006
C   C117      1.0  0.16380  0.00410  0.96180  1.0000 -0.1622103006
C   C118      1.0  0.83620  0.99590  0.46180  1.0000 -0.1622103006
C   C119      1.0  0.50410  0.33620  0.21180  1.0000 -0.1622103006
C   C120      1.0  0.49590  0.66380  0.71180  1.0000 -0.1622103006
C   C121      1.0  0.27050  0.51480  0.74760  1.0000 -0.110773636
C   C122      1.0  0.72950  0.48520  0.24760  1.0000 -0.110773636
C   C123      1.0  0.98520  0.77050  0.49760  1.0000 -0.110773636
C   C124      1.0  0.01480  0.22950  0.99760  1.0000 -0.110773636
C   C125      1.0  0.22950  0.01480  0.00240  1.0000 -0.110773636
C   C126      1.0  0.77050  0.98520  0.50240  1.0000 -0.110773636
C   C127      1.0  0.51480  0.27050  0.25240  1.0000 -0.110773636
C   C128      1.0  0.48520  0.72950  0.75240  1.0000 -0.110773636
C   C129      1.0  0.20670  0.45730  0.74250  1.0000 -0.1668741498
C   C130      1.0  0.79330  0.54270  0.24250  1.0000 -0.1668741498
C   C131      1.0  0.04270  0.70670  0.49250  1.0000 -0.1668741498
C   C132      1.0  0.95730  0.29330  0.99250  1.0000 -0.1668741498
C   C133      1.0  0.29330  0.95730  0.00750  1.0000 -0.1668741498
C   C134      1.0  0.70670  0.04270  0.50750  1.0000 -0.1668741498
C   C135      1.0  0.45730  0.20670  0.25750  1.0000 -0.1668741498
C   C136      1.0  0.54270  0.79330  0.75750  1.0000 -0.1668741498
C   C137      1.0  0.20800  0.38250  0.77940  1.0000 0.0717607578
C   C138      1.0  0.79200  0.61750  0.27940  1.0000 0.0717607578
C   C139      1.0  0.11750  0.70800  0.52940  1.0000 0.0717607578
C   C140      1.0  0.88250  0.29200  0.02940  1.0000 0.0717607578
C   C141      1.0  0.29200  0.88250  0.97060  1.0000 0.0717607578
C   C142      1.0  0.70800  0.11750  0.47060  1.0000 0.0717607578
C   C143      1.0  0.38250  0.20800  0.22060  1.0000 0.0717607578
C   C144      1.0  0.61750  0.79200  0.72060  1.0000 0.0717607578
C   C145      1.0  0.27520  0.37180  0.81940  1.0000 -0.2005603258
C   C146      1.0  0.72480  0.62820  0.31940  1.0000 -0.2005603258
C   C147      1.0  0.12820  0.77520  0.56940  1.0000 -0.2005603258
C   C148      1.0  0.87180  0.22480  0.06940  1.0000 -0.2005603258
C   C149      1.0  0.22480  0.87180  0.93060  1.0000 -0.2005603258
C   C150      1.0  0.77520  0.12820  0.43060  1.0000 -0.2005603258
C   C151      1.0  0.37180  0.27520  0.18060  1.0000 -0.2005603258
C   C152      1.0  0.62820  0.72480  0.68060  1.0000 -0.2005603258
C   C153      1.0  0.14190  0.31710  0.77370  1.0000 0.1094160424
C   C154      1.0  0.85810  0.68290  0.27370  1.0000 0.1094160424
C   C155      1.0  0.18290  0.64190  0.52370  1.0000 0.1094160424
C   C156      1.0  0.81710  0.35810  0.02370  1.0000 0.1094160424
C   C157      1.0  0.35810  0.81710  0.97630  1.0000 0.1094160424
C   C158      1.0  0.64190  0.18290  0.47630  1.0000 0.1094160424
C   C159      1.0  0.31710  0.14190  0.22630  1.0000 0.1094160424
C   C160      1.0  0.68290  0.85810  0.72630  1.0000 0.1094160424
C   C161      1.0  0.09310  0.30980  0.72170  1.0000 -0.2106898092
C   C162      1.0  0.90690  0.69020  0.22170  1.0000 -0.2106898092
C   C163      1.0  0.19020  0.59310  0.47170  1.0000 -0.2106898092
C   C164      1.0  0.80980  0.40690  0.97170  1.0000 -0.2106898092
C   C165      1.0  0.40690  0.80980  0.02830  1.0000 -0.2106898092
C   C166      1.0  0.59310  0.19020  0.52830  1.0000 -0.2106898092
C   C167      1.0  0.30980  0.09310  0.27830  1.0000 -0.2106898092
C   C168      1.0  0.69020  0.90690  0.77830  1.0000 -0.2106898092
C   C169      1.0  0.03720  0.24380  0.71580  1.0000 0.0529540255
C   C170      1.0  0.96280  0.75620  0.21580  1.0000 0.0529540255
C   C171      1.0  0.25620  0.53720  0.46580  1.0000 0.0529540255
C   C172      1.0  0.74380  0.46280  0.96580  1.0000 0.0529540255
C   C173      1.0  0.46280  0.74380  0.03420  1.0000 0.0529540255
C   C174      1.0  0.53720  0.25620  0.53420  1.0000 0.0529540255
C   C175      1.0  0.24380  0.03720  0.28420  1.0000 0.0529540255
C   C176      1.0  0.75620  0.96280  0.78420  1.0000 0.0529540255
C   C177      1.0  0.06990  0.19480  0.80980  1.0000 0.0591914653
C   C178      1.0  0.93010  0.80520  0.30980  1.0000 0.0591914653
C   C179      1.0  0.30520  0.56990  0.55980  1.0000 0.0591914653
C   C180      1.0  0.69480  0.43010  0.05980  1.0000 0.0591914653
C   C181      1.0  0.43010  0.69480  0.94020  1.0000 0.0591914653
C   C182      1.0  0.56990  0.30520  0.44020  1.0000 0.0591914653
C   C183      1.0  0.19480  0.06990  0.19020  1.0000 0.0591914653
C   C184      1.0  0.80520  0.93010  0.69020  1.0000 0.0591914653
C   C185      1.0  0.12770  0.25930  0.81950  1.0000 -0.2005603258
C   C186      1.0  0.87230  0.74070  0.31950  1.0000 -0.2005603258
C   C187      1.0  0.24070  0.62770  0.56950  1.0000 -0.2005603258
C   C188      1.0  0.75930  0.37230  0.06950  1.0000 -0.2005603258
C   C189      1.0  0.37230  0.75930  0.93050  1.0000 -0.2005603258
C   C190      1.0  0.62770  0.24070  0.43050  1.0000 -0.2005603258
C   C191      1.0  0.25930  0.12770  0.18050  1.0000 -0.2005603258
C   C192      1.0  0.74070  0.87230  0.68050  1.0000 -0.2005603258
N   N1        1.0  0.44500  0.48750  0.89520  1.0000 -0.2844140567
N   N2        1.0  0.55500  0.51250  0.39520  1.0000 -0.2844140567
N   N3        1.0  0.01250  0.94500  0.64520  1.0000 -0.2844140567
N   N4        1.0  0.98750  0.05500  0.14520  1.0000 -0.2844140567
N   N5        1.0  0.05500  0.98750  0.85480  1.0000 -0.2844140567
N   N6        1.0  0.94500  0.01250  0.35480  1.0000 -0.2844140567
N   N7        1.0  0.48750  0.44500  0.10480  1.0000 -0.2844140567
N   N8        1.0  0.51250  0.55500  0.60480  1.0000 -0.2844140567
N   N9        1.0  0.50640  0.45530  0.93390  1.0000 -0.2303378533
N   N10       1.0  0.49360  0.54470  0.43390  1.0000 -0.2303378533
N   N11       1.0  0.04470  0.00640  0.68390  1.0000 -0.2303378533
N   N12       1.0  0.95530  0.99360  0.18390  1.0000 -0.2303378533
N   N13       1.0  0.99360  0.95530  0.81610  1.0000 -0.2303378533
N   N14       1.0  0.00640  0.04470  0.31610  1.0000 -0.2303378533
N   N15       1.0  0.45530  0.50640  0.06610  1.0000 -0.2303378533
N   N16       1.0  0.54470  0.49360  0.56610  1.0000 -0.2303378533
N   N17       1.0  0.44370  0.35150  0.88850  1.0000 0.0529540255
N   N18       1.0  0.55630  0.64850  0.38850  1.0000 0.0529540255
N   N19       1.0  0.14850  0.94370  0.63850  1.0000 0.0529540255
N   N20       1.0  0.85150  0.05630  0.13850  1.0000 0.0529540255
N   N21       1.0  0.05630  0.85150  0.86150  1.0000 0.0529540255
N   N22       1.0  0.94370  0.14850  0.36150  1.0000 0.0529540255
N   N23       1.0  0.35150  0.44370  0.11150  1.0000 0.0529540255
N   N24       1.0  0.64850  0.55630  0.61150  1.0000 0.0529540255
N   N25       1.0  0.42510  0.26920  0.86730  1.0000 -0.5110844858
N   N26       1.0  0.57490  0.73080  0.36730  1.0000 -0.5110844858
N   N27       1.0  0.23080  0.92510  0.61730  1.0000 -0.5110844858
N   N28       1.0  0.76920  0.07490  0.11730  1.0000 -0.5110844858
N   N29       1.0  0.07490  0.76920  0.88270  1.0000 -0.5110844858
N   N30       1.0  0.92510  0.23080  0.38270  1.0000 -0.5110844858
N   N31       1.0  0.26920  0.42510  0.13270  1.0000 -0.5110844858
N   N32       1.0  0.73080  0.57490  0.63270  1.0000 -0.5110844858
N   N33       1.0  0.02500  0.18600  0.75840  1.0000 -0.2303378533
N   N34       1.0  0.97500  0.81400  0.25840  1.0000 -0.2303378533
N   N35       1.0  0.31400  0.52500  0.50840  1.0000 -0.2303378533
N   N36       1.0  0.68600  0.47500  0.00840  1.0000 -0.2303378533
N   N37       1.0  0.47500  0.68600  0.99160  1.0000 -0.2303378533
N   N38       1.0  0.52500  0.31400  0.49160  1.0000 -0.2303378533
N   N39       1.0  0.18600  0.02500  0.24160  1.0000 -0.2303378533
N   N40       1.0  0.81400  0.97500  0.74160  1.0000 -0.2303378533
N   N41       1.0  0.87940  0.12380  0.83710  1.0000 -0.2303378533
N   N42       1.0  0.12060  0.87620  0.33710  1.0000 -0.2303378533
N   N43       1.0  0.37620  0.37940  0.58710  1.0000 -0.2303378533
N   N44       1.0  0.62380  0.62060  0.08710  1.0000 -0.2303378533
N   N45       1.0  0.62060  0.62380  0.91290  1.0000 -0.2303378533
N   N46       1.0  0.37940  0.37620  0.41290  1.0000 -0.2303378533
N   N47       1.0  0.12380  0.87940  0.16290  1.0000 -0.2303378533
N   N48       1.0  0.87620  0.12060  0.66290  1.0000 -0.2303378533
