# DDEC6 charges by PACMAN v1.1 (https://github.com/mtap-research/PACMAN-charge/)
data_2009[Ce][nan]3[FSR]1
_chemical_formula_sum              "Ce8 H184 C216 S12 N16 O88"
_cell_length_a       19.711
_cell_length_b       18.928
_cell_length_c       23.826
_cell_angle_alpha    90
_cell_angle_beta     116.74
_cell_angle_gamma    90

_symmetry_space_group_name_H-M    "P 1"
_symmetry_Int_Tables_number       1

loop_
  _symmetry_equiv_pos_as_xyz
  'x, y, z'

loop_
  _atom_site_type_symbol
  _atom_site_label
  _atom_site_symmetry_multiplicity
  _atom_site_fract_x
  _atom_site_fract_y
  _atom_site_fract_z
  _atom_site_occupancy
  _atom_site_charge
Ce  Ce1       1.0  0.59626  0.01376  0.97584  1.0000 2.0094211648
Ce  Ce2       1.0  0.40374  0.51376  0.52416  1.0000 2.0094211648
Ce  Ce3       1.0  0.40374  0.98624  0.02416  1.0000 2.0094211648
Ce  Ce4       1.0  0.59626  0.48624  0.47584  1.0000 2.0094211648
Ce  Ce5       1.0  0.90250  0.99605  0.01641  1.0000 2.0094211648
Ce  Ce6       1.0  0.09750  0.49605  0.48359  1.0000 2.0094211648
Ce  Ce7       1.0  0.09750  0.00395  0.98359  1.0000 2.0094211648
Ce  Ce8       1.0  0.90250  0.50395  0.51641  1.0000 2.0094211648
H   H1        1.0  0.77060  0.96740  0.82510  1.0000 0.1204440378
H   H2        1.0  0.22940  0.46740  0.67490  1.0000 0.1204440378
H   H3        1.0  0.22940  0.03260  0.17490  1.0000 0.1204440378
H   H4        1.0  0.77060  0.53260  0.32510  1.0000 0.1204440378
H   H5        1.0  0.62990  0.84480  0.86390  1.0000 0.1313713429
H   H6        1.0  0.37010  0.34480  0.63610  1.0000 0.1313713429
H   H7        1.0  0.37010  0.15520  0.13610  1.0000 0.1313713429
H   H8        1.0  0.62990  0.65520  0.36390  1.0000 0.1313713429
H   H9        1.0  0.74710  0.90090  0.73670  1.0000 0.1313713429
H   H10       1.0  0.25290  0.40090  0.76330  1.0000 0.1313713429
H   H11       1.0  0.25290  0.09910  0.26330  1.0000 0.1313713429
H   H12       1.0  0.74710  0.59910  0.23670  1.0000 0.1313713429
H   H13       1.0  0.71620  0.80950  0.65000  1.0000 0.1313713429
H   H14       1.0  0.28380  0.30950  0.85000  1.0000 0.1313713429
H   H15       1.0  0.28380  0.19050  0.35000  1.0000 0.1313713429
H   H16       1.0  0.71620  0.69050  0.15000  1.0000 0.1313713429
H   H17       1.0  0.54290  0.64170  0.65290  1.0000 0.1408999588
H   H18       1.0  0.45710  0.14170  0.84710  1.0000 0.1408999588
H   H19       1.0  0.45710  0.35830  0.34710  1.0000 0.1408999588
H   H20       1.0  0.54290  0.85830  0.15290  1.0000 0.1408999588
H   H21       1.0  0.67440  0.71770  0.57760  1.0000 0.11154127
H   H22       1.0  0.32560  0.21770  0.92240  1.0000 0.11154127
H   H23       1.0  0.32560  0.28230  0.42240  1.0000 0.11154127
H   H24       1.0  0.67440  0.78230  0.07760  1.0000 0.11154127
H   H25       1.0  0.53260  0.17890  0.16960  1.0000 0.1204440378
H   H26       1.0  0.46740  0.67890  0.33040  1.0000 0.1204440378
H   H27       1.0  0.46740  0.82110  0.83040  1.0000 0.1204440378
H   H28       1.0  0.53260  0.32110  0.66960  1.0000 0.1204440378
H   H29       1.0  0.71150  0.11210  0.14470  1.0000 0.1408999588
H   H30       1.0  0.28850  0.61210  0.35530  1.0000 0.1408999588
H   H31       1.0  0.28850  0.88790  0.85530  1.0000 0.1408999588
H   H32       1.0  0.71150  0.38790  0.64470  1.0000 0.1408999588
H   H33       1.0  0.60810  0.26370  0.24130  1.0000 0.1204440378
H   H34       1.0  0.39190  0.76370  0.25870  1.0000 0.1204440378
H   H35       1.0  0.39190  0.73630  0.75870  1.0000 0.1204440378
H   H36       1.0  0.60810  0.23630  0.74130  1.0000 0.1204440378
H   H37       1.0  0.70580  0.34680  0.31500  1.0000 0.1204440378
H   H38       1.0  0.29420  0.84680  0.18500  1.0000 0.1204440378
H   H39       1.0  0.29420  0.65320  0.68500  1.0000 0.1204440378
H   H40       1.0  0.70580  0.15320  0.81500  1.0000 0.1204440378
H   H41       1.0  0.94520  0.30560  0.32700  1.0000 0.1408999588
H   H42       1.0  0.05480  0.80560  0.17300  1.0000 0.1408999588
H   H43       1.0  0.05480  0.69440  0.67300  1.0000 0.1408999588
H   H44       1.0  0.94520  0.19440  0.82700  1.0000 0.1408999588
H   H45       1.0  0.80700  0.41670  0.37800  1.0000 0.1204440378
H   H46       1.0  0.19300  0.91670  0.12200  1.0000 0.1204440378
H   H47       1.0  0.19300  0.58330  0.62200  1.0000 0.1204440378
H   H48       1.0  0.80700  0.08330  0.87800  1.0000 0.1204440378
H   H49       1.0  0.83080  0.70370  0.39600  1.0000 0.11154127
H   H50       1.0  0.16920  0.20370  0.10400  1.0000 0.11154127
H   H51       1.0  0.16920  0.29630  0.60400  1.0000 0.11154127
H   H52       1.0  0.83080  0.79630  0.89600  1.0000 0.11154127
H   H53       1.0  0.99700  0.68220  0.34350  1.0000 0.1408999588
H   H54       1.0  0.00300  0.18220  0.15650  1.0000 0.1408999588
H   H55       1.0  0.00300  0.31780  0.65650  1.0000 0.1408999588
H   H56       1.0  0.99700  0.81780  0.84350  1.0000 0.1408999588
H   H57       1.0  0.78110  0.79880  0.32950  1.0000 0.1204440378
H   H58       1.0  0.21890  0.29880  0.17050  1.0000 0.1204440378
H   H59       1.0  0.21890  0.20120  0.67050  1.0000 0.1204440378
H   H60       1.0  0.78110  0.70120  0.82950  1.0000 0.1204440378
H   H61       1.0  0.73460  0.89290  0.24030  1.0000 0.1204440378
H   H62       1.0  0.26540  0.39290  0.25970  1.0000 0.1204440378
H   H63       1.0  0.26540  0.10710  0.75970  1.0000 0.1204440378
H   H64       1.0  0.73460  0.60710  0.74030  1.0000 0.1204440378
H   H65       1.0  0.90830  0.91460  0.15690  1.0000 0.1408999588
H   H66       1.0  0.09170  0.41460  0.34310  1.0000 0.1408999588
H   H67       1.0  0.09170  0.08540  0.84310  1.0000 0.1408999588
H   H68       1.0  0.90830  0.58540  0.65690  1.0000 0.1408999588
H   H69       1.0  0.71200  0.97330  0.15920  1.0000 0.1204440378
H   H70       1.0  0.28800  0.47330  0.34080  1.0000 0.1204440378
H   H71       1.0  0.28800  0.02670  0.84080  1.0000 0.1204440378
H   H72       1.0  0.71200  0.52670  0.65920  1.0000 0.1204440378
H   H73       1.0  0.82390  0.15070  0.05120  1.0000 0.1313713429
H   H74       1.0  0.17610  0.65070  0.44880  1.0000 0.1313713429
H   H75       1.0  0.17610  0.84930  0.94880  1.0000 0.1313713429
H   H76       1.0  0.82390  0.34930  0.55120  1.0000 0.1313713429
H   H77       1.0  0.84720  0.32830  0.05550  1.0000 0.1313713429
H   H78       1.0  0.15280  0.82830  0.44450  1.0000 0.1313713429
H   H79       1.0  0.15280  0.67170  0.94450  1.0000 0.1313713429
H   H80       1.0  0.84720  0.17170  0.55550  1.0000 0.1313713429
H   H81       1.0  0.78020  0.27750  0.04650  1.0000 0.1204440378
H   H82       1.0  0.21980  0.77750  0.45350  1.0000 0.1204440378
H   H83       1.0  0.21980  0.72250  0.95350  1.0000 0.1204440378
H   H84       1.0  0.78020  0.22250  0.54650  1.0000 0.1204440378
H   H85       1.0  0.85970  0.26870  0.10490  1.0000 0.1517411123
H   H86       1.0  0.14030  0.76870  0.39510  1.0000 0.1517411123
H   H87       1.0  0.14030  0.73130  0.89510  1.0000 0.1517411123
H   H88       1.0  0.85970  0.23130  0.60490  1.0000 0.1517411123
H   H89       1.0  0.89990  0.31070  0.99790  1.0000 0.1313713429
H   H90       1.0  0.10010  0.81070  0.50210  1.0000 0.1313713429
H   H91       1.0  0.10010  0.68930  0.00210  1.0000 0.1313713429
H   H92       1.0  0.89990  0.18930  0.49790  1.0000 0.1313713429
H   H93       1.0  0.94490  0.23970  0.00800  1.0000 0.1408999588
H   H94       1.0  0.05510  0.73970  0.49200  1.0000 0.1408999588
H   H95       1.0  0.05510  0.76030  0.99200  1.0000 0.1408999588
H   H96       1.0  0.94490  0.26030  0.50800  1.0000 0.1408999588
H   H97       1.0  0.86660  0.24970  0.94850  1.0000 0.1313713429
H   H98       1.0  0.13340  0.74970  0.55150  1.0000 0.1313713429
H   H99       1.0  0.13340  0.75030  0.05150  1.0000 0.1313713429
H   H100      1.0  0.86660  0.25030  0.44850  1.0000 0.1313713429
H   H101      1.0  0.59070  0.20520  0.99810  1.0000 0.11154127
H   H102      1.0  0.40930  0.70520  0.50190  1.0000 0.11154127
H   H103      1.0  0.40930  0.79480  0.00190  1.0000 0.11154127
H   H104      1.0  0.59070  0.29480  0.49810  1.0000 0.11154127
H   H105      1.0  0.65470  0.28200  0.87840  1.0000 0.1313713429
H   H106      1.0  0.34530  0.78200  0.62160  1.0000 0.1313713429
H   H107      1.0  0.34530  0.71800  0.12160  1.0000 0.1313713429
H   H108      1.0  0.65470  0.21800  0.37840  1.0000 0.1313713429
H   H109      1.0  0.71040  0.22930  0.92890  1.0000 0.1204440378
H   H110      1.0  0.28960  0.72930  0.57110  1.0000 0.1204440378
H   H111      1.0  0.28960  0.77070  0.07110  1.0000 0.1204440378
H   H112      1.0  0.71040  0.27070  0.42890  1.0000 0.1204440378
H   H113      1.0  0.63670  0.20090  0.87220  1.0000 0.1408999588
H   H114      1.0  0.36330  0.70090  0.62780  1.0000 0.1408999588
H   H115      1.0  0.36330  0.79910  0.12780  1.0000 0.1408999588
H   H116      1.0  0.63670  0.29910  0.37220  1.0000 0.1408999588
H   H117      1.0  0.55110  0.31110  0.95420  1.0000 0.1313713429
H   H118      1.0  0.44890  0.81110  0.54580  1.0000 0.1313713429
H   H119      1.0  0.44890  0.68890  0.04580  1.0000 0.1313713429
H   H120      1.0  0.55110  0.18890  0.45420  1.0000 0.1313713429
H   H121      1.0  0.60930  0.35190  0.93800  1.0000 0.1313713429
H   H122      1.0  0.39070  0.85190  0.56200  1.0000 0.1313713429
H   H123      1.0  0.39070  0.64810  0.06200  1.0000 0.1313713429
H   H124      1.0  0.60930  0.14810  0.43800  1.0000 0.1313713429
H   H125      1.0  0.53800  0.31590  0.88430  1.0000 0.1313713429
H   H126      1.0  0.46200  0.81590  0.61570  1.0000 0.1313713429
H   H127      1.0  0.46200  0.68410  0.11570  1.0000 0.1313713429
H   H128      1.0  0.53800  0.18410  0.38430  1.0000 0.1313713429
H   H129      1.0  0.74230  0.83930  0.00470  1.0000 0.1204440378
H   H130      1.0  0.25770  0.33930  0.49530  1.0000 0.1204440378
H   H131      1.0  0.25770  0.16070  0.99530  1.0000 0.1204440378
H   H132      1.0  0.74230  0.66070  0.50470  1.0000 0.1204440378
H   H133      1.0  0.80210  0.66450  0.02610  1.0000 0.1313713429
H   H134      1.0  0.19790  0.16450  0.47390  1.0000 0.1313713429
H   H135      1.0  0.19790  0.33550  0.97390  1.0000 0.1313713429
H   H136      1.0  0.80210  0.83550  0.52610  1.0000 0.1313713429
H   H137      1.0  0.75030  0.71010  0.04620  1.0000 0.1313713429
H   H138      1.0  0.24970  0.21010  0.45380  1.0000 0.1313713429
H   H139      1.0  0.24970  0.28990  0.95380  1.0000 0.1313713429
H   H140      1.0  0.75030  0.78990  0.54620  1.0000 0.1313713429
H   H141      1.0  0.73130  0.70400  0.97500  1.0000 0.1313713429
H   H142      1.0  0.26870  0.20400  0.52500  1.0000 0.1313713429
H   H143      1.0  0.26870  0.29600  0.02500  1.0000 0.1313713429
H   H144      1.0  0.73130  0.79600  0.47500  1.0000 0.1313713429
H   H145      1.0  0.90770  0.70410  0.04840  1.0000 0.1313713429
H   H146      1.0  0.09230  0.20410  0.45160  1.0000 0.1313713429
H   H147      1.0  0.09230  0.29590  0.95160  1.0000 0.1313713429
H   H148      1.0  0.90770  0.79590  0.54840  1.0000 0.1313713429
H   H149      1.0  0.91320  0.77300  0.01420  1.0000 0.1313713429
H   H150      1.0  0.08680  0.27300  0.48580  1.0000 0.1313713429
H   H151      1.0  0.08680  0.22700  0.98580  1.0000 0.1313713429
H   H152      1.0  0.91320  0.72700  0.51420  1.0000 0.1313713429
H   H153      1.0  0.92690  0.77650  0.08420  1.0000 0.1408999588
H   H154      1.0  0.07310  0.27650  0.41580  1.0000 0.1408999588
H   H155      1.0  0.07310  0.22350  0.91580  1.0000 0.1408999588
H   H156      1.0  0.92690  0.72350  0.58420  1.0000 0.1408999588
H   H157      1.0  0.51590  0.95690  0.82160  1.0000 0.0965230416
H   H158      1.0  0.48410  0.45690  0.67840  1.0000 0.0965230416
H   H159      1.0  0.48410  0.04310  0.17840  1.0000 0.0965230416
H   H160      1.0  0.51590  0.54310  0.32160  1.0000 0.0965230416
H   H161      1.0  0.54080  0.07940  0.70010  1.0000 0.1313713429
H   H162      1.0  0.45920  0.57940  0.79990  1.0000 0.1313713429
H   H163      1.0  0.45920  0.92060  0.29990  1.0000 0.1313713429
H   H164      1.0  0.54080  0.42060  0.20010  1.0000 0.1313713429
H   H165      1.0  0.51740  0.11740  0.74720  1.0000 0.1408999588
H   H166      1.0  0.48260  0.61740  0.75280  1.0000 0.1408999588
H   H167      1.0  0.48260  0.88260  0.25280  1.0000 0.1408999588
H   H168      1.0  0.51740  0.38260  0.24720  1.0000 0.1408999588
H   H169      1.0  0.60040  0.08900  0.77050  1.0000 0.1204440378
H   H170      1.0  0.39960  0.58900  0.72950  1.0000 0.1204440378
H   H171      1.0  0.39960  0.91100  0.22950  1.0000 0.1204440378
H   H172      1.0  0.60040  0.41100  0.27050  1.0000 0.1204440378
H   H173      1.0  0.50370  0.97680  0.67310  1.0000 0.1313713429
H   H174      1.0  0.49630  0.47680  0.82690  1.0000 0.1313713429
H   H175      1.0  0.49630  0.02320  0.32690  1.0000 0.1313713429
H   H176      1.0  0.50370  0.52320  0.17310  1.0000 0.1313713429
H   H177      1.0  0.53900  0.91970  0.72610  1.0000 0.1204440378
H   H178      1.0  0.46100  0.41970  0.77390  1.0000 0.1204440378
H   H179      1.0  0.46100  0.08030  0.27390  1.0000 0.1204440378
H   H180      1.0  0.53900  0.58030  0.22610  1.0000 0.1204440378
H   H181      1.0  0.45350  0.94150  0.70090  1.0000 0.1408999588
H   H182      1.0  0.54650  0.44150  0.79910  1.0000 0.1408999588
H   H183      1.0  0.54650  0.05850  0.29910  1.0000 0.1408999588
H   H184      1.0  0.45350  0.55850  0.20090  1.0000 0.1408999588
C   C1        1.0  0.71640  0.95840  0.90950  1.0000 0.6186458866
C   C2        1.0  0.28360  0.45840  0.59050  1.0000 0.6186458866
C   C3        1.0  0.28360  0.04160  0.09050  1.0000 0.6186458866
C   C4        1.0  0.71640  0.54160  0.40950  1.0000 0.6186458866
C   C5        1.0  0.70190  0.91390  0.85250  1.0000 -0.0275730489
C   C6        1.0  0.29810  0.41390  0.64750  1.0000 -0.0275730489
C   C7        1.0  0.29810  0.08610  0.14750  1.0000 -0.0275730489
C   C8        1.0  0.70190  0.58610  0.35250  1.0000 -0.0275730489
C   C9        1.0  0.73730  0.92930  0.81470  1.0000 -0.0914456996
C   C10       1.0  0.26270  0.42930  0.68530  1.0000 -0.0914456996
C   C11       1.0  0.26270  0.07070  0.18530  1.0000 -0.0914456996
C   C12       1.0  0.73730  0.57070  0.31470  1.0000 -0.0914456996
C   C13       1.0  0.65360  0.85600  0.83910  1.0000 -0.1283704911
C   C14       1.0  0.34640  0.35600  0.66090  1.0000 -0.1283704911
C   C15       1.0  0.34640  0.14400  0.16090  1.0000 -0.1283704911
C   C16       1.0  0.65360  0.64400  0.33910  1.0000 -0.1283704911
C   C17       1.0  0.72420  0.88920  0.76210  1.0000 -0.1283704911
C   C18       1.0  0.27580  0.38920  0.73790  1.0000 -0.1283704911
C   C19       1.0  0.27580  0.11080  0.23790  1.0000 -0.1283704911
C   C20       1.0  0.72420  0.61080  0.26210  1.0000 -0.1283704911
C   C21       1.0  0.64240  0.81570  0.78690  1.0000 -0.1283704911
C   C22       1.0  0.35760  0.31570  0.71310  1.0000 -0.1283704911
C   C23       1.0  0.35760  0.18430  0.21310  1.0000 -0.1283704911
C   C24       1.0  0.64240  0.68430  0.28690  1.0000 -0.1283704911
C   C25       1.0  0.67640  0.83160  0.74820  1.0000 0.0393263797
C   C26       1.0  0.32360  0.33160  0.75180  1.0000 0.0393263797
C   C27       1.0  0.32360  0.16840  0.25180  1.0000 0.0393263797
C   C28       1.0  0.67640  0.66840  0.24820  1.0000 0.0393263797
C   C29       1.0  0.65620  0.77960  0.69630  1.0000 0.0453648601
C   C30       1.0  0.34380  0.27960  0.80370  1.0000 0.0453648601
C   C31       1.0  0.34380  0.22040  0.30370  1.0000 0.0453648601
C   C32       1.0  0.65620  0.72040  0.19630  1.0000 0.0453648601
C   C33       1.0  0.60490  0.72750  0.69600  1.0000 -0.1215824637
C   C34       1.0  0.39510  0.22750  0.80400  1.0000 -0.1215824637
C   C35       1.0  0.39510  0.27250  0.30400  1.0000 -0.1215824637
C   C36       1.0  0.60490  0.77250  0.19600  1.0000 -0.1215824637
C   C37       1.0  0.68240  0.77600  0.65120  1.0000 -0.1457306792
C   C38       1.0  0.31760  0.27600  0.84880  1.0000 -0.1457306792
C   C39       1.0  0.31760  0.22400  0.34880  1.0000 -0.1457306792
C   C40       1.0  0.68240  0.72400  0.15120  1.0000 -0.1457306792
C   C41       1.0  0.57810  0.67430  0.65260  1.0000 -0.0987251586
C   C42       1.0  0.42190  0.17430  0.84740  1.0000 -0.0987251586
C   C43       1.0  0.42190  0.32570  0.34740  1.0000 -0.0987251586
C   C44       1.0  0.57810  0.82570  0.15260  1.0000 -0.0987251586
C   C45       1.0  0.65660  0.72080  0.60770  1.0000 -0.0987251586
C   C46       1.0  0.34340  0.22080  0.89230  1.0000 -0.0987251586
C   C47       1.0  0.34340  0.27920  0.39230  1.0000 -0.0987251586
C   C48       1.0  0.65660  0.77920  0.10770  1.0000 -0.0987251586
C   C49       1.0  0.60580  0.67080  0.60760  1.0000 -0.0240016387
C   C50       1.0  0.39420  0.17080  0.89240  1.0000 -0.0240016387
C   C51       1.0  0.39420  0.32920  0.39240  1.0000 -0.0240016387
C   C52       1.0  0.60580  0.82920  0.10760  1.0000 -0.0240016387
C   C53       1.0  0.58290  0.61160  0.56050  1.0000 0.5975854869
C   C54       1.0  0.41710  0.11160  0.93950  1.0000 0.5975854869
C   C55       1.0  0.41710  0.38840  0.43950  1.0000 0.5975854869
C   C56       1.0  0.58290  0.88840  0.06050  1.0000 0.5975854869
C   C57       1.0  0.56240  0.08920  0.09760  1.0000 0.6102636109
C   C58       1.0  0.43760  0.58920  0.40240  1.0000 0.6102636109
C   C59       1.0  0.43760  0.91080  0.90240  1.0000 0.6102636109
C   C60       1.0  0.56240  0.41080  0.59760  1.0000 0.6102636109
C   C61       1.0  0.61330  0.13860  0.14860  1.0000 -0.0240016387
C   C62       1.0  0.38670  0.63860  0.35140  1.0000 -0.0240016387
C   C63       1.0  0.38670  0.86140  0.85140  1.0000 -0.0240016387
C   C64       1.0  0.61330  0.36140  0.64860  1.0000 -0.0240016387
C   C65       1.0  0.58370  0.18270  0.17900  1.0000 -0.0987251586
C   C66       1.0  0.41630  0.68270  0.32100  1.0000 -0.0987251586
C   C67       1.0  0.41630  0.81730  0.82100  1.0000 -0.0987251586
C   C68       1.0  0.58370  0.31730  0.67900  1.0000 -0.0987251586
C   C69       1.0  0.69080  0.14110  0.16450  1.0000 -0.0987251586
C   C70       1.0  0.30920  0.64110  0.33550  1.0000 -0.0987251586
C   C71       1.0  0.30920  0.85890  0.83550  1.0000 -0.0987251586
C   C72       1.0  0.69080  0.35890  0.66450  1.0000 -0.0987251586
C   C73       1.0  0.73530  0.18790  0.21040  1.0000 -0.1215824637
C   C74       1.0  0.26470  0.68790  0.28960  1.0000 -0.1215824637
C   C75       1.0  0.26470  0.81210  0.78960  1.0000 -0.1215824637
C   C76       1.0  0.73530  0.31210  0.71040  1.0000 -0.1215824637
C   C77       1.0  0.70710  0.23440  0.24010  1.0000 0.0393263797
C   C78       1.0  0.29290  0.73440  0.25990  1.0000 0.0393263797
C   C79       1.0  0.29290  0.76560  0.75990  1.0000 0.0393263797
C   C80       1.0  0.70710  0.26560  0.74010  1.0000 0.0393263797
C   C81       1.0  0.62920  0.23250  0.22330  1.0000 -0.1283704911
C   C82       1.0  0.37080  0.73250  0.27670  1.0000 -0.1283704911
C   C83       1.0  0.37080  0.76750  0.77670  1.0000 -0.1283704911
C   C84       1.0  0.62920  0.26750  0.72330  1.0000 -0.1283704911
C   C85       1.0  0.76420  0.28310  0.28390  1.0000 0.0393263797
C   C86       1.0  0.23580  0.78310  0.21610  1.0000 0.0393263797
C   C87       1.0  0.23580  0.71690  0.71610  1.0000 0.0393263797
C   C88       1.0  0.76420  0.21690  0.78390  1.0000 0.0393263797
C   C89       1.0  0.83710  0.27250  0.28820  1.0000 -0.1094428853
C   C90       1.0  0.16290  0.77250  0.21180  1.0000 -0.1094428853
C   C91       1.0  0.16290  0.72750  0.71180  1.0000 -0.1094428853
C   C92       1.0  0.83710  0.22750  0.78820  1.0000 -0.1094428853
C   C93       1.0  0.75370  0.33820  0.31770  1.0000 -0.1457306792
C   C94       1.0  0.24630  0.83820  0.18230  1.0000 -0.1457306792
C   C95       1.0  0.24630  0.66180  0.68230  1.0000 -0.1457306792
C   C96       1.0  0.75370  0.16180  0.81770  1.0000 -0.1457306792
C   C97       1.0  0.89770  0.31370  0.32500  1.0000 -0.0914456996
C   C98       1.0  0.10230  0.81370  0.17500  1.0000 -0.0914456996
C   C99       1.0  0.10230  0.68630  0.67500  1.0000 -0.0914456996
C   C100      1.0  0.89770  0.18630  0.82500  1.0000 -0.0914456996
C   C101      1.0  0.81440  0.38010  0.35530  1.0000 -0.0987251586
C   C102      1.0  0.18560  0.88010  0.14470  1.0000 -0.0987251586
C   C103      1.0  0.18560  0.61990  0.64470  1.0000 -0.0987251586
C   C104      1.0  0.81440  0.11990  0.85530  1.0000 -0.0987251586
C   C105      1.0  0.88680  0.36860  0.35990  1.0000 -0.0074239766
C   C106      1.0  0.11320  0.86860  0.14010  1.0000 -0.0074239766
C   C107      1.0  0.11320  0.63140  0.64010  1.0000 -0.0074239766
C   C108      1.0  0.88680  0.13140  0.85990  1.0000 -0.0074239766
C   C109      1.0  0.95310  0.41410  0.40170  1.0000 0.5975854869
C   C110      1.0  0.04690  0.91410  0.09830  1.0000 0.5975854869
C   C111      1.0  0.04690  0.58590  0.59830  1.0000 0.5975854869
C   C112      1.0  0.95310  0.08590  0.90170  1.0000 0.5975854869
C   C113      1.0  0.94530  0.61630  0.41650  1.0000 0.6102636109
C   C114      1.0  0.05470  0.11630  0.08350  1.0000 0.6102636109
C   C115      1.0  0.05470  0.38370  0.58350  1.0000 0.6102636109
C   C116      1.0  0.94530  0.88370  0.91650  1.0000 0.6102636109
C   C117      1.0  0.91780  0.68180  0.37560  1.0000 -0.0240016387
C   C118      1.0  0.08220  0.18180  0.12440  1.0000 -0.0240016387
C   C119      1.0  0.08220  0.31820  0.62440  1.0000 -0.0240016387
C   C120      1.0  0.91780  0.81820  0.87560  1.0000 -0.0240016387
C   C121      1.0  0.85380  0.71840  0.37140  1.0000 -0.0987251586
C   C122      1.0  0.14620  0.21840  0.12860  1.0000 -0.0987251586
C   C123      1.0  0.14620  0.28160  0.62860  1.0000 -0.0987251586
C   C124      1.0  0.85380  0.78160  0.87140  1.0000 -0.0987251586
C   C125      1.0  0.95390  0.70520  0.34080  1.0000 -0.0987251586
C   C126      1.0  0.04610  0.20520  0.15920  1.0000 -0.0987251586
C   C127      1.0  0.04610  0.29480  0.65920  1.0000 -0.0987251586
C   C128      1.0  0.95390  0.79480  0.84080  1.0000 -0.0987251586
C   C129      1.0  0.92510  0.76350  0.30210  1.0000 -0.1215824637
C   C130      1.0  0.07490  0.26350  0.19790  1.0000 -0.1215824637
C   C131      1.0  0.07490  0.23650  0.69790  1.0000 -0.1215824637
C   C132      1.0  0.92510  0.73650  0.80210  1.0000 -0.1215824637
C   C133      1.0  0.82380  0.77570  0.33170  1.0000 -0.139170443
C   C134      1.0  0.17620  0.27570  0.16830  1.0000 -0.139170443
C   C135      1.0  0.17620  0.22430  0.66830  1.0000 -0.139170443
C   C136      1.0  0.82380  0.72430  0.83170  1.0000 -0.139170443
C   C137      1.0  0.85790  0.79840  0.29510  1.0000 0.0453648601
C   C138      1.0  0.14210  0.29840  0.20490  1.0000 0.0453648601
C   C139      1.0  0.14210  0.20160  0.70490  1.0000 0.0453648601
C   C140      1.0  0.85790  0.70160  0.79510  1.0000 0.0453648601
C   C141      1.0  0.83380  0.85470  0.24700  1.0000 0.0393263797
C   C142      1.0  0.16620  0.35470  0.25300  1.0000 0.0393263797
C   C143      1.0  0.16620  0.14530  0.75300  1.0000 0.0393263797
C   C144      1.0  0.83380  0.64530  0.74700  1.0000 0.0393263797
C   C145      1.0  0.76900  0.89680  0.22360  1.0000 -0.1283704911
C   C146      1.0  0.23100  0.39680  0.27640  1.0000 -0.1283704911
C   C147      1.0  0.23100  0.10320  0.77640  1.0000 -0.1283704911
C   C148      1.0  0.76900  0.60320  0.72360  1.0000 -0.1283704911
C   C149      1.0  0.88390  0.86270  0.21980  1.0000 -0.1215824637
C   C150      1.0  0.11610  0.36270  0.28020  1.0000 -0.1215824637
C   C151      1.0  0.11610  0.13730  0.78020  1.0000 -0.1215824637
C   C152      1.0  0.88390  0.63730  0.71980  1.0000 -0.1215824637
C   C153      1.0  0.87300  0.91020  0.17270  1.0000 -0.0914456996
C   C154      1.0  0.12700  0.41020  0.32730  1.0000 -0.0914456996
C   C155      1.0  0.12700  0.08980  0.82730  1.0000 -0.0914456996
C   C156      1.0  0.87300  0.58980  0.67270  1.0000 -0.0914456996
C   C157      1.0  0.75540  0.94530  0.17470  1.0000 -0.0914456996
C   C158      1.0  0.24460  0.44530  0.32530  1.0000 -0.0914456996
C   C159      1.0  0.24460  0.05470  0.82530  1.0000 -0.0914456996
C   C160      1.0  0.75540  0.55470  0.67470  1.0000 -0.0914456996
C   C161      1.0  0.80720  0.95140  0.14940  1.0000 -0.0074239766
C   C162      1.0  0.19280  0.45140  0.35060  1.0000 -0.0074239766
C   C163      1.0  0.19280  0.04860  0.85060  1.0000 -0.0074239766
C   C164      1.0  0.80720  0.54860  0.64940  1.0000 -0.0074239766
C   C165      1.0  0.79350  0.00210  0.09620  1.0000 0.6186458866
C   C166      1.0  0.20650  0.50210  0.40380  1.0000 0.6186458866
C   C167      1.0  0.20650  0.99790  0.90380  1.0000 0.6186458866
C   C168      1.0  0.79350  0.49790  0.59620  1.0000 0.6186458866
C   C169      1.0  0.84480  0.16660  0.02550  1.0000 0.278155769
C   C170      1.0  0.15520  0.66667  0.47450  1.0000 0.2748186241
C   C171      1.0  0.15520  0.83340  0.97450  1.0000 0.2748186241
C   C172      1.0  0.84480  0.33340  0.52550  1.0000 0.278155769
C   C173      1.0  0.83420  0.28080  0.06110  1.0000 -0.3202029814
C   C174      1.0  0.16580  0.78080  0.43890  1.0000 -0.3284236114
C   C175      1.0  0.16580  0.71920  0.93890  1.0000 -0.3284236114
C   C176      1.0  0.83420  0.21920  0.56110  1.0000 -0.3284236114
C   C177      1.0  0.89520  0.26040  0.99230  1.0000 -0.3000820328
C   C178      1.0  0.10480  0.76040  0.50770  1.0000 -0.3000820328
C   C179      1.0  0.10480  0.73960  0.00770  1.0000 -0.3000820328
C   C180      1.0  0.89520  0.23960  0.49230  1.0000 -0.3000820328
C   C181      1.0  0.61320  0.19570  0.97200  1.0000 0.2234255697
C   C182      1.0  0.38680  0.69570  0.52800  1.0000 0.2283237081
C   C183      1.0  0.38680  0.80430  0.02800  1.0000 0.2234255697
C   C184      1.0  0.61320  0.30430  0.47200  1.0000 0.2283237081
C   C185      1.0  0.65800  0.23930  0.90120  1.0000 -0.2669702073
C   C186      1.0  0.34200  0.73930  0.59880  1.0000 -0.2669702073
C   C187      1.0  0.34200  0.76070  0.09880  1.0000 -0.2669702073
C   C188      1.0  0.65800  0.26070  0.40120  1.0000 -0.2669702073
C   C189      1.0  0.57560  0.31210  0.92730  1.0000 -0.3284236114
C   C190      1.0  0.42440  0.81210  0.57270  1.0000 -0.3284236114
C   C191      1.0  0.42440  0.68790  0.07270  1.0000 -0.3284236114
C   C192      1.0  0.57560  0.18790  0.42730  1.0000 -0.3284236114
C   C193      1.0  0.79370  0.83320  0.01630  1.0000 0.3092750225
C   C194      1.0  0.20630  0.33320  0.48370  1.0000 0.3092750225
C   C195      1.0  0.20630  0.16680  0.98370  1.0000 0.3092750225
C   C196      1.0  0.79370  0.66680  0.51630  1.0000 0.3092750225
C   C197      1.0  0.77160  0.70640  0.01710  1.0000 -0.3202029814
C   C198      1.0  0.22840  0.20640  0.48290  1.0000 -0.3202029814
C   C199      1.0  0.22840  0.29360  0.98290  1.0000 -0.3202029814
C   C200      1.0  0.77160  0.79360  0.51710  1.0000 -0.3202029814
C   C201      1.0  0.89820  0.75400  0.04430  1.0000 -0.3072769319
C   C202      1.0  0.10180  0.25400  0.45570  1.0000 -0.3072769319
C   C203      1.0  0.10180  0.24600  0.95570  1.0000 -0.3072769319
C   C204      1.0  0.89820  0.74600  0.54430  1.0000 -0.3072769319
C   C205      1.0  0.52910  0.00170  0.81380  1.0000 0.3092750225
C   C206      1.0  0.47090  0.50170  0.68620  1.0000 0.3092750225
C   C207      1.0  0.47090  0.99830  0.18620  1.0000 0.3092750225
C   C208      1.0  0.52910  0.49830  0.31380  1.0000 0.3092750225
C   C209      1.0  0.54790  0.08040  0.74260  1.0000 -0.3202029814
C   C210      1.0  0.45210  0.58040  0.75740  1.0000 -0.3202029814
C   C211      1.0  0.45210  0.91960  0.25740  1.0000 -0.3202029814
C   C212      1.0  0.54790  0.41960  0.24260  1.0000 -0.3202029814
C   C213      1.0  0.50350  0.95810  0.71050  1.0000 -0.339569663
C   C214      1.0  0.49650  0.45810  0.78950  1.0000 -0.339569663
C   C215      1.0  0.49650  0.04190  0.28950  1.0000 -0.339569663
C   C216      1.0  0.50350  0.54190  0.21050  1.0000 -0.339569663
S   S1        1.0  0.58556  0.73873  0.76125  1.0000 0.9583801876
S   S2        1.0  0.41444  0.23873  0.73875  1.0000 0.9583801876
S   S3        1.0  0.41444  0.26127  0.23875  1.0000 0.9583801876
S   S4        1.0  0.58556  0.76127  0.26125  1.0000 0.9583801876
S   S5        1.0  0.83552  0.19791  0.24154  1.0000 0.993608738
S   S6        1.0  0.16448  0.69791  0.25846  1.0000 0.993608738
S   S7        1.0  0.16448  0.80209  0.75846  1.0000 0.993608738
S   S8        1.0  0.83552  0.30209  0.74154  1.0000 0.993608738
S   S9        1.0  0.96172  0.80402  0.25445  1.0000 0.9844141554
S   S10       1.0  0.03828  0.30402  0.24555  1.0000 0.9844141554
S   S11       1.0  0.03828  0.19598  0.74555  1.0000 0.9844141554
S   S12       1.0  0.96172  0.69598  0.75445  1.0000 0.9844141554
N   N1        1.0  0.85730  0.23260  0.02570  1.0000 0.0101734979
N   N2        1.0  0.14270  0.73260  0.47430  1.0000 0.0101734979
N   N3        1.0  0.14270  0.76740  0.97430  1.0000 0.0101734979
N   N4        1.0  0.85730  0.26740  0.52570  1.0000 0.0101734979
N   N5        1.0  0.61880  0.24730  0.93570  1.0000 0.0195018004
N   N6        1.0  0.38120  0.74730  0.56430  1.0000 0.0195018004
N   N7        1.0  0.38120  0.75270  0.06430  1.0000 0.0195018004
N   N8        1.0  0.61880  0.25270  0.43570  1.0000 0.0195018004
N   N9        1.0  0.81790  0.76700  0.02320  1.0000 0.0101734979
N   N10       1.0  0.18210  0.26700  0.47680  1.0000 0.0101734979
N   N11       1.0  0.18210  0.23300  0.97680  1.0000 0.0101734979
N   N12       1.0  0.81790  0.73300  0.52320  1.0000 0.0101734979
N   N13       1.0  0.52530  0.01330  0.75790  1.0000 0.0195018004
N   N14       1.0  0.47470  0.51330  0.74210  1.0000 0.0195018004
N   N15       1.0  0.47470  0.98670  0.24210  1.0000 0.0195018004
N   N16       1.0  0.52530  0.48670  0.25790  1.0000 0.0195018004
O   O1        1.0  0.77190  0.00050  0.92904  1.0000 -0.6298261632
O   O2        1.0  0.22810  0.50050  0.57096  1.0000 -0.6298261632
O   O3        1.0  0.22810  0.99950  0.07096  1.0000 -0.6298261632
O   O4        1.0  0.77190  0.49950  0.42904  1.0000 -0.6298261632
O   O5        1.0  0.67020  0.95210  0.93269  1.0000 -0.6532440533
O   O6        1.0  0.32980  0.45210  0.56731  1.0000 -0.6532440533
O   O7        1.0  0.32980  0.04790  0.06731  1.0000 -0.6532440533
O   O8        1.0  0.67020  0.54790  0.43269  1.0000 -0.6532440533
O   O9        1.0  0.52690  0.57460  0.55510  1.0000 -0.6685009499
O   O10       1.0  0.47310  0.07460  0.94490  1.0000 -0.6685009499
O   O11       1.0  0.47310  0.42540  0.44490  1.0000 -0.6685009499
O   O12       1.0  0.52690  0.92540  0.05510  1.0000 -0.6685009499
O   O13       1.0  0.61890  0.60200  0.53040  1.0000 -0.5794693803
O   O14       1.0  0.38110  0.10200  0.96960  1.0000 -0.5794693803
O   O15       1.0  0.38110  0.39800  0.46960  1.0000 -0.5794693803
O   O16       1.0  0.61890  0.89800  0.03040  1.0000 -0.5794693803
O   O17       1.0  0.61790  0.68170  0.80600  1.0000 -0.5425261308
O   O18       1.0  0.38210  0.18170  0.69400  1.0000 -0.5425261308
O   O19       1.0  0.38210  0.31830  0.19400  1.0000 -0.5425261308
O   O20       1.0  0.61790  0.81830  0.30600  1.0000 -0.5425261308
O   O21       1.0  0.50710  0.75510  0.74150  1.0000 -0.5425261308
O   O22       1.0  0.49290  0.25510  0.75850  1.0000 -0.5425261308
O   O23       1.0  0.49290  0.24490  0.25850  1.0000 -0.5425261308
O   O24       1.0  0.50710  0.74490  0.24150  1.0000 -0.5425261308
O   O25       1.0  0.49810  0.07550  0.09258  1.0000 -0.6198507672
O   O26       1.0  0.50190  0.57550  0.40742  1.0000 -0.6198507672
O   O27       1.0  0.50190  0.92450  0.90742  1.0000 -0.6198507672
O   O28       1.0  0.49810  0.42450  0.59258  1.0000 -0.6198507672
O   O29       1.0  0.58980  0.06080  0.06560  1.0000 -0.6198507672
O   O30       1.0  0.41020  0.56080  0.43440  1.0000 -0.6198507672
O   O31       1.0  0.41020  0.93920  0.93440  1.0000 -0.6198507672
O   O32       1.0  0.58980  0.43920  0.56560  1.0000 -0.6198507672
O   O33       1.0  0.01180  0.41400  0.39373  1.0000 -0.5794693803
O   O34       1.0  0.98820  0.91400  0.10627  1.0000 -0.5794693803
O   O35       1.0  0.98820  0.58600  0.60627  1.0000 -0.5794693803
O   O36       1.0  0.01180  0.08600  0.89373  1.0000 -0.5794693803
O   O37       1.0  0.87390  0.13850  0.28210  1.0000 -0.5055593401
O   O38       1.0  0.12610  0.63850  0.21790  1.0000 -0.5055593401
O   O39       1.0  0.12610  0.86150  0.71790  1.0000 -0.5055593401
O   O40       1.0  0.87390  0.36150  0.78210  1.0000 -0.5055593401
O   O41       1.0  0.85670  0.21580  0.19326  1.0000 -0.5040115465
O   O42       1.0  0.14330  0.71580  0.30674  1.0000 -0.5055593401
O   O43       1.0  0.14330  0.78420  0.80674  1.0000 -0.5040115465
O   O44       1.0  0.85670  0.28420  0.69326  1.0000 -0.5040115465
O   O45       1.0  0.91320  0.60060  0.44956  1.0000 -0.6298261632
O   O46       1.0  0.08680  0.10060  0.05044  1.0000 -0.6298261632
O   O47       1.0  0.08680  0.39940  0.55044  1.0000 -0.6298261632
O   O48       1.0  0.91320  0.89940  0.94956  1.0000 -0.6298261632
O   O49       1.0  0.99840  0.58220  0.41273  1.0000 -0.6298261632
O   O50       1.0  0.00160  0.08220  0.08727  1.0000 -0.6298261632
O   O51       1.0  0.00160  0.41780  0.58727  1.0000 -0.6298261632
O   O52       1.0  0.99840  0.91780  0.91273  1.0000 -0.6298261632
O   O53       1.0  0.96470  0.75540  0.20940  1.0000 -0.51547197
O   O54       1.0  0.03530  0.25540  0.29060  1.0000 -0.51547197
O   O55       1.0  0.03530  0.24460  0.79060  1.0000 -0.51547197
O   O56       1.0  0.96470  0.74460  0.70940  1.0000 -0.51547197
O   O57       1.0  0.03010  0.84370  0.29280  1.0000 -0.5055593401
O   O58       1.0  0.96990  0.34370  0.20720  1.0000 -0.5055593401
O   O59       1.0  0.96990  0.15630  0.70720  1.0000 -0.5055593401
O   O60       1.0  0.03010  0.65630  0.79280  1.0000 -0.5055593401
O   O61       1.0  0.72660  0.02330  0.06378  1.0000 -0.6404523154
O   O62       1.0  0.27340  0.52330  0.43622  1.0000 -0.6404523154
O   O63       1.0  0.27340  0.97670  0.93622  1.0000 -0.6404523154
O   O64       1.0  0.72660  0.47670  0.56378  1.0000 -0.6404523154
O   O65       1.0  0.85000  0.02070  0.08878  1.0000 -0.6404523154
O   O66       1.0  0.15000  0.52070  0.41122  1.0000 -0.6404523154
O   O67       1.0  0.15000  0.97930  0.91122  1.0000 -0.6404523154
O   O68       1.0  0.85000  0.47930  0.58878  1.0000 -0.6404523154
O   O69       1.0  0.94650  0.45190  0.44356  1.0000 -0.7067063798
O   O70       1.0  0.05350  0.95190  0.05644  1.0000 -0.7067063798
O   O71       1.0  0.05350  0.54810  0.55644  1.0000 -0.7067063798
O   O72       1.0  0.94650  0.04810  0.94356  1.0000 -0.7067063798
O   O73       1.0  0.85760  0.12380  0.99541  1.0000 -0.431205002
O   O74       1.0  0.14240  0.62380  0.50459  1.0000 -0.431205002
O   O75       1.0  0.14240  0.87620  0.00459  1.0000 -0.431205002
O   O76       1.0  0.85760  0.37620  0.49541  1.0000 -0.431205002
O   O77       1.0  0.63690  0.13740  0.97130  1.0000 -0.4722894852
O   O78       1.0  0.36310  0.63740  0.52870  1.0000 -0.4722894852
O   O79       1.0  0.36310  0.86260  0.02870  1.0000 -0.4722894852
O   O80       1.0  0.63690  0.36260  0.47130  1.0000 -0.4722894852
O   O81       1.0  0.83020  0.88710  0.02313  1.0000 -0.4637220774
O   O82       1.0  0.16980  0.38710  0.47687  1.0000 -0.4637220774
O   O83       1.0  0.16980  0.11290  0.97687  1.0000 -0.4637220774
O   O84       1.0  0.83020  0.61290  0.52313  1.0000 -0.4637220774
O   O85       1.0  0.54910  0.04640  0.85700  1.0000 -0.5295058538
O   O86       1.0  0.45090  0.54640  0.64300  1.0000 -0.5295058538
O   O87       1.0  0.45090  0.95360  0.14300  1.0000 -0.5295058538
O   O88       1.0  0.54910  0.45360  0.35700  1.0000 -0.5295058538
