# DDEC6 charges by PACMAN v1.1 (https://github.com/mtap-research/PACMAN-charge/)
data_2009[La][nan]3[FSR]1
_chemical_formula_sum              "La2 P4 H26 C12 N4 O12"
_cell_length_a       5.763
_cell_length_b       10.213
_cell_length_c       11.649
_cell_angle_alpha    84.242
_cell_angle_beta     89.051
_cell_angle_gamma    82.876

_symmetry_space_group_name_H-M    "P 1"
_symmetry_Int_Tables_number       1

loop_
  _symmetry_equiv_pos_as_xyz
  'x, y, z'

loop_
  _atom_site_type_symbol
  _atom_site_label
  _atom_site_symmetry_multiplicity
  _atom_site_fract_x
  _atom_site_fract_y
  _atom_site_fract_z
  _atom_site_occupancy
  _atom_site_charge
La  La1       1.0  0.78229  0.85477  0.52805  1.0000 1.902378463
La  La2       1.0  0.21771  0.14523  0.47195  1.0000 1.902378463
P   P1        1.0  0.27920  0.82991  0.33873  1.0000 1.3089429967
P   P2        1.0  0.72080  0.17009  0.66127  1.0000 1.3089429967
P   P3        1.0  0.32980  0.83987  0.69054  1.0000 1.2952543728
P   P4        1.0  0.67020  0.16013  0.30946  1.0000 1.2952543728
H   H1        1.0  0.48850  0.01720  0.84030  1.0000 0.2887177698
H   H2        1.0  0.51150  0.98280  0.15970  1.0000 0.2887177698
H   H3        1.0  0.97670  0.72780  0.27240  1.0000 0.1540752284
H   H4        1.0  0.02330  0.27220  0.72760  1.0000 0.1540752284
H   H5        1.0  0.20560  0.62780  0.28190  1.0000 0.1617977925
H   H6        1.0  0.79440  0.37220  0.71810  1.0000 0.1617977925
H   H7        1.0  0.32080  0.61000  0.52100  1.0000 0.1304512979
H   H8        1.0  0.67920  0.39000  0.47900  1.0000 0.1304512979
H   H9        1.0  0.30510  0.48970  0.44890  1.0000 0.1133399874
H   H10       1.0  0.69490  0.51030  0.55110  1.0000 0.1133399874
H   H11       1.0  0.95330  0.46950  0.34670  1.0000 0.124643863
H   H12       1.0  0.04670  0.53050  0.65330  1.0000 0.124643863
H   H13       1.0  0.73290  0.57560  0.35360  1.0000 0.1304512979
H   H14       1.0  0.26710  0.42440  0.64640  1.0000 0.1304512979
H   H15       1.0  0.09480  0.96770  0.80980  1.0000 0.1617977925
H   H16       1.0  0.90520  0.03230  0.19020  1.0000 0.1617977925
H   H17       1.0  0.18550  0.83150  0.87690  1.0000 0.1617977925
H   H18       1.0  0.81450  0.16850  0.12310  1.0000 0.1617977925
H   H19       1.0  0.17440  0.01570  0.02060  1.0000 0.1133399874
H   H20       1.0  0.82560  0.98430  0.97940  1.0000 0.1133399874
H   H21       1.0  0.17180  0.13110  0.92080  1.0000 0.1304512979
H   H22       1.0  0.82820  0.86890  0.07920  1.0000 0.1304512979
H   H23       1.0  0.64860  0.80990  0.91450  1.0000 0.1395317547
H   H24       1.0  0.35140  0.19010  0.08550  1.0000 0.1395317547
H   H25       1.0  0.46730  0.81660  0.01650  1.0000 0.124643863
H   H26       1.0  0.53270  0.18340  0.98350  1.0000 0.1304512979
C   C1        1.0  0.10920  0.69390  0.32170  1.0000 -0.461596287
C   C2        1.0  0.89080  0.30610  0.67830  1.0000 -0.461596287
C   C3        1.0  0.21680  0.54980  0.49760  1.0000 -0.1262663148
C   C4        1.0  0.78320  0.45020  0.50240  1.0000 -0.1262663148
C   C5        1.0  0.86660  0.52920  0.39630  1.0000 -0.1214101307
C   C6        1.0  0.13340  0.47080  0.60370  1.0000 -0.1214101307
C   C7        1.0  0.23320  0.90450  0.82590  1.0000 -0.4254461743
C   C8        1.0  0.76680  0.09550  0.17410  1.0000 -0.4254461743
C   C9        1.0  0.27250  0.06390  0.96750  1.0000 -0.1262663148
C   C10       1.0  0.72750  0.93610  0.03250  1.0000 -0.1262663148
C   C11       1.0  0.55970  0.86900  0.96380  1.0000 -0.1032114841
C   C12       1.0  0.44030  0.13100  0.03620  1.0000 -0.1032114841
N   N1        1.0  0.02030  0.62750  0.43000  1.0000 -0.1032114841
N   N2        1.0  0.97970  0.37250  0.57000  1.0000 -0.1032114841
N   N3        1.0  0.40070  0.97100  0.89150  1.0000 0.0056075424
N   N4        1.0  0.59930  0.02900  0.10850  1.0000 0.0056075424
O   O1        1.0  0.50410  0.77750  0.40290  1.0000 -0.8380571969
O   O2        1.0  0.49590  0.22250  0.59710  1.0000 -0.8380571969
O   O3        1.0  0.11630  0.92710  0.40670  1.0000 -0.8675888943
O   O4        1.0  0.88370  0.07290  0.59330  1.0000 -0.8646578558
O   O5        1.0  0.31400  0.89030  0.21490  1.0000 -0.7834046252
O   O6        1.0  0.68600  0.10970  0.78510  1.0000 -0.7834046252
O   O7        1.0  0.11290  0.78140  0.65760  1.0000 -0.819764889
O   O8        1.0  0.88710  0.21860  0.34240  1.0000 -0.819764889
O   O9        1.0  0.55530  0.74220  0.70160  1.0000 -0.8077796467
O   O10       1.0  0.44470  0.25780  0.29840  1.0000 -0.8077796467
O   O11       1.0  0.39260  0.95820  0.60830  1.0000 -0.8675888943
O   O12       1.0  0.60740  0.04180  0.39170  1.0000 -0.8675888943
