# DDEC6 charges by PACMAN v1.1 (https://github.com/mtap-research/PACMAN-charge/)
data_2010[Ga][nan]3[FSR]1
_chemical_formula_sum              "Ga4 H10 C10 O16"
_cell_length_a       11.2437
_cell_length_b       11.2437
_cell_length_c       7.23351
_cell_angle_alpha    73.7329
_cell_angle_beta     106.267
_cell_angle_gamma    51.9435

_symmetry_space_group_name_H-M    "P 1"
_symmetry_Int_Tables_number       1

loop_
  _symmetry_equiv_pos_as_xyz
  'x, y, z'

loop_
  _atom_site_type_symbol
  _atom_site_label
  _atom_site_symmetry_multiplicity
  _atom_site_fract_x
  _atom_site_fract_y
  _atom_site_fract_z
  _atom_site_occupancy
  _atom_site_charge
Ga  Ga1       1.0  0.29473  0.29473  0.00000  1.0000 1.3879781483
Ga  Ga2       1.0  0.70527  0.70527  0.00000  1.0000 1.3879781483
Ga  Ga3       1.0  0.00000  0.50000  0.50000  1.0000 1.4076773642
Ga  Ga4       1.0  0.50000  0.00000  0.50000  1.0000 1.4076773642
H   H1        1.0  0.33950  0.30902  0.68374  1.0000 0.3983300557
H   H2        1.0  0.30902  0.33950  0.31626  1.0000 0.3983300557
H   H3        1.0  0.66050  0.69098  0.31626  1.0000 0.3983300557
H   H4        1.0  0.69098  0.66050  0.68374  1.0000 0.3983300557
H   H5        1.0  0.50500  0.97300  0.16900  1.0000 0.3983300557
H   H6        1.0  0.97300  0.50500  0.83100  1.0000 0.3983300557
H   H7        1.0  0.49500  0.02700  0.83100  1.0000 0.3983300557
H   H8        1.0  0.02700  0.49500  0.16900  1.0000 0.3983300557
H   H9        1.0  0.70200  0.29800  0.25100  1.0000 0.1398713557
H   H10       1.0  0.29800  0.70200  0.74900  1.0000 0.1398713557
C   C1        1.0  0.68156  0.06756  0.35630  1.0000 0.6038566945
C   C2        1.0  0.06756  0.68156  0.64370  1.0000 0.6038566945
C   C3        1.0  0.31844  0.93244  0.64370  1.0000 0.6038566945
C   C4        1.0  0.93244  0.31844  0.35630  1.0000 0.6038566945
C   C5        1.0  0.84283  0.03383  0.41720  1.0000 -0.029105931
C   C6        1.0  0.03383  0.84283  0.58280  1.0000 -0.029105931
C   C7        1.0  0.15717  0.96617  0.58280  1.0000 -0.029105931
C   C8        1.0  0.96617  0.15717  0.41720  1.0000 -0.029105931
C   C9        1.0  0.82000  0.18000  0.34610  1.0000 -0.1136189619
C   C10       1.0  0.18000  0.82000  0.65390  1.0000 -0.1136189619
O   O1        1.0  0.27417  0.30595  0.71864  1.0000 -0.8458579214
O   O2        1.0  0.30595  0.27417  0.28136  1.0000 -0.8458579214
O   O3        1.0  0.72583  0.69405  0.28136  1.0000 -0.8458579214
O   O4        1.0  0.69405  0.72583  0.71864  1.0000 -0.8458579214
O   O5        1.0  0.42079  0.04307  0.18965  1.0000 -0.8458579214
O   O6        1.0  0.04307  0.42079  0.81035  1.0000 -0.8458579214
O   O7        1.0  0.57921  0.95693  0.81035  1.0000 -0.8458579214
O   O8        1.0  0.95693  0.57921  0.18965  1.0000 -0.8458579214
O   O9        1.0  0.54216  0.19528  0.13646  1.0000 -0.5477831842
O   O10       1.0  0.19528  0.54216  0.86354  1.0000 -0.5477831842
O   O11       1.0  0.45784  0.80472  0.86354  1.0000 -0.5477831842
O   O12       1.0  0.80472  0.45784  0.13646  1.0000 -0.5477831842
O   O13       1.0  0.69729  0.97227  0.53033  1.0000 -0.542865801
O   O14       1.0  0.97227  0.69729  0.46967  1.0000 -0.542865801
O   O15       1.0  0.30271  0.02773  0.46967  1.0000 -0.542865801
O   O16       1.0  0.02773  0.30271  0.53033  1.0000 -0.542865801
