# DDEC6 charges by PACMAN v1.1 (https://github.com/mtap-research/PACMAN-charge/)
data_2010[Zn][nan]3[FSR]6
_chemical_formula_sum              "Zn8 H108 C136 N24 O32 F24"
_cell_length_a       11.021
_cell_length_b       20.571
_cell_length_c       18.561
_cell_angle_alpha    90
_cell_angle_beta     105.822
_cell_angle_gamma    90

_symmetry_space_group_name_H-M    "P 1"
_symmetry_Int_Tables_number       1

loop_
  _symmetry_equiv_pos_as_xyz
  'x, y, z'

loop_
  _atom_site_type_symbol
  _atom_site_label
  _atom_site_symmetry_multiplicity
  _atom_site_fract_x
  _atom_site_fract_y
  _atom_site_fract_z
  _atom_site_occupancy
  _atom_site_charge
Zn  Zn1       1.0  0.95460  0.89601  0.57798  1.0000 0.8380318396
Zn  Zn2       1.0  0.04540  0.39601  0.92202  1.0000 0.8380318396
Zn  Zn3       1.0  0.04540  0.10399  0.42202  1.0000 0.8380318396
Zn  Zn4       1.0  0.95460  0.60399  0.07798  1.0000 0.8380318396
Zn  Zn5       1.0  0.04949  0.35227  0.16619  1.0000 0.7641429715
Zn  Zn6       1.0  0.95051  0.85227  0.33381  1.0000 0.7641429715
Zn  Zn7       1.0  0.95051  0.64773  0.83381  1.0000 0.7641429715
Zn  Zn8       1.0  0.04949  0.14773  0.66619  1.0000 0.7641429715
H   H1        1.0  0.92880  0.77140  0.47190  1.0000 0.1107063389
H   H2        1.0  0.07120  0.27140  0.02810  1.0000 0.1107063389
H   H3        1.0  0.07120  0.22860  0.52810  1.0000 0.1107063389
H   H4        1.0  0.92880  0.72860  0.97190  1.0000 0.1107063389
H   H5        1.0  0.08620  0.78640  0.68540  1.0000 0.1395980828
H   H6        1.0  0.91380  0.28640  0.81460  1.0000 0.1395980828
H   H7        1.0  0.91380  0.21360  0.31460  1.0000 0.1395980828
H   H8        1.0  0.08620  0.71360  0.18540  1.0000 0.1395980828
H   H9        1.0  0.09240  0.67140  0.65250  1.0000 0.1199305816
H   H10       1.0  0.90760  0.17140  0.84750  1.0000 0.1199305816
H   H11       1.0  0.90760  0.32860  0.34750  1.0000 0.1199305816
H   H12       1.0  0.09240  0.82860  0.15250  1.0000 0.1199305816
H   H13       1.0  0.00750  0.60430  0.53640  1.0000 0.1107063389
H   H14       1.0  0.99250  0.10430  0.96360  1.0000 0.1107063389
H   H15       1.0  0.99250  0.39570  0.46360  1.0000 0.1107063389
H   H16       1.0  0.00750  0.89570  0.03640  1.0000 0.1107063389
H   H17       1.0  0.90060  0.63720  0.47370  1.0000 0.1107063389
H   H18       1.0  0.09940  0.13720  0.02630  1.0000 0.1107063389
H   H19       1.0  0.09940  0.36280  0.52630  1.0000 0.1107063389
H   H20       1.0  0.90060  0.86280  0.97370  1.0000 0.1107063389
H   H21       1.0  0.04750  0.67030  0.41090  1.0000 0.100858735
H   H22       1.0  0.95250  0.17030  0.08910  1.0000 0.100858735
H   H23       1.0  0.95250  0.32970  0.58910  1.0000 0.100858735
H   H24       1.0  0.04750  0.82970  0.91090  1.0000 0.100858735
H   H25       1.0  0.15840  0.64190  0.47550  1.0000 0.1107063389
H   H26       1.0  0.84160  0.14190  0.02450  1.0000 0.1107063389
H   H27       1.0  0.84160  0.35810  0.52450  1.0000 0.1107063389
H   H28       1.0  0.15840  0.85810  0.97550  1.0000 0.1107063389
H   H29       1.0  0.96200  0.56230  0.38810  1.0000 0.100858735
H   H30       1.0  0.03800  0.06230  0.11190  1.0000 0.100858735
H   H31       1.0  0.03800  0.43770  0.61190  1.0000 0.100858735
H   H32       1.0  0.96200  0.93770  0.88810  1.0000 0.100858735
H   H33       1.0  0.08200  0.53610  0.44750  1.0000 0.100858735
H   H34       1.0  0.91800  0.03610  0.05250  1.0000 0.100858735
H   H35       1.0  0.91800  0.46390  0.55250  1.0000 0.100858735
H   H36       1.0  0.08200  0.96390  0.94750  1.0000 0.100858735
H   H37       1.0  0.07430  0.59090  0.31000  1.0000 0.1288873988
H   H38       1.0  0.92570  0.09090  0.19000  1.0000 0.1288873988
H   H39       1.0  0.92570  0.40910  0.69000  1.0000 0.1288873988
H   H40       1.0  0.07430  0.90910  0.81000  1.0000 0.1288873988
H   H41       1.0  0.20220  0.58030  0.37170  1.0000 0.1199305816
H   H42       1.0  0.79780  0.08030  0.12830  1.0000 0.1199305816
H   H43       1.0  0.79780  0.41970  0.62830  1.0000 0.1199305816
H   H44       1.0  0.20220  0.91970  0.87170  1.0000 0.1199305816
H   H45       1.0  0.01010  0.49390  0.22090  1.0000 0.1199305816
H   H46       1.0  0.98990  0.99390  0.27910  1.0000 0.1199305816
H   H47       1.0  0.98990  0.50610  0.77910  1.0000 0.1199305816
H   H48       1.0  0.01010  0.00610  0.72090  1.0000 0.1199305816
H   H49       1.0  0.21220  0.35320  0.33710  1.0000 0.1288873988
H   H50       1.0  0.78780  0.85320  0.16290  1.0000 0.1288873988
H   H51       1.0  0.78780  0.64680  0.66290  1.0000 0.1288873988
H   H52       1.0  0.21220  0.14680  0.83710  1.0000 0.1288873988
H   H53       1.0  0.23500  0.44840  0.41930  1.0000 0.1199305816
H   H54       1.0  0.76500  0.94840  0.08070  1.0000 0.1199305816
H   H55       1.0  0.76500  0.55160  0.58070  1.0000 0.1199305816
H   H56       1.0  0.23500  0.05160  0.91930  1.0000 0.1199305816
H   H57       1.0  0.84390  0.42260  0.04600  1.0000 0.1288873988
H   H58       1.0  0.15610  0.92260  0.45400  1.0000 0.1288873988
H   H59       1.0  0.15610  0.57740  0.95400  1.0000 0.1288873988
H   H60       1.0  0.84390  0.07740  0.54600  1.0000 0.1288873988
H   H61       1.0  0.78590  0.28210  0.17570  1.0000 0.1288873988
H   H62       1.0  0.21410  0.78210  0.32430  1.0000 0.1288873988
H   H63       1.0  0.21410  0.71790  0.82430  1.0000 0.1288873988
H   H64       1.0  0.78590  0.21790  0.67570  1.0000 0.1288873988
H   H65       1.0  0.58110  0.31620  0.09790  1.0000 0.1288873988
H   H66       1.0  0.41890  0.81620  0.40210  1.0000 0.1288873988
H   H67       1.0  0.41890  0.68380  0.90210  1.0000 0.1288873988
H   H68       1.0  0.58110  0.18380  0.59790  1.0000 0.1288873988
H   H69       1.0  0.61300  0.42860  0.95300  1.0000 0.1107063389
H   H70       1.0  0.38700  0.92860  0.54700  1.0000 0.1107063389
H   H71       1.0  0.38700  0.57140  0.04700  1.0000 0.1107063389
H   H72       1.0  0.61300  0.07140  0.45300  1.0000 0.1107063389
H   H73       1.0  0.50690  0.39270  0.97930  1.0000 0.1199305816
H   H74       1.0  0.49310  0.89270  0.52070  1.0000 0.1199305816
H   H75       1.0  0.49310  0.60730  0.02070  1.0000 0.1199305816
H   H76       1.0  0.50690  0.10730  0.47930  1.0000 0.1199305816
H   H77       1.0  0.52080  0.47210  0.07290  1.0000 0.100858735
H   H78       1.0  0.47920  0.97210  0.42710  1.0000 0.100858735
H   H79       1.0  0.47920  0.52790  0.92710  1.0000 0.100858735
H   H80       1.0  0.52080  0.02790  0.57290  1.0000 0.100858735
H   H81       1.0  0.62620  0.50820  0.04590  1.0000 0.1107063389
H   H82       1.0  0.37380  0.00820  0.45410  1.0000 0.1107063389
H   H83       1.0  0.37380  0.49180  0.95410  1.0000 0.1107063389
H   H84       1.0  0.62620  0.99180  0.54590  1.0000 0.1199305816
H   H85       1.0  0.63610  0.85620  0.36120  1.0000 0.1199305816
H   H86       1.0  0.36390  0.35620  0.13880  1.0000 0.1199305816
H   H87       1.0  0.36390  0.14380  0.63880  1.0000 0.1199305816
H   H88       1.0  0.63610  0.64380  0.86120  1.0000 0.1199305816
H   H89       1.0  0.46750  0.87840  0.26060  1.0000 0.1107063389
H   H90       1.0  0.53250  0.37840  0.23940  1.0000 0.1107063389
H   H91       1.0  0.53250  0.12160  0.73940  1.0000 0.1107063389
H   H92       1.0  0.46750  0.62160  0.76060  1.0000 0.1107063389
H   H93       1.0  0.59200  0.05900  0.25330  1.0000 0.1199305816
H   H94       1.0  0.40800  0.55900  0.24670  1.0000 0.1199305816
H   H95       1.0  0.40800  0.94100  0.74670  1.0000 0.1199305816
H   H96       1.0  0.59200  0.44100  0.75330  1.0000 0.1199305816
H   H97       1.0  0.36900  0.10370  0.09460  1.0000 0.1199305816
H   H98       1.0  0.63100  0.60370  0.40540  1.0000 0.1199305816
H   H99       1.0  0.63100  0.89630  0.90540  1.0000 0.1199305816
H   H100      1.0  0.36900  0.39630  0.59460  1.0000 0.1199305816
H   H101      1.0  0.27540  0.19940  0.11330  1.0000 0.1107063389
H   H102      1.0  0.72460  0.69940  0.38670  1.0000 0.1107063389
H   H103      1.0  0.72460  0.80060  0.88670  1.0000 0.1107063389
H   H104      1.0  0.27540  0.30060  0.61330  1.0000 0.1107063389
H   H105      1.0  0.31530  0.03520  0.28560  1.0000 0.1199305816
H   H106      1.0  0.68470  0.53520  0.21440  1.0000 0.1199305816
H   H107      1.0  0.68470  0.96480  0.71440  1.0000 0.1199305816
H   H108      1.0  0.31530  0.46480  0.78560  1.0000 0.1199305816
C   C1        1.0  0.97050  0.76140  0.52130  1.0000 0.1288873988
C   C2        1.0  0.02950  0.26140  0.97870  1.0000 0.1288873988
C   C3        1.0  0.02950  0.23860  0.47870  1.0000 0.1288873988
C   C4        1.0  0.97050  0.73860  0.02130  1.0000 0.1288873988
C   C5        1.0  0.05610  0.76850  0.63780  1.0000 -0.0289568577
C   C6        1.0  0.94390  0.26850  0.86220  1.0000 -0.0289568577
C   C7        1.0  0.94390  0.23150  0.36220  1.0000 -0.0289568577
C   C8        1.0  0.05610  0.73150  0.13780  1.0000 -0.0289568577
C   C9        1.0  0.05940  0.70520  0.61980  1.0000 -0.0949384979
C   C10       1.0  0.94060  0.20520  0.88020  1.0000 -0.0949384979
C   C11       1.0  0.94060  0.29480  0.38020  1.0000 -0.0949384979
C   C12       1.0  0.05940  0.79480  0.11980  1.0000 -0.0949384979
C   C13       1.0  0.98840  0.64070  0.50210  1.0000 -0.1231972025
C   C14       1.0  0.01160  0.14070  0.99790  1.0000 -0.1231972025
C   C15       1.0  0.01160  0.35930  0.49790  1.0000 -0.1231972025
C   C16       1.0  0.98840  0.85930  0.00210  1.0000 -0.1231972025
C   C17       1.0  0.07040  0.63620  0.44830  1.0000 -0.1777963862
C   C18       1.0  0.92960  0.13620  0.05170  1.0000 -0.1777963862
C   C19       1.0  0.92960  0.36380  0.55170  1.0000 -0.1777963862
C   C20       1.0  0.07040  0.86380  0.94830  1.0000 -0.1777963862
C   C21       1.0  0.05140  0.56950  0.41010  1.0000 -0.2113472856
C   C22       1.0  0.94860  0.06950  0.08990  1.0000 -0.2113472856
C   C23       1.0  0.94860  0.43050  0.58990  1.0000 -0.2113472856
C   C24       1.0  0.05140  0.93050  0.91010  1.0000 -0.2113472856
C   C25       1.0  0.11670  0.56420  0.35260  1.0000 -0.1114527453
C   C26       1.0  0.88330  0.06420  0.14740  1.0000 -0.1114527453
C   C27       1.0  0.88330  0.43580  0.64740  1.0000 -0.1114527453
C   C28       1.0  0.11670  0.93580  0.85260  1.0000 -0.1114527453
C   C29       1.0  0.06350  0.47050  0.25970  1.0000 0.1107063389
C   C30       1.0  0.93650  0.97050  0.24030  1.0000 0.1107063389
C   C31       1.0  0.93650  0.52950  0.74030  1.0000 0.1107063389
C   C32       1.0  0.06350  0.02950  0.75970  1.0000 0.1107063389
C   C33       1.0  0.17400  0.39350  0.32410  1.0000 -0.0521034064
C   C34       1.0  0.82600  0.89350  0.17590  1.0000 -0.0521034064
C   C35       1.0  0.82600  0.60650  0.67590  1.0000 -0.0521034064
C   C36       1.0  0.17400  0.10650  0.82410  1.0000 -0.0521034064
C   C37       1.0  0.18810  0.44610  0.36940  1.0000 -0.1114527453
C   C38       1.0  0.81190  0.94610  0.13060  1.0000 -0.1114527453
C   C39       1.0  0.81190  0.55390  0.63060  1.0000 -0.1114527453
C   C40       1.0  0.18810  0.05390  0.86940  1.0000 -0.1114527453
C   C41       1.0  0.80450  0.39170  0.06840  1.0000 0.100858735
C   C42       1.0  0.19550  0.89170  0.43160  1.0000 0.100858735
C   C43       1.0  0.19550  0.60830  0.93160  1.0000 0.100858735
C   C44       1.0  0.80450  0.10830  0.56840  1.0000 0.100858735
C   C45       1.0  0.77180  0.31460  0.13960  1.0000 -0.0521034064
C   C46       1.0  0.22820  0.81460  0.36040  1.0000 -0.0521034064
C   C47       1.0  0.22820  0.68540  0.86040  1.0000 -0.0521034064
C   C48       1.0  0.77180  0.18540  0.63960  1.0000 -0.0521034064
C   C49       1.0  0.65890  0.33320  0.09690  1.0000 -0.1114527453
C   C50       1.0  0.34110  0.83320  0.40310  1.0000 -0.1114527453
C   C51       1.0  0.34110  0.66680  0.90310  1.0000 -0.1114527453
C   C52       1.0  0.65890  0.16680  0.59690  1.0000 -0.1114527453
C   C53       1.0  0.58250  0.41890  0.99620  1.0000 -0.1017972529
C   C54       1.0  0.41750  0.91890  0.50380  1.0000 -0.1017972529
C   C55       1.0  0.41750  0.58110  0.00380  1.0000 -0.1017972529
C   C56       1.0  0.58250  0.08110  0.49620  1.0000 -0.1017972529
C   C57       1.0  0.55110  0.48160  0.02960  1.0000 -0.1882142114
C   C58       1.0  0.44890  0.98160  0.47040  1.0000 -0.1882142114
C   C59       1.0  0.44890  0.51840  0.97040  1.0000 -0.1882142114
C   C60       1.0  0.55110  0.01840  0.52960  1.0000 -0.1882142114
C   C61       1.0  0.82610  0.92570  0.43330  1.0000 0.5820243769
C   C62       1.0  0.17390  0.42570  0.06670  1.0000 0.5820243769
C   C63       1.0  0.17390  0.07430  0.56670  1.0000 0.5820243769
C   C64       1.0  0.82610  0.57430  0.93330  1.0000 0.5820243769
C   C65       1.0  0.71960  0.94450  0.36790  1.0000 -0.0521034064
C   C66       1.0  0.28040  0.44450  0.13210  1.0000 -0.0521034064
C   C67       1.0  0.28040  0.05550  0.63210  1.0000 -0.0521034064
C   C68       1.0  0.71960  0.55550  0.86790  1.0000 -0.0521034064
C   C69       1.0  0.62820  0.89720  0.33940  1.0000 -0.1231972025
C   C70       1.0  0.37180  0.39720  0.16060  1.0000 -0.1231972025
C   C71       1.0  0.37180  0.10280  0.66060  1.0000 -0.1231972025
C   C72       1.0  0.62820  0.60280  0.83940  1.0000 -0.1231972025
C   C73       1.0  0.52660  0.91070  0.27940  1.0000 -0.154504273
C   C74       1.0  0.47340  0.41070  0.22060  1.0000 -0.1564880524
C   C75       1.0  0.47340  0.08930  0.72060  1.0000 -0.1564880524
C   C76       1.0  0.52660  0.58930  0.77940  1.0000 -0.1564880524
C   C77       1.0  0.51080  0.97140  0.24680  1.0000 0.0717220121
C   C78       1.0  0.48920  0.47140  0.25320  1.0000 0.0717220121
C   C79       1.0  0.48920  0.02860  0.75320  1.0000 0.0717220121
C   C80       1.0  0.51080  0.52860  0.74680  1.0000 0.0717220121
C   C81       1.0  0.60160  0.01780  0.27460  1.0000 -0.1564880524
C   C82       1.0  0.39840  0.51780  0.22540  1.0000 -0.1564880524
C   C83       1.0  0.39840  0.98220  0.72540  1.0000 -0.1564880524
C   C84       1.0  0.60160  0.48220  0.77460  1.0000 -0.1564880524
C   C85       1.0  0.70760  0.00480  0.33390  1.0000 -0.0360026806
C   C86       1.0  0.29240  0.50480  0.16610  1.0000 -0.0360026806
C   C87       1.0  0.29240  0.99520  0.66610  1.0000 -0.0360026806
C   C88       1.0  0.70760  0.49520  0.83390  1.0000 -0.0360026806
C   C89       1.0  0.80920  0.05500  0.35400  1.0000 0.5369182639
C   C90       1.0  0.19080  0.55500  0.14600  1.0000 0.5369182639
C   C91       1.0  0.19080  0.94500  0.64600  1.0000 0.5369182639
C   C92       1.0  0.80920  0.44500  0.85400  1.0000 0.5369182639
C   C93       1.0  0.40130  0.98970  0.17760  1.0000 -0.2767998203
C   C94       1.0  0.59870  0.48970  0.32240  1.0000 -0.2767998203
C   C95       1.0  0.59870  0.01030  0.82240  1.0000 -0.2767998203
C   C96       1.0  0.40130  0.51030  0.67760  1.0000 -0.2767998203
C   C97       1.0  0.28990  0.94160  0.16420  1.0000 0.6486203484
C   C98       1.0  0.71010  0.44160  0.33580  1.0000 0.6486203484
C   C99       1.0  0.71010  0.05840  0.83580  1.0000 0.6486203484
C   C100      1.0  0.28990  0.55840  0.66420  1.0000 0.6486203484
C   C101      1.0  0.45740  0.98700  0.10910  1.0000 0.6597756855
C   C102      1.0  0.54260  0.48700  0.39090  1.0000 0.6597756855
C   C103      1.0  0.54260  0.01300  0.89090  1.0000 0.6597756855
C   C104      1.0  0.45740  0.51300  0.60910  1.0000 0.6597756855
C   C105      1.0  0.34850  0.05760  0.18750  1.0000 0.0817370601
C   C106      1.0  0.65150  0.55760  0.31250  1.0000 0.0817370601
C   C107      1.0  0.65150  0.94240  0.81250  1.0000 0.0817370601
C   C108      1.0  0.34850  0.44240  0.68750  1.0000 0.0817370601
C   C109      1.0  0.33760  0.10840  0.13600  1.0000 -0.1564880524
C   C110      1.0  0.66240  0.60840  0.36400  1.0000 -0.1564880524
C   C111      1.0  0.66240  0.89160  0.86400  1.0000 -0.1564880524
C   C112      1.0  0.33760  0.39160  0.63600  1.0000 -0.1564880524
C   C113      1.0  0.28020  0.16540  0.14710  1.0000 -0.1114527453
C   C114      1.0  0.71980  0.66540  0.35290  1.0000 -0.1114527453
C   C115      1.0  0.71980  0.83460  0.85290  1.0000 -0.1114527453
C   C116      1.0  0.28020  0.33460  0.64710  1.0000 -0.1114527453
C   C117      1.0  0.22930  0.17400  0.20700  1.0000 -0.0289568577
C   C118      1.0  0.77070  0.67400  0.29300  1.0000 -0.0289568577
C   C119      1.0  0.77070  0.82600  0.79300  1.0000 -0.0289568577
C   C120      1.0  0.22930  0.32600  0.70700  1.0000 -0.0289568577
C   C121      1.0  0.15090  0.23480  0.20860  1.0000 0.5169215017
C   C122      1.0  0.84910  0.73480  0.29140  1.0000 0.5169215017
C   C123      1.0  0.84910  0.76520  0.79140  1.0000 0.5169215017
C   C124      1.0  0.15090  0.26520  0.70860  1.0000 0.5169215017
C   C125      1.0  0.24240  0.12460  0.26000  1.0000 -0.0040625554
C   C126      1.0  0.75760  0.62460  0.24000  1.0000 -0.0040625554
C   C127      1.0  0.75760  0.87540  0.74000  1.0000 -0.0040625554
C   C128      1.0  0.24240  0.37540  0.76000  1.0000 -0.0040625554
C   C129      1.0  0.19950  0.13010  0.33000  1.0000 0.5578323417
C   C130      1.0  0.80050  0.63010  0.17000  1.0000 0.5578323417
C   C131      1.0  0.80050  0.86990  0.67000  1.0000 0.5578323417
C   C132      1.0  0.19950  0.36990  0.83000  1.0000 0.5578323417
C   C133      1.0  0.30380  0.06770  0.24950  1.0000 -0.174457293
C   C134      1.0  0.69620  0.56770  0.25050  1.0000 -0.174457293
C   C135      1.0  0.69620  0.93230  0.75050  1.0000 -0.174457293
C   C136      1.0  0.30380  0.43230  0.74950  1.0000 -0.174457293
N   N1        1.0  0.99840  0.80300  0.57100  1.0000 -0.2767998203
N   N2        1.0  0.00160  0.30300  0.92900  1.0000 -0.2767998203
N   N3        1.0  0.00160  0.19700  0.42900  1.0000 -0.2767998203
N   N4        1.0  0.99840  0.69700  0.07100  1.0000 -0.2767998203
N   N5        1.0  0.00530  0.69980  0.54450  1.0000 0.0301623457
N   N6        1.0  0.99470  0.19980  0.95550  1.0000 0.0301623457
N   N7        1.0  0.99470  0.30020  0.45550  1.0000 0.0301623457
N   N8        1.0  0.00530  0.80020  0.04450  1.0000 0.0301623457
N   N9        1.0  0.12010  0.49490  0.32770  1.0000 0.0472980701
N   N10       1.0  0.87990  0.99490  0.17230  1.0000 0.0472980701
N   N11       1.0  0.87990  0.50510  0.67230  1.0000 0.0472980701
N   N12       1.0  0.12010  0.00510  0.82770  1.0000 0.0472980701
N   N13       1.0  0.09380  0.40940  0.25530  1.0000 -0.2977532037
N   N14       1.0  0.90620  0.90940  0.24470  1.0000 -0.2977532037
N   N15       1.0  0.90620  0.59060  0.74470  1.0000 -0.2977532037
N   N16       1.0  0.09380  0.09060  0.75530  1.0000 -0.2977532037
N   N17       1.0  0.86350  0.35090  0.12170  1.0000 -0.2977532037
N   N18       1.0  0.13650  0.85090  0.37830  1.0000 -0.2977532037
N   N19       1.0  0.13650  0.64910  0.87830  1.0000 -0.2977532037
N   N20       1.0  0.86350  0.14910  0.62170  1.0000 -0.2977532037
N   N21       1.0  0.67930  0.38190  0.05150  1.0000 0.0472980701
N   N22       1.0  0.32070  0.88190  0.44850  1.0000 0.0472980701
N   N23       1.0  0.32070  0.61810  0.94850  1.0000 0.0472980701
N   N24       1.0  0.67930  0.11810  0.55150  1.0000 0.0472980701
O   O1        1.0  0.91950  0.89568  0.42380  1.0000 -0.5490163155
O   O2        1.0  0.08050  0.39568  0.07620  1.0000 -0.5490163155
O   O3        1.0  0.08050  0.10432  0.57620  1.0000 -0.5490163155
O   O4        1.0  0.91950  0.60432  0.92380  1.0000 -0.5490163155
O   O5        1.0  0.81560  0.93693  0.49780  1.0000 -0.5011959113
O   O6        1.0  0.18440  0.43693  0.00220  1.0000 -0.5011959113
O   O7        1.0  0.18440  0.06307  0.50220  1.0000 -0.5011959113
O   O8        1.0  0.81560  0.56307  0.99780  1.0000 -0.5011959113
O   O9        1.0  0.90380  0.04262  0.40690  1.0000 -0.5215904153
O   O10       1.0  0.09620  0.54262  0.09310  1.0000 -0.5215904153
O   O11       1.0  0.09620  0.95738  0.59310  1.0000 -0.5215904153
O   O12       1.0  0.90380  0.45738  0.90690  1.0000 -0.5215904153
O   O13       1.0  0.80270  0.10240  0.31210  1.0000 -0.5383340456
O   O14       1.0  0.19730  0.60240  0.18790  1.0000 -0.5383340456
O   O15       1.0  0.19730  0.89760  0.68790  1.0000 -0.5383340456
O   O16       1.0  0.80270  0.39760  0.81210  1.0000 -0.5383340456
O   O17       1.0  0.16130  0.27930  0.16700  1.0000 -0.5011959113
O   O18       1.0  0.83870  0.77930  0.33300  1.0000 -0.5011959113
O   O19       1.0  0.83870  0.72070  0.83300  1.0000 -0.5011959113
O   O20       1.0  0.16130  0.22070  0.66700  1.0000 -0.5011959113
O   O21       1.0  0.06850  0.23510  0.23890  1.0000 -0.4764662273
O   O22       1.0  0.93150  0.73510  0.26110  1.0000 -0.4764662273
O   O23       1.0  0.93150  0.76490  0.76110  1.0000 -0.4764662273
O   O24       1.0  0.06850  0.26490  0.73890  1.0000 -0.4764662273
O   O25       1.0  0.25680  0.16430  0.38020  1.0000 -0.5215904153
O   O26       1.0  0.74320  0.66430  0.11980  1.0000 -0.5215904153
O   O27       1.0  0.74320  0.83570  0.61980  1.0000 -0.5215904153
O   O28       1.0  0.25680  0.33570  0.88020  1.0000 -0.5215904153
O   O29       1.0  0.10680  0.09430  0.33190  1.0000 -0.5558543987
O   O30       1.0  0.89320  0.59430  0.16810  1.0000 -0.5558543987
O   O31       1.0  0.89320  0.90570  0.66810  1.0000 -0.5558543987
O   O32       1.0  0.10680  0.40570  0.83190  1.0000 -0.5558543987
F   F1        1.0  0.25270  0.93114  0.22490  1.0000 -0.2001265026
F   F2        1.0  0.74730  0.43114  0.27510  1.0000 -0.2001265026
F   F3        1.0  0.74730  0.06886  0.77510  1.0000 -0.2001265026
F   F4        1.0  0.25270  0.56886  0.72490  1.0000 -0.2001265026
F   F5        1.0  0.18990  0.96480  0.11160  1.0000 -0.2113472856
F   F6        1.0  0.81010  0.46480  0.38840  1.0000 -0.2113472856
F   F7        1.0  0.81010  0.03520  0.88840  1.0000 -0.2113472856
F   F8        1.0  0.18990  0.53520  0.61160  1.0000 -0.2113472856
F   F9        1.0  0.31580  0.88339  0.13890  1.0000 -0.2001265026
F   F10       1.0  0.68420  0.38339  0.36110  1.0000 -0.2001265026
F   F11       1.0  0.68420  0.11661  0.86110  1.0000 -0.2001265026
F   F12       1.0  0.31580  0.61661  0.63890  1.0000 -0.2001265026
F   F13       1.0  0.51100  0.92880  0.10500  1.0000 -0.1882142114
F   F14       1.0  0.48900  0.42880  0.39500  1.0000 -0.1882142114
F   F15       1.0  0.48900  0.07120  0.89500  1.0000 -0.1882142114
F   F16       1.0  0.51100  0.57120  0.60500  1.0000 -0.1882142114
F   F17       1.0  0.36760  0.99320  0.04410  1.0000 -0.2113472856
F   F18       1.0  0.63240  0.49320  0.45590  1.0000 -0.2113472856
F   F19       1.0  0.63240  0.00680  0.95590  1.0000 -0.2113472856
F   F20       1.0  0.36760  0.50680  0.54410  1.0000 -0.2113472856
F   F21       1.0  0.54190  0.03130  0.11130  1.0000 -0.1882142114
F   F22       1.0  0.45810  0.53130  0.38870  1.0000 -0.1882142114
F   F23       1.0  0.45810  0.96870  0.88870  1.0000 -0.1882142114
F   F24       1.0  0.54190  0.46870  0.61130  1.0000 -0.1882142114
