# DDEC6 charges by PACMAN v1.1 (https://github.com/mtap-research/PACMAN-charge/)
data_2010[Cd][sqc]3[FSR]1
_chemical_formula_sum              "Cd4 H52 C72 N12 O16"
_cell_length_a       12.148
_cell_length_b       13.123
_cell_length_c       13.98
_cell_angle_alpha    75.633
_cell_angle_beta     64.45
_cell_angle_gamma    67.616

_symmetry_space_group_name_H-M    "P 1"
_symmetry_Int_Tables_number       1

loop_
  _symmetry_equiv_pos_as_xyz
  'x, y, z'

loop_
  _atom_site_type_symbol
  _atom_site_label
  _atom_site_symmetry_multiplicity
  _atom_site_fract_x
  _atom_site_fract_y
  _atom_site_fract_z
  _atom_site_occupancy
  _atom_site_charge
Cd  Cd1       1.0  0.84938  0.44615  0.55087  1.0000 0.9520577997
Cd  Cd2       1.0  0.15062  0.55385  0.44913  1.0000 0.9520577997
Cd  Cd3       1.0  0.75022  0.50814  0.27713  1.0000 0.8743918151
Cd  Cd4       1.0  0.24978  0.49186  0.72287  1.0000 0.8743918151
H   H1        1.0  0.55080  0.19230  0.68410  1.0000 0.1292870988
H   H2        1.0  0.44920  0.80770  0.31590  1.0000 0.1292870988
H   H3        1.0  0.61780  0.34140  0.55360  1.0000 0.1373213589
H   H4        1.0  0.38220  0.65860  0.44640  1.0000 0.1373213589
H   H5        1.0  0.90360  0.08490  0.81070  1.0000 0.1292870988
H   H6        1.0  0.09640  0.91510  0.18930  1.0000 0.1292870988
H   H7        1.0  0.08180  0.07890  0.83160  1.0000 0.1192442111
H   H8        1.0  0.91820  0.92110  0.16840  1.0000 0.1192442111
H   H9        1.0  0.16770  0.22050  0.75960  1.0000 0.1373213589
H   H10       1.0  0.83230  0.77950  0.24040  1.0000 0.1373213589
H   H11       1.0  0.07320  0.36600  0.65600  1.0000 0.1192442111
H   H12       1.0  0.92680  0.63400  0.34400  1.0000 0.1192442111
H   H13       1.0  0.58720  0.10850  0.86200  1.0000 0.1082923323
H   H14       1.0  0.41280  0.89150  0.13800  1.0000 0.1082923323
H   H15       1.0  0.70880  0.11300  0.87210  1.0000 0.1004710605
H   H16       1.0  0.29120  0.88700  0.12790  1.0000 0.1004710605
H   H17       1.0  0.71720  0.95920  0.75630  1.0000 0.1192442111
H   H18       1.0  0.28280  0.04080  0.24370  1.0000 0.1192442111
H   H19       1.0  0.83840  0.96320  0.76800  1.0000 0.1082923323
H   H20       1.0  0.16160  0.03680  0.23200  1.0000 0.1082923323
H   H21       1.0  0.62620  0.92340  0.94660  1.0000 0.1004710605
H   H22       1.0  0.37380  0.07660  0.05340  1.0000 0.1004710605
H   H23       1.0  0.75830  0.91200  0.94890  1.0000 0.1004710605
H   H24       1.0  0.24170  0.08800  0.05110  1.0000 0.1004710605
H   H25       1.0  0.73680  0.77010  0.83860  1.0000 0.1192442111
H   H26       1.0  0.26320  0.22990  0.16140  1.0000 0.1192442111
H   H27       1.0  0.86030  0.75440  0.85820  1.0000 0.1082923323
H   H28       1.0  0.13970  0.24560  0.14180  1.0000 0.1082923323
H   H29       1.0  0.54700  0.72100  0.98660  1.0000 0.1292870988
H   H30       1.0  0.45300  0.27900  0.01340  1.0000 0.1292870988
H   H31       1.0  0.51820  0.61320  0.15980  1.0000 0.1292870988
H   H32       1.0  0.48180  0.38680  0.84020  1.0000 0.1292870988
H   H33       1.0  0.97120  0.73850  0.92890  1.0000 0.1292870988
H   H34       1.0  0.02880  0.26150  0.07110  1.0000 0.1292870988
H   H35       1.0  0.17170  0.68830  0.93330  1.0000 0.1292870988
H   H36       1.0  0.82830  0.31170  0.06670  1.0000 0.1292870988
H   H37       1.0  0.22570  0.55340  0.06370  1.0000 0.1292870988
H   H38       1.0  0.77430  0.44660  0.93630  1.0000 0.1292870988
H   H39       1.0  0.06620  0.48080  0.19260  1.0000 0.1082923323
H   H40       1.0  0.93380  0.51920  0.80740  1.0000 0.1082923323
H   H41       1.0  0.23640  0.14250  0.47900  1.0000 0.1192442111
H   H42       1.0  0.76360  0.85750  0.52100  1.0000 0.1192442111
H   H43       1.0  0.17100  0.98960  0.53320  1.0000 0.1082923323
H   H44       1.0  0.82900  0.01040  0.46680  1.0000 0.1082923323
H   H45       1.0  0.90010  0.14470  0.40890  1.0000 0.1192442111
H   H46       1.0  0.09990  0.85530  0.59110  1.0000 0.1192442111
H   H47       1.0  0.62300  0.85190  0.41140  1.0000 0.1082923323
H   H48       1.0  0.37700  0.14810  0.58860  1.0000 0.1082923323
H   H49       1.0  0.32190  0.00760  0.64720  1.0000 0.1082923323
H   H50       1.0  0.67810  0.99240  0.35280  1.0000 0.1082923323
H   H51       1.0  0.27980  0.84520  0.72520  1.0000 0.1192442111
H   H52       1.0  0.72020  0.15480  0.27480  1.0000 0.1192442111
C   C1        1.0  0.61760  0.21710  0.67400  1.0000 -0.1200049917
C   C2        1.0  0.38240  0.78290  0.32600  1.0000 -0.1200049917
C   C3        1.0  0.65380  0.29990  0.60330  1.0000 -0.0025954157
C   C4        1.0  0.34620  0.70010  0.39670  1.0000 -0.0025954157
C   C5        1.0  0.78320  0.23750  0.68830  1.0000 0.1795634538
C   C6        1.0  0.21680  0.76250  0.31170  1.0000 0.1795634538
C   C7        1.0  0.89150  0.22930  0.71660  1.0000 0.1615084619
C   C8        1.0  0.10850  0.77070  0.28340  1.0000 0.1615084619
C   C9        1.0  0.94080  0.14120  0.77870  1.0000 -0.1995926141
C   C10       1.0  0.05920  0.85880  0.22130  1.0000 -0.1995926141
C   C11       1.0  0.04480  0.13920  0.79170  1.0000 -0.0566850934
C   C12       1.0  0.95520  0.86080  0.20830  1.0000 -0.0566850934
C   C13       1.0  0.09690  0.22110  0.74910  1.0000 -0.1396754647
C   C14       1.0  0.90310  0.77890  0.25090  1.0000 -0.1396754647
C   C15       1.0  0.03870  0.30810  0.68760  1.0000 0.0794118144
C   C16       1.0  0.96130  0.69190  0.31240  1.0000 0.0794118144
C   C17       1.0  0.67870  0.09720  0.82510  1.0000 -0.1200049917
C   C18       1.0  0.32130  0.90280  0.17490  1.0000 -0.1251735776
C   C19       1.0  0.74650  0.97620  0.80320  1.0000 -0.1995926141
C   C20       1.0  0.25350  0.02380  0.19680  1.0000 -0.1995926141
C   C21       1.0  0.71820  0.90180  0.90660  1.0000 -0.1995926141
C   C22       1.0  0.28180  0.09820  0.09340  1.0000 -0.1995926141
C   C23       1.0  0.76710  0.77890  0.88890  1.0000 -0.1077753096
C   C24       1.0  0.23290  0.22110  0.11110  1.0000 -0.1077753096
C   C25       1.0  0.60440  0.69530  0.02120  1.0000 -0.1503407932
C   C26       1.0  0.39560  0.30470  0.97880  1.0000 -0.1503407932
C   C27       1.0  0.59040  0.63480  0.11600  1.0000 -0.0111197197
C   C28       1.0  0.40960  0.36520  0.88400  1.0000 -0.0111197197
C   C29       1.0  0.77810  0.65580  0.05940  1.0000 0.1615084619
C   C30       1.0  0.22190  0.34420  0.94060  1.0000 0.1615084619
C   C31       1.0  0.90150  0.63720  0.05840  1.0000 0.1506354422
C   C32       1.0  0.09850  0.36280  0.94160  1.0000 0.1506354422
C   C33       1.0  0.99210  0.68570  0.98170  1.0000 -0.1766974121
C   C34       1.0  0.00790  0.31430  0.01830  1.0000 -0.1766974121
C   C35       1.0  0.11160  0.65550  0.98430  1.0000 -0.0208368558
C   C36       1.0  0.88840  0.34450  0.01570  1.0000 -0.0208368558
C   C37       1.0  0.14390  0.57640  0.06210  1.0000 -0.1396754647
C   C38       1.0  0.85610  0.42360  0.93790  1.0000 -0.1396754647
C   C39       1.0  0.04800  0.53280  0.13830  1.0000 0.0690150967
C   C40       1.0  0.95200  0.46720  0.86170  1.0000 0.0690150967
C   C41       1.0  0.93040  0.33280  0.34130  1.0000 0.551902017
C   C42       1.0  0.06960  0.66720  0.65870  1.0000 0.551902017
C   C43       1.0  0.00450  0.23510  0.39520  1.0000 -0.050235705
C   C44       1.0  0.99550  0.76490  0.60480  1.0000 -0.050235705
C   C45       1.0  0.10310  0.23730  0.41760  1.0000 -0.043882595
C   C46       1.0  0.89690  0.76270  0.58240  1.0000 -0.043882595
C   C47       1.0  0.16630  0.14320  0.46720  1.0000 -0.1200049917
C   C48       1.0  0.83370  0.85680  0.53280  1.0000 -0.1200049917
C   C49       1.0  0.12750  0.05150  0.49910  1.0000 -0.1396754647
C   C50       1.0  0.87250  0.94850  0.50090  1.0000 -0.1396754647
C   C51       1.0  0.02330  0.04840  0.48180  1.0000 0.0624274771
C   C52       1.0  0.97670  0.95160  0.51820  1.0000 0.0624274771
C   C53       1.0  0.96650  0.14430  0.42560  1.0000 -0.1598648742
C   C54       1.0  0.03350  0.85570  0.57440  1.0000 -0.1598648742
C   C55       1.0  0.14970  0.33950  0.38340  1.0000 0.5700278193
C   C56       1.0  0.85030  0.66050  0.61660  1.0000 0.5700278193
C   C57       1.0  0.62930  0.64750  0.47010  1.0000 0.5973049015
C   C58       1.0  0.37070  0.35250  0.52990  1.0000 0.5973049015
C   C59       1.0  0.53610  0.75080  0.52130  1.0000 -0.043882595
C   C60       1.0  0.46390  0.24920  0.47870  1.0000 -0.043882595
C   C61       1.0  0.55620  0.84980  0.47710  1.0000 -0.1661498934
C   C62       1.0  0.44380  0.15020  0.52290  1.0000 -0.1661498934
C   C63       1.0  0.48470  0.94630  0.52320  1.0000 0.0690150967
C   C64       1.0  0.51530  0.05370  0.47680  1.0000 0.0624274771
C   C65       1.0  0.37710  0.94250  0.61630  1.0000 -0.1503407932
C   C66       1.0  0.62290  0.05750  0.38370  1.0000 -0.1503407932
C   C67       1.0  0.35140  0.84540  0.66280  1.0000 -0.1200049917
C   C68       1.0  0.64860  0.15460  0.33720  1.0000 -0.1200049917
C   C69       1.0  0.43160  0.74620  0.61760  1.0000 0.0130385234
C   C70       1.0  0.56840  0.25380  0.38240  1.0000 0.0130385234
C   C71       1.0  0.39560  0.63920  0.66910  1.0000 0.551902017
C   C72       1.0  0.60440  0.36080  0.33090  1.0000 0.551902017
N   N1        1.0  0.93630  0.31170  0.67240  1.0000 -0.2642856627
N   N2        1.0  0.06370  0.68830  0.32760  1.0000 -0.2642856627
N   N3        1.0  0.75250  0.31280  0.61680  1.0000 -0.3128526002
N   N4        1.0  0.24750  0.68720  0.38320  1.0000 -0.3128526002
N   N5        1.0  0.69920  0.17660  0.72830  1.0000 0.0130385234
N   N6        1.0  0.30080  0.82340  0.27170  1.0000 0.0130385234
N   N7        1.0  0.92940  0.56360  0.13560  1.0000 -0.2810189515
N   N8        1.0  0.07060  0.43640  0.86440  1.0000 -0.2810189515
N   N9        1.0  0.69690  0.60920  0.13930  1.0000 -0.3219129532
N   N10       1.0  0.30310  0.39080  0.86070  1.0000 -0.3219129532
N   N11       1.0  0.72500  0.71140  0.98540  1.0000 0.0130385234
N   N12       1.0  0.27500  0.28860  0.01460  1.0000 0.0130385234
O   O1        1.0  0.90490  0.32250  0.26880  1.0000 -0.5001328776
O   O2        1.0  0.09510  0.67750  0.73120  1.0000 -0.5054556518
O   O3        1.0  0.89450  0.42810  0.37610  1.0000 -0.5723549962
O   O4        1.0  0.10550  0.57190  0.62390  1.0000 -0.5723549962
O   O5        1.0  0.09360  0.40920  0.44970  1.0000 -0.5723549962
O   O6        1.0  0.90640  0.59080  0.55030  1.0000 -0.5723549962
O   O7        1.0  0.23300  0.34820  0.29640  1.0000 -0.5199648827
O   O8        1.0  0.76700  0.65180  0.70360  1.0000 -0.5199648827
O   O9        1.0  0.66667  0.65430  0.37130  1.0000 -0.5478690654
O   O10       1.0  0.33333  0.34570  0.62870  1.0000 -0.5478690654
O   O11       1.0  0.66760  0.56420  0.53260  1.0000 -0.5444465667
O   O12       1.0  0.33240  0.43580  0.46740  1.0000 -0.5444465667
O   O13       1.0  0.37860  0.58900  0.61830  1.0000 -0.5001328776
O   O14       1.0  0.62140  0.41100  0.38170  1.0000 -0.5001328776
O   O15       1.0  0.37810  0.61650  0.76590  1.0000 -0.5595114618
O   O16       1.0  0.62190  0.38350  0.23410  1.0000 -0.5595114618
