# DDEC6 charges by PACMAN v1.1 (https://github.com/mtap-research/PACMAN-charge/)
data_2010[Cd][fsc]3[FSR]1
_chemical_formula_sum              "Cd3 H36 C36 S6 N6 O18"
_cell_length_a       8.4243
_cell_length_b       11.6368
_cell_length_c       15.7095
_cell_angle_alpha    95.494
_cell_angle_beta     104.725
_cell_angle_gamma    99.122

_symmetry_space_group_name_H-M    "P 1"
_symmetry_Int_Tables_number       1

loop_
  _symmetry_equiv_pos_as_xyz
  'x, y, z'

loop_
  _atom_site_type_symbol
  _atom_site_label
  _atom_site_symmetry_multiplicity
  _atom_site_fract_x
  _atom_site_fract_y
  _atom_site_fract_z
  _atom_site_occupancy
  _atom_site_charge
Cd  Cd1       1.0  0.50000  0.50000  0.00000  1.0000 1.006187817
Cd  Cd2       1.0  0.47674  0.44992  0.32383  1.0000 0.9988004173
Cd  Cd3       1.0  0.52326  0.55008  0.67617  1.0000 0.9988004173
H   H1        1.0  0.02850  0.56290  0.42950  1.0000 0.1625648046
H   H2        1.0  0.97150  0.43710  0.57050  1.0000 0.1625648046
H   H3        1.0  0.93950  0.42750  0.41510  1.0000 0.1625648046
H   H4        1.0  0.06050  0.57250  0.58490  1.0000 0.1625648046
H   H5        1.0  0.13140  0.58880  0.18830  1.0000 0.1458001042
H   H6        1.0  0.86860  0.41120  0.81170  1.0000 0.1458001042
H   H7        1.0  0.98340  0.54910  0.09810  1.0000 0.1625648046
H   H8        1.0  0.01660  0.45090  0.90190  1.0000 0.1625648046
H   H9        1.0  0.02230  0.43680  0.25490  1.0000 0.1625648046
H   H10       1.0  0.97770  0.56320  0.74510  1.0000 0.1625648046
H   H11       1.0  0.89320  0.37430  0.16240  1.0000 0.1414302195
H   H12       1.0  0.10680  0.62570  0.83760  1.0000 0.1414302195
H   H13       1.0  0.51240  0.65060  0.19940  1.0000 0.1115412953
H   H14       1.0  0.48760  0.34940  0.80060  1.0000 0.1115412953
H   H15       1.0  0.38010  0.66667  0.42250  1.0000 0.1115412953
H   H16       1.0  0.61990  0.33333  0.57750  1.0000 0.1115412953
H   H17       1.0  0.35260  0.86010  0.41770  1.0000 0.1317362728
H   H18       1.0  0.64740  0.13990  0.58230  1.0000 0.1317362728
H   H19       1.0  0.49420  0.84450  0.18960  1.0000 0.12060423
H   H20       1.0  0.50580  0.15550  0.81040  1.0000 0.12060423
H   H21       1.0  0.34450  0.03360  0.41450  1.0000 0.1317362728
H   H22       1.0  0.65550  0.96640  0.58550  1.0000 0.1317362728
H   H23       1.0  0.51450  0.02740  0.19570  1.0000 0.1317362728
H   H24       1.0  0.48550  0.97260  0.80430  1.0000 0.1317362728
H   H25       1.0  0.36740  0.23390  0.41930  1.0000 0.12060423
H   H26       1.0  0.63260  0.76610  0.58070  1.0000 0.12060423
H   H27       1.0  0.75080  0.94230  0.02130  1.0000 0.1317362728
H   H28       1.0  0.24920  0.05770  0.97870  1.0000 0.1317362728
H   H29       1.0  0.24840  0.88170  0.98450  1.0000 0.1414302195
H   H30       1.0  0.75160  0.11830  0.01550  1.0000 0.1414302195
H   H31       1.0  0.74280  0.74420  0.02370  1.0000 0.12060423
H   H32       1.0  0.25720  0.25580  0.97630  1.0000 0.12060423
H   H33       1.0  0.25570  0.68460  0.98790  1.0000 0.12060423
H   H34       1.0  0.74430  0.31540  0.01210  1.0000 0.12060423
H   H35       1.0  0.53300  0.22840  0.20670  1.0000 0.12060423
H   H36       1.0  0.46700  0.77160  0.79330  1.0000 0.12060423
C   C1        1.0  0.02490  0.48980  0.45709  1.0000 -0.349626938
C   C2        1.0  0.97510  0.51020  0.54291  1.0000 -0.349626938
C   C3        1.0  0.05630  0.52000  0.14805  1.0000 -0.3575877791
C   C4        1.0  0.94370  0.48000  0.85195  1.0000 -0.3575877791
C   C5        1.0  0.94970  0.45140  0.19828  1.0000 -0.349626938
C   C6        1.0  0.05030  0.54860  0.80172  1.0000 -0.349626938
C   C7        1.0  0.48140  0.69410  0.24486  1.0000 0.0992960724
C   C8        1.0  0.51860  0.30590  0.75514  1.0000 0.0992960724
C   C9        1.0  0.40360  0.70360  0.37454  1.0000 0.0992960724
C   C10       1.0  0.59640  0.29640  0.62546  1.0000 0.0992960724
C   C11       1.0  0.38870  0.81970  0.37271  1.0000 -0.191344591
C   C12       1.0  0.61130  0.18030  0.62729  1.0000 -0.191344591
C   C13       1.0  0.47110  0.81030  0.23876  1.0000 -0.1801681315
C   C14       1.0  0.52890  0.18970  0.76124  1.0000 -0.1801681315
C   C15       1.0  0.42700  0.87797  0.30402  1.0000 0.1115412953
C   C16       1.0  0.57300  0.12203  0.69598  1.0000 0.1115412953
C   C17       1.0  0.43020  0.00538  0.30535  1.0000 0.1115412953
C   C18       1.0  0.56980  0.99462  0.69465  1.0000 0.1115412953
C   C19       1.0  0.38510  0.07140  0.37123  1.0000 -0.191344591
C   C20       1.0  0.61490  0.92860  0.62877  1.0000 -0.191344591
C   C21       1.0  0.48480  0.06800  0.24298  1.0000 -0.1981267104
C   C22       1.0  0.51520  0.93200  0.75702  1.0000 -0.1981267104
C   C23       1.0  0.39910  0.19120  0.37370  1.0000 0.0992960724
C   C24       1.0  0.60090  0.80880  0.62630  1.0000 0.0992960724
C   C25       1.0  0.64690  0.89120  0.01364  1.0000 -0.1981267104
C   C26       1.0  0.35310  0.10880  0.98636  1.0000 -0.1981267104
C   C27       1.0  0.35180  0.85570  0.99200  1.0000 -0.1981267104
C   C28       1.0  0.64820  0.14430  0.00800  1.0000 -0.1981267104
C   C29       1.0  0.49960  0.93680  0.00115  1.0000 0.0918249245
C   C30       1.0  0.50040  0.06320  0.99885  1.0000 0.0918249245
C   C31       1.0  0.64110  0.77260  0.01485  1.0000 0.0992960724
C   C32       1.0  0.35890  0.22740  0.98515  1.0000 0.0992960724
C   C33       1.0  0.35710  0.73790  0.99400  1.0000 0.0918249245
C   C34       1.0  0.64290  0.26210  0.00600  1.0000 0.0918249245
C   C35       1.0  0.49550  0.18820  0.24994  1.0000 0.0992960724
C   C36       1.0  0.50450  0.81180  0.75006  1.0000 0.0992960724
S   S1        1.0  0.22371  0.44746  0.47608  1.0000 1.2396544422
S   S2        1.0  0.77629  0.55254  0.52392  1.0000 1.2396544422
S   S3        1.0  0.17708  0.42777  0.10648  1.0000 1.2396544422
S   S4        1.0  0.82292  0.57223  0.89352  1.0000 1.2396544422
S   S5        1.0  0.79757  0.53008  0.22081  1.0000 1.2396544422
S   S6        1.0  0.20243  0.46992  0.77919  1.0000 1.2396544422
N   N1        1.0  0.49900  0.69505  0.00412  1.0000 -0.2426191365
N   N2        1.0  0.50100  0.30495  0.99588  1.0000 -0.2426191365
N   N3        1.0  0.44970  0.63981  0.31202  1.0000 -0.2459053492
N   N4        1.0  0.55030  0.36019  0.68798  1.0000 -0.2459053492
N   N5        1.0  0.45560  0.25077  0.31465  1.0000 -0.2109925841
N   N6        1.0  0.54440  0.74923  0.68535  1.0000 -0.2109925841
O   O1        1.0  0.25217  0.43635  0.38788  1.0000 -0.6388267671
O   O2        1.0  0.74783  0.56365  0.61212  1.0000 -0.6388267671
O   O3        1.0  0.21530  0.33925  0.51353  1.0000 -0.5895769989
O   O4        1.0  0.78470  0.66075  0.48647  1.0000 -0.5895769989
O   O5        1.0  0.34285  0.54641  0.53633  1.0000 -0.6474274939
O   O6        1.0  0.65715  0.45359  0.46367  1.0000 -0.6474274939
O   O7        1.0  0.27890  0.50316  0.06300  1.0000 -0.6474274939
O   O8        1.0  0.72110  0.49684  0.93700  1.0000 -0.6474274939
O   O9        1.0  0.27910  0.38616  0.18256  1.0000 -0.6388267671
O   O10       1.0  0.72090  0.61384  0.81744  1.0000 -0.6388267671
O   O11       1.0  0.05828  0.33351  0.04503  1.0000 -0.6049602424
O   O12       1.0  0.94172  0.66649  0.95497  1.0000 -0.6049602424
O   O13       1.0  0.70360  0.55454  0.13468  1.0000 -0.6474274939
O   O14       1.0  0.29640  0.44546  0.86532  1.0000 -0.6474274939
O   O15       1.0  0.69420  0.44825  0.25950  1.0000 -0.6474274939
O   O16       1.0  0.30580  0.55175  0.74050  1.0000 -0.6474274939
O   O17       1.0  0.88550  0.63552  0.28050  1.0000 -0.5805421268
O   O18       1.0  0.11450  0.36448  0.71950  1.0000 -0.5805421268
