# DDEC6 charges by PACMAN v1.1 (https://github.com/mtap-research/PACMAN-charge/)
data_2010[Cd][nan]3[FSR]4
_chemical_formula_sum              "Cd16 H288 C416 N64 O80"
_cell_length_a       33.8935
_cell_length_b       33.8935
_cell_length_c       33.8935
_cell_angle_alpha    147.616
_cell_angle_beta     147.616
_cell_angle_gamma    46.4529

_symmetry_space_group_name_H-M    "P 1"
_symmetry_Int_Tables_number       1

loop_
  _symmetry_equiv_pos_as_xyz
  'x, y, z'

loop_
  _atom_site_type_symbol
  _atom_site_label
  _atom_site_symmetry_multiplicity
  _atom_site_fract_x
  _atom_site_fract_y
  _atom_site_fract_z
  _atom_site_occupancy
  _atom_site_charge
Cd  Cd1       1.0  0.17287  0.71651  0.26998  1.0000 0.8271275871
Cd  Cd2       1.0  0.44653  0.90289  0.73002  1.0000 0.8271275871
Cd  Cd3       1.0  0.46651  0.69653  0.04364  1.0000 0.8271275871
Cd  Cd4       1.0  0.65289  0.42287  0.95636  1.0000 0.8271275871
Cd  Cd5       1.0  0.67287  0.40289  0.45636  1.0000 0.8271275871
Cd  Cd6       1.0  0.15289  0.19653  0.23002  1.0000 0.8271275871
Cd  Cd7       1.0  0.94653  0.21651  0.54364  1.0000 0.8271275871
Cd  Cd8       1.0  0.96651  0.92287  0.76998  1.0000 0.8271275871
Cd  Cd9       1.0  0.07713  0.84711  0.04364  1.0000 0.8271275871
Cd  Cd10      1.0  0.59711  0.05347  0.26998  1.0000 0.8271275871
Cd  Cd11      1.0  0.80347  0.03349  0.95636  1.0000 0.8271275871
Cd  Cd12      1.0  0.78349  0.32713  0.73002  1.0000 0.8271275871
Cd  Cd13      1.0  0.57713  0.53349  0.23002  1.0000 0.8271275871
Cd  Cd14      1.0  0.30347  0.34711  0.76998  1.0000 0.8271275871
Cd  Cd15      1.0  0.28349  0.55347  0.45636  1.0000 0.8271275871
Cd  Cd16      1.0  0.09711  0.82713  0.54364  1.0000 0.8271275871
H   H1        1.0  0.20330  0.80440  0.46210  1.0000 0.1308441749
H   H2        1.0  0.34230  0.74120  0.53790  1.0000 0.1308441749
H   H3        1.0  0.55440  0.59230  0.10110  1.0000 0.1308441749
H   H4        1.0  0.49120  0.45330  0.89890  1.0000 0.1308441749
H   H5        1.0  0.70330  0.24120  0.39890  1.0000 0.1308441749
H   H6        1.0  0.99120  0.09230  0.03790  1.0000 0.1308441749
H   H7        1.0  0.84230  0.30440  0.60110  1.0000 0.1308441749
H   H8        1.0  0.05440  0.95330  0.96210  1.0000 0.1308441749
H   H9        1.0  0.10790  0.82290  0.44440  1.0000 0.1308441749
H   H10       1.0  0.37850  0.66350  0.55560  1.0000 0.1308441749
H   H11       1.0  0.57290  0.62850  0.21500  1.0000 0.1308441749
H   H12       1.0  0.41350  0.35790  0.78500  1.0000 0.1308441749
H   H13       1.0  0.60790  0.16350  0.28500  1.0000 0.1308441749
H   H14       1.0  0.91350  0.12850  0.05560  1.0000 0.1308441749
H   H15       1.0  0.87850  0.32290  0.71500  1.0000 0.1308441749
H   H16       1.0  0.07290  0.85790  0.94440  1.0000 0.1308441749
H   H17       1.0  0.01560  0.74110  0.20030  1.0000 0.1099236826
H   H18       1.0  0.54080  0.81530  0.79970  1.0000 0.1099236826
H   H19       1.0  0.49110  0.79080  0.22550  1.0000 0.1099236826
H   H20       1.0  0.56530  0.26560  0.77450  1.0000 0.1099236826
H   H21       1.0  0.51560  0.31530  0.27450  1.0000 0.1099236826
H   H22       1.0  0.06530  0.29080  0.29970  1.0000 0.1099236826
H   H23       1.0  0.04080  0.24110  0.72550  1.0000 0.1099236826
H   H24       1.0  0.99110  0.76560  0.70030  1.0000 0.1099236826
H   H25       1.0  0.98750  0.86780  0.39170  1.0000 0.1362922415
H   H26       1.0  0.47610  0.59580  0.60830  1.0000 0.1362922415
H   H27       1.0  0.61780  0.72610  0.38030  1.0000 0.1362922415
H   H28       1.0  0.34580  0.23750  0.61970  1.0000 0.1362922415
H   H29       1.0  0.48750  0.09580  0.11970  1.0000 0.1362922415
H   H30       1.0  0.84580  0.22610  0.10830  1.0000 0.1362922415
H   H31       1.0  0.97610  0.36780  0.88030  1.0000 0.1362922415
H   H32       1.0  0.11780  0.73750  0.89170  1.0000 0.1362922415
H   H33       1.0  0.86710  0.87390  0.31900  1.0000 0.1362922415
H   H34       1.0  0.55490  0.54810  0.68100  1.0000 0.1362922415
H   H35       1.0  0.62390  0.80490  0.50680  1.0000 0.1362922415
H   H36       1.0  0.29810  0.11710  0.49320  1.0000 0.1362922415
H   H37       1.0  0.36710  0.04810  0.99320  1.0000 0.1362922415
H   H38       1.0  0.79810  0.30490  0.18100  1.0000 0.1362922415
H   H39       1.0  0.05490  0.37390  0.00680  1.0000 0.1362922415
H   H40       1.0  0.12390  0.61710  0.81900  1.0000 0.1362922415
H   H41       1.0  0.79670  0.70430  0.04780  1.0000 0.1308441749
H   H42       1.0  0.65650  0.74890  0.95220  1.0000 0.1308441749
H   H43       1.0  0.45430  0.90650  0.40760  1.0000 0.1308441749
H   H44       1.0  0.49890  0.04670  0.59240  1.0000 0.1308441749
H   H45       1.0  0.29670  0.24890  0.09240  1.0000 0.1308441749
H   H46       1.0  0.99890  0.40650  0.45220  1.0000 0.1308441749
H   H47       1.0  0.15650  0.20430  0.90760  1.0000 0.1308441749
H   H48       1.0  0.95430  0.54670  0.54780  1.0000 0.1308441749
H   H49       1.0  0.91580  0.70160  0.12020  1.0000 0.1215710734
H   H50       1.0  0.58140  0.79560  0.87980  1.0000 0.1215710734
H   H51       1.0  0.45160  0.83140  0.28580  1.0000 0.1215710734
H   H52       1.0  0.54560  0.16580  0.71420  1.0000 0.1215710734
H   H53       1.0  0.41580  0.29560  0.21420  1.0000 0.1215710734
H   H54       1.0  0.04560  0.33140  0.37980  1.0000 0.1215710734
H   H55       1.0  0.08140  0.20160  0.78580  1.0000 0.1215710734
H   H56       1.0  0.95160  0.66580  0.62020  1.0000 0.1215710734
H   H57       1.0  0.65000  0.67020  0.17780  1.0000 0.1215710734
H   H58       1.0  0.49240  0.47220  0.82220  1.0000 0.1215710734
H   H59       1.0  0.42020  0.74240  0.52020  1.0000 0.1215710734
H   H60       1.0  0.22220  0.90000  0.47980  1.0000 0.1215710734
H   H61       1.0  0.15000  0.97220  0.97980  1.0000 0.1215710734
H   H62       1.0  0.72220  0.24240  0.32220  1.0000 0.1215710734
H   H63       1.0  0.99240  0.17020  0.02020  1.0000 0.1215710734
H   H64       1.0  0.92020  0.40000  0.67780  1.0000 0.1215710734
H   H65       1.0  0.73510  0.68790  0.20940  1.0000 0.1308441749
H   H66       1.0  0.47850  0.52570  0.79060  1.0000 0.1308441749
H   H67       1.0  0.43790  0.72850  0.45280  1.0000 0.1308441749
H   H68       1.0  0.27570  0.98510  0.54720  1.0000 0.1308441749
H   H69       1.0  0.23510  0.02570  0.04720  1.0000 0.1308441749
H   H70       1.0  0.77570  0.22850  0.29060  1.0000 0.1308441749
H   H71       1.0  0.97850  0.18790  0.95280  1.0000 0.1308441749
H   H72       1.0  0.93790  0.48510  0.70940  1.0000 0.1308441749
H   H73       1.0  0.54190  0.74610  0.06320  1.0000 0.1215710734
H   H74       1.0  0.68290  0.47870  0.93680  1.0000 0.1215710734
H   H75       1.0  0.49610  0.93290  0.70420  1.0000 0.1215710734
H   H76       1.0  0.22870  0.79190  0.29580  1.0000 0.1215710734
H   H77       1.0  0.04190  0.97870  0.79580  1.0000 0.1215710734
H   H78       1.0  0.72870  0.43290  0.43680  1.0000 0.1215710734
H   H79       1.0  0.18290  0.24610  0.20420  1.0000 0.1215710734
H   H80       1.0  0.99610  0.29190  0.56320  1.0000 0.1215710734
H   H81       1.0  0.75510  0.67170  0.14220  1.0000 0.1215710734
H   H82       1.0  0.52950  0.61290  0.85780  1.0000 0.1215710734
H   H83       1.0  0.42170  0.77950  0.41660  1.0000 0.1215710734
H   H84       1.0  0.36290  0.00510  0.58340  1.0000 0.1215710734
H   H85       1.0  0.25510  0.11290  0.08340  1.0000 0.1215710734
H   H86       1.0  0.86290  0.27950  0.35780  1.0000 0.1215710734
H   H87       1.0  0.02950  0.17170  0.91660  1.0000 0.1215710734
H   H88       1.0  0.92170  0.50510  0.64220  1.0000 0.1215710734
H   H89       1.0  0.80130  0.70630  0.14880  1.0000 0.1308441749
H   H90       1.0  0.55750  0.65250  0.85120  1.0000 0.1308441749
H   H91       1.0  0.45630  0.80750  0.40500  1.0000 0.1308441749
H   H92       1.0  0.40250  0.05130  0.59500  1.0000 0.1308441749
H   H93       1.0  0.30130  0.15250  0.09500  1.0000 0.1308441749
H   H94       1.0  0.90250  0.30750  0.35120  1.0000 0.1308441749
H   H95       1.0  0.05750  0.20630  0.90500  1.0000 0.1308441749
H   H96       1.0  0.95630  0.55130  0.64880  1.0000 0.1308441749
H   H97       1.0  0.64550  0.84520  0.12350  1.0000 0.1308441749
H   H98       1.0  0.72170  0.52200  0.87650  1.0000 0.1308441749
H   H99       1.0  0.59520  0.97170  0.69970  1.0000 0.1308441749
H   H100      1.0  0.27200  0.89550  0.30030  1.0000 0.1308441749
H   H101      1.0  0.14550  0.02200  0.80030  1.0000 0.1308441749
H   H102      1.0  0.77200  0.47170  0.37650  1.0000 0.1308441749
H   H103      1.0  0.22170  0.34520  0.19970  1.0000 0.1308441749
H   H104      1.0  0.09520  0.39550  0.62350  1.0000 0.1308441749
H   H105      1.0  0.60090  0.81410  0.12100  1.0000 0.1308441749
H   H106      1.0  0.69310  0.47990  0.87900  1.0000 0.1308441749
H   H107      1.0  0.56410  0.94310  0.71320  1.0000 0.1308441749
H   H108      1.0  0.22990  0.85090  0.28680  1.0000 0.1308441749
H   H109      1.0  0.10090  0.97990  0.78680  1.0000 0.1308441749
H   H110      1.0  0.72990  0.44310  0.37900  1.0000 0.1308441749
H   H111      1.0  0.19310  0.31410  0.21320  1.0000 0.1308441749
H   H112      1.0  0.06410  0.35090  0.62100  1.0000 0.1308441749
H   H113      1.0  0.96390  0.51860  0.92570  1.0000 0.1215710734
H   H114      1.0  0.59290  0.03820  0.07430  1.0000 0.1215710734
H   H115      1.0  0.26860  0.84290  0.05470  1.0000 0.1215710734
H   H116      1.0  0.78820  0.21390  0.94530  1.0000 0.1215710734
H   H117      1.0  0.46390  0.53820  0.44530  1.0000 0.1215710734
H   H118      1.0  0.28820  0.34290  0.57430  1.0000 0.1215710734
H   H119      1.0  0.09290  0.01860  0.55470  1.0000 0.1215710734
H   H120      1.0  0.76860  0.71390  0.42570  1.0000 0.1215710734
H   H121      1.0  0.98010  0.65770  0.96600  1.0000 0.1099236826
H   H122      1.0  0.69170  0.01410  0.03400  1.0000 0.1099236826
H   H123      1.0  0.40770  0.94170  0.17760  1.0000 0.1099236826
H   H124      1.0  0.76410  0.23010  0.82240  1.0000 0.1099236826
H   H125      1.0  0.48010  0.51410  0.32240  1.0000 0.1099236826
H   H126      1.0  0.26410  0.44170  0.53400  1.0000 0.1099236826
H   H127      1.0  0.19170  0.15770  0.67760  1.0000 0.1099236826
H   H128      1.0  0.90770  0.73010  0.46600  1.0000 0.1099236826
H   H129      1.0  0.87510  0.59810  0.79980  1.0000 0.1099236826
H   H130      1.0  0.79830  0.07530  0.20020  1.0000 0.1099236826
H   H131      1.0  0.34810  0.04830  0.22300  1.0000 0.1099236826
H   H132      1.0  0.82530  0.12510  0.77700  1.0000 0.1099236826
H   H133      1.0  0.37510  0.57530  0.27700  1.0000 0.1099236826
H   H134      1.0  0.32530  0.54830  0.70020  1.0000 0.1099236826
H   H135      1.0  0.29830  0.09810  0.72300  1.0000 0.1099236826
H   H136      1.0  0.84810  0.62510  0.29980  1.0000 0.1099236826
H   H137      1.0  0.86030  0.45630  0.75760  1.0000 0.1099236826
H   H138      1.0  0.69870  0.10270  0.24240  1.0000 0.1099236826
H   H139      1.0  0.20630  0.94870  0.09600  1.0000 0.1099236826
H   H140      1.0  0.85270  0.11030  0.90400  1.0000 0.1099236826
H   H141      1.0  0.36030  0.60270  0.40400  1.0000 0.1099236826
H   H142      1.0  0.35270  0.44870  0.74240  1.0000 0.1099236826
H   H143      1.0  0.19870  0.95630  0.59600  1.0000 0.1099236826
H   H144      1.0  0.70630  0.61030  0.25760  1.0000 0.1099236826
H   H145      1.0  0.04670  0.00880  0.10110  1.0000 0.1308441749
H   H146      1.0  0.75880  0.15770  0.46210  1.0000 0.1308441749
H   H147      1.0  0.90770  0.94560  0.89890  1.0000 0.1308441749
H   H148      1.0  0.69560  0.29670  0.53790  1.0000 0.1308441749
H   H149      1.0  0.54670  0.44560  0.03790  1.0000 0.1308441749
H   H150      1.0  0.40770  0.50880  0.96210  1.0000 0.1308441749
H   H151      1.0  0.19560  0.65770  0.39890  1.0000 0.1308441749
H   H152      1.0  0.25880  0.79670  0.60110  1.0000 0.1308441749
H   H153      1.0  0.14210  0.08650  0.21500  1.0000 0.1308441749
H   H154      1.0  0.83650  0.12150  0.44440  1.0000 0.1308441749
H   H155      1.0  0.87150  0.92710  0.78500  1.0000 0.1308441749
H   H156      1.0  0.67710  0.39210  0.55560  1.0000 0.1308441749
H   H157      1.0  0.64210  0.42710  0.05560  1.0000 0.1308441749
H   H158      1.0  0.37150  0.58650  0.94440  1.0000 0.1308441749
H   H159      1.0  0.17710  0.62150  0.28500  1.0000 0.1308441749
H   H160      1.0  0.33650  0.89210  0.71500  1.0000 0.1308441749
H   H161      1.0  0.23440  0.93470  0.22550  1.0000 0.1099236826
H   H162      1.0  0.68470  0.95920  0.20030  1.0000 0.1099236826
H   H163      1.0  0.70920  0.00890  0.77450  1.0000 0.1099236826
H   H164      1.0  0.75890  0.48440  0.79970  1.0000 0.1099236826
H   H165      1.0  0.73440  0.50890  0.29970  1.0000 0.1099236826
H   H166      1.0  0.20920  0.43470  0.70030  1.0000 0.1099236826
H   H167      1.0  0.25890  0.45920  0.27450  1.0000 0.1099236826
H   H168      1.0  0.18470  0.98440  0.72550  1.0000 0.1099236826
H   H169      1.0  0.26250  0.15420  0.38030  1.0000 0.1362922415
H   H170      1.0  0.90420  0.02390  0.39170  1.0000 0.1362922415
H   H171      1.0  0.77390  0.88220  0.61970  1.0000 0.1362922415
H   H172      1.0  0.63220  0.51250  0.60830  1.0000 0.1362922415
H   H173      1.0  0.76250  0.38220  0.10830  1.0000 0.1362922415
H   H174      1.0  0.27390  0.65420  0.89170  1.0000 0.1362922415
H   H175      1.0  0.13220  0.52390  0.11970  1.0000 0.1362922415
H   H176      1.0  0.40420  0.01250  0.88030  1.0000 0.1362922415
H   H177      1.0  0.38290  0.20190  0.50680  1.0000 0.1362922415
H   H178      1.0  0.95190  0.94510  0.31900  1.0000 0.1362922415
H   H179      1.0  0.69510  0.87610  0.49320  1.0000 0.1362922415
H   H180      1.0  0.62610  0.63290  0.68100  1.0000 0.1362922415
H   H181      1.0  0.88290  0.37610  0.18100  1.0000 0.1362922415
H   H182      1.0  0.19510  0.70190  0.81900  1.0000 0.1362922415
H   H183      1.0  0.12610  0.44510  0.99320  1.0000 0.1362922415
H   H184      1.0  0.45190  0.13290  0.00680  1.0000 0.1362922415
H   H185      1.0  0.45330  0.00110  0.40760  1.0000 0.1308441749
H   H186      1.0  0.75110  0.84350  0.04780  1.0000 0.1308441749
H   H187      1.0  0.59350  0.04570  0.59240  1.0000 0.1308441749
H   H188      1.0  0.79570  0.70330  0.95220  1.0000 0.1308441749
H   H189      1.0  0.95330  0.54570  0.45220  1.0000 0.1308441749
H   H190      1.0  0.09350  0.50110  0.54780  1.0000 0.1308441749
H   H191      1.0  0.29570  0.34350  0.09240  1.0000 0.1308441749
H   H192      1.0  0.25110  0.20330  0.90760  1.0000 0.1308441749
H   H193      1.0  0.33420  0.95440  0.28580  1.0000 0.1215710734
H   H194      1.0  0.70440  0.91860  0.12020  1.0000 0.1215710734
H   H195      1.0  0.66860  0.04840  0.71420  1.0000 0.1215710734
H   H196      1.0  0.79840  0.58420  0.87980  1.0000 0.1215710734
H   H197      1.0  0.83420  0.54840  0.37980  1.0000 0.1215710734
H   H198      1.0  0.16860  0.45440  0.62020  1.0000 0.1215710734
H   H199      1.0  0.29840  0.41860  0.21420  1.0000 0.1215710734
H   H200      1.0  0.20440  0.08420  0.78580  1.0000 0.1215710734
H   H201      1.0  0.60000  0.27780  0.52020  1.0000 0.1215710734
H   H202      1.0  0.02780  0.00760  0.17780  1.0000 0.1215710734
H   H203      1.0  0.75760  0.07980  0.47980  1.0000 0.1215710734
H   H204      1.0  0.82980  0.85000  0.82220  1.0000 0.1215710734
H   H205      1.0  0.10000  0.57980  0.32220  1.0000 0.1215710734
H   H206      1.0  0.25760  0.77780  0.67780  1.0000 0.1215710734
H   H207      1.0  0.32980  0.50760  0.97980  1.0000 0.1215710734
H   H208      1.0  0.52780  0.35000  0.02020  1.0000 0.1215710734
H   H209      1.0  0.51490  0.22430  0.45280  1.0000 0.1308441749
H   H210      1.0  0.97430  0.02150  0.20940  1.0000 0.1308441749
H   H211      1.0  0.77150  0.06210  0.54720  1.0000 0.1308441749
H   H212      1.0  0.81210  0.76490  0.79060  1.0000 0.1308441749
H   H213      1.0  0.01490  0.56210  0.29060  1.0000 0.1308441749
H   H214      1.0  0.27150  0.72430  0.70940  1.0000 0.1308441749
H   H215      1.0  0.31210  0.52150  0.04720  1.0000 0.1308441749
H   H216      1.0  0.47430  0.26490  0.95280  1.0000 0.1308441749
H   H217      1.0  0.70810  0.27130  0.70420  1.0000 0.1215710734
H   H218      1.0  0.02130  0.81710  0.06320  1.0000 0.1215710734
H   H219      1.0  0.56710  0.00390  0.29580  1.0000 0.1215710734
H   H220      1.0  0.75390  0.95810  0.93680  1.0000 0.1215710734
H   H221      1.0  0.20810  0.50390  0.43680  1.0000 0.1215710734
H   H222      1.0  0.06710  0.77130  0.56320  1.0000 0.1215710734
H   H223      1.0  0.25390  0.31710  0.79580  1.0000 0.1215710734
H   H224      1.0  0.52130  0.45810  0.20420  1.0000 0.1215710734
H   H225      1.0  0.49490  0.13710  0.41660  1.0000 0.1215710734
H   H226      1.0  0.88710  0.97050  0.14220  1.0000 0.1215710734
H   H227      1.0  0.72050  0.07830  0.58340  1.0000 0.1215710734
H   H228      1.0  0.82830  0.74490  0.85780  1.0000 0.1215710734
H   H229      1.0  0.99490  0.57830  0.35780  1.0000 0.1215710734
H   H230      1.0  0.22050  0.63710  0.64220  1.0000 0.1215710734
H   H231      1.0  0.32830  0.47050  0.08340  1.0000 0.1215710734
H   H232      1.0  0.38710  0.24490  0.91660  1.0000 0.1215710734
H   H233      1.0  0.44870  0.09750  0.40500  1.0000 0.1308441749
H   H234      1.0  0.84750  0.94250  0.14880  1.0000 0.1308441749
H   H235      1.0  0.69250  0.04370  0.59500  1.0000 0.1308441749
H   H236      1.0  0.79370  0.69870  0.85120  1.0000 0.1308441749
H   H237      1.0  0.94870  0.54370  0.35120  1.0000 0.1308441749
H   H238      1.0  0.19250  0.59750  0.64880  1.0000 0.1308441749
H   H239      1.0  0.29370  0.44250  0.09500  1.0000 0.1308441749
H   H240      1.0  0.34750  0.19870  0.90500  1.0000 0.1308441749
H   H241      1.0  0.60450  0.22800  0.69970  1.0000 0.1308441749
H   H242      1.0  0.97800  0.77830  0.12350  1.0000 0.1308441749
H   H243      1.0  0.52830  0.90480  0.30030  1.0000 0.1308441749
H   H244      1.0  0.65480  0.85450  0.87650  1.0000 0.1308441749
H   H245      1.0  0.10450  0.40480  0.37650  1.0000 0.1308441749
H   H246      1.0  0.02830  0.72800  0.62350  1.0000 0.1308441749
H   H247      1.0  0.15480  0.27830  0.80030  1.0000 0.1308441749
H   H248      1.0  0.47800  0.35450  0.19970  1.0000 0.1308441749
H   H249      1.0  0.64910  0.27010  0.71320  1.0000 0.1308441749
H   H250      1.0  0.02010  0.80690  0.12100  1.0000 0.1308441749
H   H251      1.0  0.55690  0.93590  0.28680  1.0000 0.1308441749
H   H252      1.0  0.68590  0.89910  0.87900  1.0000 0.1308441749
H   H253      1.0  0.14910  0.43590  0.37900  1.0000 0.1308441749
H   H254      1.0  0.05690  0.77010  0.62100  1.0000 0.1308441749
H   H255      1.0  0.18590  0.30690  0.78680  1.0000 0.1308441749
H   H256      1.0  0.52010  0.39910  0.21320  1.0000 0.1308441749
H   H257      1.0  0.28610  0.71180  0.05470  1.0000 0.1215710734
H   H258      1.0  0.46180  0.90710  0.92570  1.0000 0.1215710734
H   H259      1.0  0.65710  0.23140  0.94530  1.0000 0.1215710734
H   H260      1.0  0.98140  0.53610  0.07430  1.0000 0.1215710734
H   H261      1.0  0.78610  0.73140  0.57430  1.0000 0.1215710734
H   H262      1.0  0.15710  0.21180  0.42570  1.0000 0.1215710734
H   H263      1.0  0.48140  0.40710  0.44530  1.0000 0.1215710734
H   H264      1.0  0.96180  0.03610  0.55470  1.0000 0.1215710734
H   H265      1.0  0.26990  0.73590  0.17760  1.0000 0.1099236826
H   H266      1.0  0.48590  0.80830  0.96600  1.0000 0.1099236826
H   H267      1.0  0.55830  0.09230  0.82240  1.0000 0.1099236826
H   H268      1.0  0.84230  0.51990  0.03400  1.0000 0.1099236826
H   H269      1.0  0.76990  0.59230  0.53400  1.0000 0.1099236826
H   H270      1.0  0.05830  0.23590  0.46600  1.0000 0.1099236826
H   H271      1.0  0.34230  0.30830  0.32240  1.0000 0.1099236826
H   H272      1.0  0.98590  0.01990  0.67760  1.0000 0.1099236826
H   H273      1.0  0.37490  0.67470  0.22300  1.0000 0.1099236826
H   H274      1.0  0.42470  0.70170  0.79980  1.0000 0.1099236826
H   H275      1.0  0.45170  0.15190  0.77700  1.0000 0.1099236826
H   H276      1.0  0.90190  0.62490  0.20020  1.0000 0.1099236826
H   H277      1.0  0.87490  0.65190  0.70020  1.0000 0.1099236826
H   H278      1.0  0.95170  0.17470  0.29980  1.0000 0.1099236826
H   H279      1.0  0.40190  0.20170  0.27700  1.0000 0.1099236826
H   H280      1.0  0.92470  0.12490  0.72300  1.0000 0.1099236826
H   H281      1.0  0.38970  0.64730  0.09600  1.0000 0.1099236826
H   H282      1.0  0.39730  0.80130  0.75760  1.0000 0.1099236826
H   H283      1.0  0.55130  0.29370  0.90400  1.0000 0.1099236826
H   H284      1.0  0.04370  0.63970  0.24240  1.0000 0.1099236826
H   H285      1.0  0.88970  0.79370  0.74240  1.0000 0.1099236826
H   H286      1.0  0.05130  0.14730  0.25760  1.0000 0.1099236826
H   H287      1.0  0.54370  0.30130  0.40400  1.0000 0.1099236826
H   H288      1.0  0.89730  0.13970  0.59600  1.0000 0.1099236826
C   C1        1.0  0.15284  0.79444  0.40680  1.0000 -0.0469491596
C   C2        1.0  0.38764  0.74604  0.59320  1.0000 -0.0469491596
C   C3        1.0  0.54444  0.63764  0.14160  1.0000 -0.0469491596
C   C4        1.0  0.49604  0.40284  0.85840  1.0000 -0.0469491596
C   C5        1.0  0.65284  0.24604  0.35840  1.0000 -0.0469491596
C   C6        1.0  0.99604  0.13764  0.09320  1.0000 -0.0469491596
C   C7        1.0  0.88764  0.29444  0.64160  1.0000 -0.0469491596
C   C8        1.0  0.04444  0.90284  0.90680  1.0000 -0.0469491596
C   C9        1.0  0.10082  0.80482  0.39760  1.0000 -0.0933007895
C   C10       1.0  0.40722  0.70322  0.60240  1.0000 -0.0933007895
C   C11       1.0  0.55482  0.65722  0.20400  1.0000 -0.0933007895
C   C12       1.0  0.45322  0.35082  0.79600  1.0000 -0.0933007895
C   C13       1.0  0.60082  0.20322  0.29600  1.0000 -0.0933007895
C   C14       1.0  0.95322  0.15722  0.10240  1.0000 -0.0933007895
C   C15       1.0  0.90722  0.30482  0.70400  1.0000 -0.0933007895
C   C16       1.0  0.05482  0.85082  0.89760  1.0000 -0.0933007895
C   C17       1.0  0.05071  0.76021  0.26410  1.0000 0.1035982008
C   C18       1.0  0.49611  0.78661  0.73590  1.0000 0.1035982008
C   C19       1.0  0.51021  0.74611  0.20950  1.0000 0.1035982008
C   C20       1.0  0.53661  0.30071  0.79050  1.0000 0.1035982008
C   C21       1.0  0.55071  0.28661  0.29050  1.0000 0.1035982008
C   C22       1.0  0.03661  0.24611  0.23590  1.0000 0.1035982008
C   C23       1.0  0.99611  0.26021  0.70950  1.0000 0.1035982008
C   C24       1.0  0.01021  0.80071  0.76410  1.0000 0.1035982008
C   C25       1.0  0.96079  0.78579  0.26180  1.0000 0.1308441749
C   C26       1.0  0.52399  0.69899  0.73820  1.0000 0.1308441749
C   C27       1.0  0.53579  0.77399  0.32500  1.0000 0.1308441749
C   C28       1.0  0.44899  0.21079  0.67500  1.0000 0.1308441749
C   C29       1.0  0.46079  0.19899  0.17500  1.0000 0.1308441749
C   C30       1.0  0.94899  0.27399  0.23820  1.0000 0.1308441749
C   C31       1.0  0.02399  0.28579  0.82500  1.0000 0.1308441749
C   C32       1.0  0.03579  0.71079  0.76180  1.0000 0.1308441749
C   C33       1.0  0.94877  0.83617  0.32260  1.0000 -0.1311846375
C   C34       1.0  0.51357  0.62617  0.67740  1.0000 -0.1311846375
C   C35       1.0  0.58617  0.76357  0.38740  1.0000 -0.1311846375
C   C36       1.0  0.37617  0.19877  0.61260  1.0000 -0.1311846375
C   C37       1.0  0.44877  0.12617  0.11260  1.0000 -0.1311846375
C   C38       1.0  0.87617  0.26357  0.17740  1.0000 -0.1311846375
C   C39       1.0  0.01357  0.33617  0.88740  1.0000 -0.1311846375
C   C40       1.0  0.08617  0.69877  0.82260  1.0000 -0.1311846375
C   C41       1.0  0.87660  0.83950  0.27870  1.0000 -0.1809711037
C   C42       1.0  0.56080  0.59790  0.72130  1.0000 -0.1809711037
C   C43       1.0  0.58950  0.81080  0.46290  1.0000 -0.1809711037
C   C44       1.0  0.34790  0.12660  0.53710  1.0000 -0.1809711037
C   C45       1.0  0.37660  0.09790  0.03710  1.0000 -0.1809711037
C   C46       1.0  0.84790  0.31080  0.22130  1.0000 -0.1809711037
C   C47       1.0  0.06080  0.33950  0.96290  1.0000 -0.1809711037
C   C48       1.0  0.08950  0.62660  0.77870  1.0000 -0.1809711037
C   C49       1.0  0.82104  0.79314  0.17850  1.0000 0.2233927279
C   C50       1.0  0.61464  0.64254  0.82150  1.0000 0.2233927279
C   C51       1.0  0.54314  0.86464  0.47210  1.0000 0.2233927279
C   C52       1.0  0.39254  0.07104  0.52790  1.0000 0.2233927279
C   C53       1.0  0.32104  0.14254  0.02790  1.0000 0.2233927279
C   C54       1.0  0.89254  0.36464  0.32150  1.0000 0.2233927279
C   C55       1.0  0.11464  0.29314  0.97210  1.0000 0.2233927279
C   C56       1.0  0.04314  0.57104  0.67850  1.0000 0.2233927279
C   C57       1.0  0.83462  0.73872  0.11690  1.0000 -0.1809711037
C   C58       1.0  0.62182  0.71772  0.88310  1.0000 -0.1809711037
C   C59       1.0  0.48872  0.87182  0.40410  1.0000 -0.1809711037
C   C60       1.0  0.46772  0.08462  0.59590  1.0000 -0.1809711037
C   C61       1.0  0.33462  0.21772  0.09590  1.0000 -0.1809711037
C   C62       1.0  0.96772  0.37182  0.38310  1.0000 -0.1809711037
C   C63       1.0  0.12182  0.23872  0.90410  1.0000 -0.1809711037
C   C64       1.0  0.98872  0.58462  0.61690  1.0000 -0.1809711037
C   C65       1.0  0.90583  0.73643  0.16020  1.0000 -0.1685999501
C   C66       1.0  0.57623  0.74563  0.83980  1.0000 -0.1685999501
C   C67       1.0  0.48643  0.82623  0.33060  1.0000 -0.1685999501
C   C68       1.0  0.49563  0.15583  0.66940  1.0000 -0.1685999501
C   C69       1.0  0.40583  0.24563  0.16940  1.0000 -0.1685999501
C   C70       1.0  0.99563  0.32623  0.33980  1.0000 -0.1685999501
C   C71       1.0  0.07623  0.23643  0.83060  1.0000 -0.1685999501
C   C72       1.0  0.98643  0.65583  0.66020  1.0000 -0.1685999501
C   C73       1.0  0.63818  0.68638  0.15640  1.0000 -0.0307612241
C   C74       1.0  0.52998  0.48178  0.84360  1.0000 -0.0307612241
C   C75       1.0  0.43638  0.77998  0.54820  1.0000 -0.0307612241
C   C76       1.0  0.23178  0.88818  0.45180  1.0000 -0.0307612241
C   C77       1.0  0.13818  0.98178  0.95180  1.0000 -0.0307612241
C   C78       1.0  0.73178  0.27998  0.34360  1.0000 -0.0307612241
C   C79       1.0  0.02998  0.18638  0.04820  1.0000 -0.0307612241
C   C80       1.0  0.93638  0.38818  0.65640  1.0000 -0.0307612241
C   C81       1.0  0.68518  0.69568  0.17350  1.0000 -0.1069949554
C   C82       1.0  0.52218  0.51168  0.82650  1.0000 -0.1069949554
C   C83       1.0  0.44568  0.77218  0.51050  1.0000 -0.1069949554
C   C84       1.0  0.26168  0.93518  0.48950  1.0000 -0.1069949554
C   C85       1.0  0.18518  0.01168  0.98950  1.0000 -0.1069949554
C   C86       1.0  0.76168  0.27218  0.32650  1.0000 -0.1069949554
C   C87       1.0  0.02218  0.19568  0.01050  1.0000 -0.1069949554
C   C88       1.0  0.94568  0.43518  0.67350  1.0000 -0.1069949554
C   C89       1.0  0.57913  0.72663  0.09270  1.0000 0.1099236826
C   C90       1.0  0.63393  0.48643  0.90730  1.0000 0.1099236826
C   C91       1.0  0.47663  0.88393  0.64750  1.0000 0.1099236826
C   C92       1.0  0.23643  0.82913  0.35250  1.0000 0.1099236826
C   C93       1.0  0.07913  0.98643  0.85250  1.0000 0.1099236826
C   C94       1.0  0.73643  0.38393  0.40730  1.0000 0.1099236826
C   C95       1.0  0.13393  0.22663  0.14750  1.0000 0.1099236826
C   C96       1.0  0.97663  0.32913  0.59270  1.0000 0.1099236826
C   C97       1.0  0.67388  0.73968  0.13180  1.0000 0.1308441749
C   C98       1.0  0.60788  0.54208  0.86820  1.0000 0.1308441749
C   C99       1.0  0.48968  0.85788  0.56580  1.0000 0.1308441749
C   C100      1.0  0.29208  0.92388  0.43420  1.0000 0.1308441749
C   C101      1.0  0.17388  0.04208  0.93420  1.0000 0.1308441749
C   C102      1.0  0.79208  0.35788  0.36820  1.0000 0.1308441749
C   C103      1.0  0.10788  0.23968  0.06580  1.0000 0.1308441749
C   C104      1.0  0.98968  0.42388  0.63180  1.0000 0.1308441749
C   C105      1.0  0.73308  0.70738  0.13930  1.0000 -0.1598668191
C   C106      1.0  0.56808  0.59378  0.86070  1.0000 -0.1598668191
C   C107      1.0  0.45738  0.81808  0.47430  1.0000 -0.1598668191
C   C108      1.0  0.34378  0.98308  0.52570  1.0000 -0.1598668191
C   C109      1.0  0.23308  0.09378  0.02570  1.0000 -0.1598668191
C   C110      1.0  0.84378  0.31808  0.36070  1.0000 -0.1598668191
C   C111      1.0  0.06808  0.20738  0.97430  1.0000 -0.1598668191
C   C112      1.0  0.95738  0.48308  0.63930  1.0000 -0.1598668191
C   C113      1.0  0.76052  0.72782  0.14270  1.0000 -0.1853877603
C   C114      1.0  0.58512  0.61782  0.85730  1.0000 -0.1853877603
C   C115      1.0  0.47782  0.83512  0.46730  1.0000 -0.1853877603
C   C116      1.0  0.36782  0.01052  0.53270  1.0000 -0.1853877603
C   C117      1.0  0.26052  0.11782  0.03270  1.0000 -0.1853877603
C   C118      1.0  0.86782  0.33512  0.35730  1.0000 -0.1853877603
C   C119      1.0  0.08512  0.22782  0.96730  1.0000 -0.1853877603
C   C120      1.0  0.97782  0.51052  0.64270  1.0000 -0.1853877603
C   C121      1.0  0.72748  0.77958  0.13710  1.0000 0.2316223085
C   C122      1.0  0.64248  0.59038  0.86290  1.0000 0.2316223085
C   C123      1.0  0.52958  0.89248  0.55210  1.0000 0.2316223085
C   C124      1.0  0.34038  0.97748  0.44790  1.0000 0.2316223085
C   C125      1.0  0.22748  0.09038  0.94790  1.0000 0.2316223085
C   C126      1.0  0.84038  0.39248  0.36290  1.0000 0.2316223085
C   C127      1.0  0.14248  0.27958  0.05210  1.0000 0.2316223085
C   C128      1.0  0.02958  0.47748  0.63710  1.0000 0.2316223085
C   C129      1.0  0.66826  0.81056  0.12830  1.0000 -0.1685999501
C   C130      1.0  0.68226  0.53996  0.87170  1.0000 -0.1685999501
C   C131      1.0  0.56056  0.93226  0.64230  1.0000 -0.1685999501
C   C132      1.0  0.28996  0.91826  0.35770  1.0000 -0.1685999501
C   C133      1.0  0.16826  0.03996  0.85770  1.0000 -0.1685999501
C   C134      1.0  0.78996  0.43226  0.37170  1.0000 -0.1685999501
C   C135      1.0  0.18226  0.31056  0.14230  1.0000 -0.1685999501
C   C136      1.0  0.06056  0.41826  0.62830  1.0000 -0.1685999501
C   C137      1.0  0.64117  0.79177  0.12620  1.0000 -0.1809711037
C   C138      1.0  0.66557  0.51497  0.87380  1.0000 -0.1809711037
C   C139      1.0  0.54177  0.91557  0.65060  1.0000 -0.1809711037
C   C140      1.0  0.26497  0.89117  0.34940  1.0000 -0.1809711037
C   C141      1.0  0.14117  0.01497  0.84940  1.0000 -0.1809711037
C   C142      1.0  0.76497  0.41557  0.37380  1.0000 -0.1809711037
C   C143      1.0  0.16557  0.29177  0.15060  1.0000 -0.1809711037
C   C144      1.0  0.04177  0.39117  0.62620  1.0000 -0.1809711037
C   C145      1.0  0.05043  0.63423  0.07120  1.0000 0.5415352509
C   C146      1.0  0.56303  0.97923  0.92880  1.0000 0.5415352509
C   C147      1.0  0.38423  0.81303  0.08380  1.0000 0.5415352509
C   C148      1.0  0.72923  0.30043  0.91620  1.0000 0.5415352509
C   C149      1.0  0.55043  0.47923  0.41620  1.0000 0.5415352509
C   C150      1.0  0.22923  0.31303  0.42880  1.0000 0.5415352509
C   C151      1.0  0.06303  0.13423  0.58380  1.0000 0.5415352509
C   C152      1.0  0.88423  0.80043  0.57120  1.0000 0.5415352509
C   C153      1.0  0.98321  0.59461  0.96360  1.0000 -0.0208874384
C   C154      1.0  0.63101  0.01961  0.03640  1.0000 -0.0208874384
C   C155      1.0  0.34461  0.88101  0.11140  1.0000 -0.0208874384
C   C156      1.0  0.76961  0.23321  0.88860  1.0000 -0.0208874384
C   C157      1.0  0.48321  0.51961  0.38860  1.0000 -0.0208874384
C   C158      1.0  0.26961  0.38101  0.53640  1.0000 -0.0208874384
C   C159      1.0  0.13101  0.09461  0.61140  1.0000 -0.0208874384
C   C160      1.0  0.84461  0.73321  0.46360  1.0000 -0.0208874384
C   C161      1.0  0.94650  0.53430  0.90020  1.0000 -0.1069949554
C   C162      1.0  0.63410  0.04630  0.09980  1.0000 -0.1069949554
C   C163      1.0  0.28430  0.88410  0.08780  1.0000 -0.1069949554
C   C164      1.0  0.79630  0.19650  0.91220  1.0000 -0.1069949554
C   C165      1.0  0.44650  0.54630  0.41220  1.0000 -0.1069949554
C   C166      1.0  0.29630  0.38410  0.59980  1.0000 -0.1069949554
C   C167      1.0  0.13410  0.03430  0.58780  1.0000 -0.1069949554
C   C168      1.0  0.78430  0.69650  0.40020  1.0000 -0.1069949554
C   C169      1.0  0.95609  0.61729  0.92460  1.0000 -0.1069949554
C   C170      1.0  0.69269  0.03149  0.07540  1.0000 -0.1069949554
C   C171      1.0  0.36729  0.94269  0.16120  1.0000 -0.1069949554
C   C172      1.0  0.78149  0.20609  0.83880  1.0000 -0.1069949554
C   C173      1.0  0.45609  0.53149  0.33880  1.0000 -0.1069949554
C   C174      1.0  0.28149  0.44269  0.57540  1.0000 -0.1069949554
C   C175      1.0  0.19269  0.11729  0.66120  1.0000 -0.1069949554
C   C176      1.0  0.86729  0.70609  0.42460  1.0000 -0.1069949554
C   C177      1.0  0.79121  0.47991  0.65270  1.0000 0.5256902874
C   C178      1.0  0.82721  0.13851  0.34730  1.0000 0.5256902874
C   C179      1.0  0.22991  0.07721  0.18870  1.0000 0.5256902874
C   C180      1.0  0.88851  0.04121  0.81130  1.0000 0.5256902874
C   C181      1.0  0.29121  0.63851  0.31130  1.0000 0.5256902874
C   C182      1.0  0.38851  0.57721  0.84730  1.0000 0.5256902874
C   C183      1.0  0.32721  0.97991  0.68870  1.0000 0.5256902874
C   C184      1.0  0.72991  0.54121  0.15270  1.0000 0.5256902874
C   C185      1.0  0.85784  0.51984  0.76080  1.0000 -0.0208874384
C   C186      1.0  0.75904  0.09704  0.23920  1.0000 -0.0208874384
C   C187      1.0  0.26984  0.00904  0.16200  1.0000 -0.0208874384
C   C188      1.0  0.84704  0.10784  0.83800  1.0000 -0.0208874384
C   C189      1.0  0.35784  0.59704  0.33800  1.0000 -0.0208874384
C   C190      1.0  0.34704  0.50904  0.73920  1.0000 -0.0208874384
C   C191      1.0  0.25904  0.01984  0.66200  1.0000 -0.0208874384
C   C192      1.0  0.76984  0.60784  0.26080  1.0000 -0.0208874384
C   C193      1.0  0.89338  0.58098  0.82440  1.0000 -0.1192601788
C   C194      1.0  0.75658  0.06898  0.17560  1.0000 -0.1192601788
C   C195      1.0  0.33098  0.00658  0.18760  1.0000 -0.1192601788
C   C196      1.0  0.81898  0.14338  0.81240  1.0000 -0.1192601788
C   C197      1.0  0.39338  0.56898  0.31240  1.0000 -0.1192601788
C   C198      1.0  0.31898  0.50658  0.67560  1.0000 -0.1192601788
C   C199      1.0  0.25658  0.08098  0.68760  1.0000 -0.1192601788
C   C200      1.0  0.83098  0.64338  0.32440  1.0000 -0.1192601788
C   C201      1.0  0.88414  0.49681  0.79913  1.0000 -0.1192601788
C   C202      1.0  0.69768  0.08501  0.20087  1.0000 -0.1192601788
C   C203      1.0  0.24681  0.94768  0.11267  1.0000 -0.1192601788
C   C204      1.0  0.83501  0.13414  0.88733  1.0000 -0.1192601788
C   C205      1.0  0.38414  0.58501  0.38733  1.0000 -0.1192601788
C   C206      1.0  0.33501  0.44768  0.70087  1.0000 -0.1192601788
C   C207      1.0  0.19768  0.99681  0.61267  1.0000 -0.1192601788
C   C208      1.0  0.74681  0.63414  0.29913  1.0000 -0.1192601788
C   C209      1.0  0.09716  0.00396  0.14160  1.0000 -0.0469491596
C   C210      1.0  0.75396  0.11236  0.40680  1.0000 -0.0469491596
C   C211      1.0  0.86236  0.95556  0.85840  1.0000 -0.0469491596
C   C212      1.0  0.70556  0.34716  0.59320  1.0000 -0.0469491596
C   C213      1.0  0.59716  0.45556  0.09320  1.0000 -0.0469491596
C   C214      1.0  0.36236  0.50396  0.90680  1.0000 -0.0469491596
C   C215      1.0  0.20556  0.61236  0.35840  1.0000 -0.0469491596
C   C216      1.0  0.25396  0.84716  0.64160  1.0000 -0.0469491596
C   C217      1.0  0.14918  0.04678  0.20400  1.0000 -0.0933007895
C   C218      1.0  0.79678  0.09278  0.39760  1.0000 -0.0933007895
C   C219      1.0  0.84278  0.94518  0.79600  1.0000 -0.0933007895
C   C220      1.0  0.69518  0.39918  0.60240  1.0000 -0.0933007895
C   C221      1.0  0.64918  0.44518  0.10240  1.0000 -0.0933007895
C   C222      1.0  0.34278  0.54678  0.89760  1.0000 -0.0933007895
C   C223      1.0  0.19518  0.59278  0.29600  1.0000 -0.0933007895
C   C224      1.0  0.29678  0.89918  0.70400  1.0000 -0.0933007895
C   C225      1.0  0.19929  0.96339  0.20950  1.0000 0.1035982008
C   C226      1.0  0.71339  0.00389  0.26410  1.0000 0.1035982008
C   C227      1.0  0.75389  0.98979  0.79050  1.0000 0.1035982008
C   C228      1.0  0.73979  0.44929  0.73590  1.0000 0.1035982008
C   C229      1.0  0.69929  0.48979  0.23590  1.0000 0.1035982008
C   C230      1.0  0.25389  0.46339  0.76410  1.0000 0.1035982008
C   C231      1.0  0.23979  0.50389  0.29050  1.0000 0.1035982008
C   C232      1.0  0.21339  0.94929  0.70950  1.0000 0.1035982008
C   C233      1.0  0.28921  0.05101  0.32500  1.0000 0.1308441749
C   C234      1.0  0.80101  0.97601  0.26180  1.0000 0.1308441749
C   C235      1.0  0.72601  0.96421  0.67500  1.0000 0.1308441749
C   C236      1.0  0.71421  0.53921  0.73820  1.0000 0.1308441749
C   C237      1.0  0.78921  0.46421  0.23820  1.0000 0.1308441749
C   C238      1.0  0.22601  0.55101  0.76180  1.0000 0.1308441749
C   C239      1.0  0.21421  0.47601  0.17500  1.0000 0.1308441749
C   C240      1.0  0.30101  0.03921  0.82500  1.0000 0.1308441749
C   C241      1.0  0.30123  0.12383  0.38740  1.0000 -0.1311846375
C   C242      1.0  0.87383  0.98643  0.32260  1.0000 -0.1311846375
C   C243      1.0  0.73643  0.91383  0.61260  1.0000 -0.1311846375
C   C244      1.0  0.66383  0.55123  0.67740  1.0000 -0.1311846375
C   C245      1.0  0.80123  0.41383  0.17740  1.0000 -0.1311846375
C   C246      1.0  0.23643  0.62383  0.82260  1.0000 -0.1311846375
C   C247      1.0  0.16383  0.48643  0.11260  1.0000 -0.1311846375
C   C248      1.0  0.37383  0.05123  0.88740  1.0000 -0.1311846375
C   C249      1.0  0.37340  0.15210  0.46290  1.0000 -0.1809711037
C   C250      1.0  0.90210  0.93920  0.27870  1.0000 -0.1809711037
C   C251      1.0  0.68920  0.91050  0.53710  1.0000 -0.1809711037
C   C252      1.0  0.66050  0.62340  0.72130  1.0000 -0.1809711037
C   C253      1.0  0.87340  0.41050  0.22130  1.0000 -0.1809711037
C   C254      1.0  0.18920  0.65210  0.77870  1.0000 -0.1809711037
C   C255      1.0  0.16050  0.43920  0.03710  1.0000 -0.1809711037
C   C256      1.0  0.40210  0.12340  0.96290  1.0000 -0.1809711037
C   C257      1.0  0.42896  0.10746  0.47210  1.0000 0.2233927279
C   C258      1.0  0.85746  0.88536  0.17850  1.0000 0.2233927279
C   C259      1.0  0.63536  0.95686  0.52790  1.0000 0.2233927279
C   C260      1.0  0.70686  0.67896  0.82150  1.0000 0.2233927279
C   C261      1.0  0.92896  0.45686  0.32150  1.0000 0.2233927279
C   C262      1.0  0.13536  0.60746  0.67850  1.0000 0.2233927279
C   C263      1.0  0.20686  0.38536  0.02790  1.0000 0.2233927279
C   C264      1.0  0.35746  0.17896  0.97210  1.0000 0.2233927279
C   C265      1.0  0.41538  0.03228  0.40410  1.0000 -0.1809711037
C   C266      1.0  0.78228  0.87818  0.11690  1.0000 -0.1809711037
C   C267      1.0  0.62818  0.01128  0.59590  1.0000 -0.1809711037
C   C268      1.0  0.76128  0.66538  0.88310  1.0000 -0.1809711037
C   C269      1.0  0.91538  0.51128  0.38310  1.0000 -0.1809711037
C   C270      1.0  0.12818  0.53228  0.61690  1.0000 -0.1809711037
C   C271      1.0  0.26128  0.37818  0.09590  1.0000 -0.1809711037
C   C272      1.0  0.28228  0.16538  0.90410  1.0000 -0.1809711037
C   C273      1.0  0.34417  0.00437  0.33060  1.0000 -0.1685999501
C   C274      1.0  0.75437  0.92377  0.16020  1.0000 -0.1685999501
C   C275      1.0  0.67377  0.01357  0.66940  1.0000 -0.1685999501
C   C276      1.0  0.76357  0.59417  0.83980  1.0000 -0.1685999501
C   C277      1.0  0.84417  0.51357  0.33980  1.0000 -0.1685999501
C   C278      1.0  0.17377  0.50437  0.66020  1.0000 -0.1685999501
C   C279      1.0  0.26357  0.42377  0.16940  1.0000 -0.1685999501
C   C280      1.0  0.25437  0.09417  0.83060  1.0000 -0.1685999501
C   C281      1.0  0.61182  0.26822  0.54820  1.0000 -0.0307612241
C   C282      1.0  0.01822  0.97002  0.15640  1.0000 -0.0307612241
C   C283      1.0  0.72002  0.06362  0.45180  1.0000 -0.0307612241
C   C284      1.0  0.81362  0.86182  0.84360  1.0000 -0.0307612241
C   C285      1.0  0.11182  0.56362  0.34360  1.0000 -0.0307612241
C   C286      1.0  0.22002  0.76822  0.65640  1.0000 -0.0307612241
C   C287      1.0  0.31362  0.47002  0.95180  1.0000 -0.0307612241
C   C288      1.0  0.51822  0.36182  0.04820  1.0000 -0.0307612241
C   C289      1.0  0.56482  0.23832  0.51050  1.0000 -0.1069949554
C   C290      1.0  0.98832  0.97782  0.17350  1.0000 -0.1069949554
C   C291      1.0  0.72782  0.05432  0.48950  1.0000 -0.1069949554
C   C292      1.0  0.80432  0.81482  0.82650  1.0000 -0.1069949554
C   C293      1.0  0.06482  0.55432  0.32650  1.0000 -0.1069949554
C   C294      1.0  0.22782  0.73832  0.67350  1.0000 -0.1069949554
C   C295      1.0  0.30432  0.47782  0.98950  1.0000 -0.1069949554
C   C296      1.0  0.48832  0.31482  0.01050  1.0000 -0.1069949554
C   C297      1.0  0.67087  0.26357  0.64750  1.0000 0.1099236826
C   C298      1.0  0.01357  0.86607  0.09270  1.0000 0.1099236826
C   C299      1.0  0.61607  0.02337  0.35250  1.0000 0.1099236826
C   C300      1.0  0.77337  0.92087  0.90730  1.0000 0.1099236826
C   C301      1.0  0.17087  0.52337  0.40730  1.0000 0.1099236826
C   C302      1.0  0.11607  0.76357  0.59270  1.0000 0.1099236826
C   C303      1.0  0.27337  0.36607  0.85250  1.0000 0.1099236826
C   C304      1.0  0.51357  0.42087  0.14750  1.0000 0.1099236826
C   C305      1.0  0.57612  0.20792  0.56580  1.0000 0.1308441749
C   C306      1.0  0.95792  0.89212  0.13180  1.0000 0.1308441749
C   C307      1.0  0.64212  0.01032  0.43420  1.0000 0.1308441749
C   C308      1.0  0.76032  0.82612  0.86820  1.0000 0.1308441749
C   C309      1.0  0.07612  0.51032  0.36820  1.0000 0.1308441749
C   C310      1.0  0.14212  0.70792  0.63180  1.0000 0.1308441749
C   C311      1.0  0.26032  0.39212  0.93420  1.0000 0.1308441749
C   C312      1.0  0.45792  0.32612  0.06580  1.0000 0.1308441749
C   C313      1.0  0.51692  0.15622  0.47430  1.0000 -0.1598668191
C   C314      1.0  0.90622  0.93192  0.13930  1.0000 -0.1598668191
C   C315      1.0  0.68192  0.04262  0.52570  1.0000 -0.1598668191
C   C316      1.0  0.79262  0.76692  0.86070  1.0000 -0.1598668191
C   C317      1.0  0.01692  0.54262  0.36070  1.0000 -0.1598668191
C   C318      1.0  0.18192  0.65622  0.63930  1.0000 -0.1598668191
C   C319      1.0  0.29262  0.43192  0.02570  1.0000 -0.1598668191
C   C320      1.0  0.40622  0.26692  0.97430  1.0000 -0.1598668191
C   C321      1.0  0.48948  0.13218  0.46730  1.0000 -0.1853877603
C   C322      1.0  0.88218  0.91488  0.14270  1.0000 -0.1853877603
C   C323      1.0  0.66488  0.02218  0.53270  1.0000 -0.1853877603
C   C324      1.0  0.77218  0.73948  0.85730  1.0000 -0.1853877603
C   C325      1.0  0.98948  0.52218  0.35730  1.0000 -0.1853877603
C   C326      1.0  0.16488  0.63218  0.64270  1.0000 -0.1853877603
C   C327      1.0  0.27218  0.41488  0.03270  1.0000 -0.1853877603
C   C328      1.0  0.38218  0.23948  0.96730  1.0000 -0.1853877603
C   C329      1.0  0.52252  0.15962  0.55210  1.0000 0.2316223085
C   C330      1.0  0.90962  0.85752  0.13710  1.0000 0.2316223085
C   C331      1.0  0.60752  0.97042  0.44790  1.0000 0.2316223085
C   C332      1.0  0.72042  0.77252  0.86290  1.0000 0.2316223085
C   C333      1.0  0.02252  0.47042  0.36290  1.0000 0.2316223085
C   C334      1.0  0.10752  0.65962  0.63710  1.0000 0.2316223085
C   C335      1.0  0.22042  0.35752  0.94790  1.0000 0.2316223085
C   C336      1.0  0.40962  0.27252  0.05210  1.0000 0.2316223085
C   C337      1.0  0.58174  0.21004  0.64230  1.0000 -0.1685999501
C   C338      1.0  0.96004  0.81774  0.12830  1.0000 -0.1685999501
C   C339      1.0  0.56774  0.93944  0.35770  1.0000 -0.1685999501
C   C340      1.0  0.68944  0.83174  0.87170  1.0000 -0.1685999501
C   C341      1.0  0.08174  0.43944  0.37170  1.0000 -0.1685999501
C   C342      1.0  0.06774  0.71004  0.62830  1.0000 -0.1685999501
C   C343      1.0  0.18944  0.31774  0.85770  1.0000 -0.1685999501
C   C344      1.0  0.46004  0.33174  0.14230  1.0000 -0.1685999501
C   C345      1.0  0.60883  0.23503  0.65060  1.0000 -0.1809711037
C   C346      1.0  0.98503  0.83443  0.12620  1.0000 -0.1809711037
C   C347      1.0  0.58443  0.95823  0.34940  1.0000 -0.1809711037
C   C348      1.0  0.70823  0.85883  0.87380  1.0000 -0.1809711037
C   C349      1.0  0.10883  0.45823  0.37380  1.0000 -0.1809711037
C   C350      1.0  0.08443  0.73503  0.62620  1.0000 -0.1809711037
C   C351      1.0  0.20823  0.33443  0.84940  1.0000 -0.1809711037
C   C352      1.0  0.48503  0.35883  0.15060  1.0000 -0.1809711037
C   C353      1.0  0.19957  0.77077  0.08380  1.0000 0.5415352509
C   C354      1.0  0.52077  0.93697  0.07120  1.0000 0.5415352509
C   C355      1.0  0.68697  0.11577  0.91620  1.0000 0.5415352509
C   C356      1.0  0.86577  0.44957  0.92880  1.0000 0.5415352509
C   C357      1.0  0.69957  0.61577  0.42880  1.0000 0.5415352509
C   C358      1.0  0.18697  0.27077  0.57120  1.0000 0.5415352509
C   C359      1.0  0.36577  0.43697  0.41620  1.0000 0.5415352509
C   C360      1.0  0.02077  0.94957  0.58380  1.0000 0.5415352509
C   C361      1.0  0.26679  0.73039  0.11140  1.0000 -0.0208874384
C   C362      1.0  0.48039  0.86899  0.96360  1.0000 -0.0208874384
C   C363      1.0  0.61899  0.15539  0.88860  1.0000 -0.0208874384
C   C364      1.0  0.90539  0.51679  0.03640  1.0000 -0.0208874384
C   C365      1.0  0.76679  0.65539  0.53640  1.0000 -0.0208874384
C   C366      1.0  0.11899  0.23039  0.46360  1.0000 -0.0208874384
C   C367      1.0  0.40539  0.36899  0.38860  1.0000 -0.0208874384
C   C368      1.0  0.98039  0.01679  0.61140  1.0000 -0.0208874384
C   C369      1.0  0.30350  0.70370  0.08780  1.0000 -0.1069949554
C   C370      1.0  0.45370  0.86590  0.90020  1.0000 -0.1069949554
C   C371      1.0  0.61590  0.21570  0.91220  1.0000 -0.1069949554
C   C372      1.0  0.96570  0.55350  0.09980  1.0000 -0.1069949554
C   C373      1.0  0.80350  0.71570  0.59980  1.0000 -0.1069949554
C   C374      1.0  0.11590  0.20370  0.40020  1.0000 -0.1069949554
C   C375      1.0  0.46570  0.36590  0.41220  1.0000 -0.1069949554
C   C376      1.0  0.95370  0.05350  0.58780  1.0000 -0.1069949554
C   C377      1.0  0.29391  0.71851  0.16120  1.0000 -0.1069949554
C   C378      1.0  0.46851  0.80731  0.92460  1.0000 -0.1069949554
C   C379      1.0  0.55731  0.13271  0.83880  1.0000 -0.1069949554
C   C380      1.0  0.88271  0.54391  0.07540  1.0000 -0.1069949554
C   C381      1.0  0.79391  0.63271  0.57540  1.0000 -0.1069949554
C   C382      1.0  0.05731  0.21851  0.42460  1.0000 -0.1069949554
C   C383      1.0  0.38271  0.30731  0.33880  1.0000 -0.1069949554
C   C384      1.0  0.96851  0.04391  0.66120  1.0000 -0.1069949554
C   C385      1.0  0.45879  0.61149  0.18870  1.0000 0.5256902874
C   C386      1.0  0.36149  0.67279  0.65270  1.0000 0.5256902874
C   C387      1.0  0.42279  0.27009  0.81130  1.0000 0.5256902874
C   C388      1.0  0.02009  0.70879  0.34730  1.0000 0.5256902874
C   C389      1.0  0.95879  0.77009  0.84730  1.0000 0.5256902874
C   C390      1.0  0.92279  0.11149  0.15270  1.0000 0.5256902874
C   C391      1.0  0.52009  0.17279  0.31130  1.0000 0.5256902874
C   C392      1.0  0.86149  0.20879  0.68870  1.0000 0.5256902874
C   C393      1.0  0.39216  0.65296  0.16200  1.0000 -0.0208874384
C   C394      1.0  0.40296  0.74096  0.76080  1.0000 -0.0208874384
C   C395      1.0  0.49096  0.23016  0.83800  1.0000 -0.0208874384
C   C396      1.0  0.98016  0.64216  0.23920  1.0000 -0.0208874384
C   C397      1.0  0.89216  0.73016  0.73920  1.0000 -0.0208874384
C   C398      1.0  0.99096  0.15296  0.26080  1.0000 -0.0208874384
C   C399      1.0  0.48016  0.24096  0.33800  1.0000 -0.0208874384
C   C400      1.0  0.90296  0.14216  0.66200  1.0000 -0.0208874384
C   C401      1.0  0.35662  0.68102  0.18760  1.0000 -0.1192601788
C   C402      1.0  0.43102  0.74342  0.82440  1.0000 -0.1192601788
C   C403      1.0  0.49342  0.16902  0.81240  1.0000 -0.1192601788
C   C404      1.0  0.91902  0.60662  0.17560  1.0000 -0.1192601788
C   C405      1.0  0.85662  0.66902  0.67560  1.0000 -0.1192601788
C   C406      1.0  0.99342  0.18102  0.32440  1.0000 -0.1192601788
C   C407      1.0  0.41902  0.24342  0.31240  1.0000 -0.1192601788
C   C408      1.0  0.93102  0.10662  0.68760  1.0000 -0.1192601788
C   C409      1.0  0.36586  0.66499  0.11267  1.0000 -0.1192601788
C   C410      1.0  0.41499  0.80232  0.79913  1.0000 -0.1192601788
C   C411      1.0  0.55232  0.25319  0.88733  1.0000 -0.1192601788
C   C412      1.0  0.00319  0.61586  0.20087  1.0000 -0.1192601788
C   C413      1.0  0.86586  0.75319  0.70087  1.0000 -0.1192601788
C   C414      1.0  0.05232  0.16499  0.29913  1.0000 -0.1192601788
C   C415      1.0  0.50319  0.30232  0.38733  1.0000 -0.1192601788
C   C416      1.0  0.91499  0.11586  0.61267  1.0000 -0.1192601788
N   N1        1.0  0.12165  0.76685  0.32300  1.0000 -0.2862426508
N   N2        1.0  0.44385  0.79865  0.67700  1.0000 -0.2862426508
N   N3        1.0  0.51685  0.69385  0.14520  1.0000 -0.2862426508
N   N4        1.0  0.54865  0.37165  0.85480  1.0000 -0.2862426508
N   N5        1.0  0.62165  0.29865  0.35480  1.0000 -0.2862426508
N   N6        1.0  0.04865  0.19385  0.17700  1.0000 -0.2862426508
N   N7        1.0  0.94385  0.26685  0.64520  1.0000 -0.2862426508
N   N8        1.0  0.01685  0.87165  0.82300  1.0000 -0.2862426508
N   N9        1.0  0.03458  0.78419  0.30675  1.0000 0.0075808764
N   N10       1.0  0.47744  0.72783  0.69325  1.0000 0.0075808764
N   N11       1.0  0.53419  0.72744  0.24961  1.0000 0.0075808764
N   N12       1.0  0.47783  0.28458  0.75039  1.0000 0.0075808764
N   N13       1.0  0.53458  0.22783  0.25039  1.0000 0.0075808764
N   N14       1.0  0.97783  0.22744  0.19325  1.0000 0.0075808764
N   N15       1.0  0.97744  0.28419  0.74961  1.0000 0.0075808764
N   N16       1.0  0.03419  0.78458  0.80675  1.0000 0.0075808764
N   N17       1.0  0.57075  0.70425  0.10270  1.0000 -0.2750977575
N   N18       1.0  0.60155  0.46805  0.89730  1.0000 -0.2750977575
N   N19       1.0  0.45425  0.85155  0.63350  1.0000 -0.2750977575
N   N20       1.0  0.21805  0.82075  0.36650  1.0000 -0.2750977575
N   N21       1.0  0.07075  0.96805  0.86650  1.0000 -0.2750977575
N   N22       1.0  0.71805  0.35155  0.39730  1.0000 -0.2745347917
N   N23       1.0  0.10155  0.20425  0.13350  1.0000 -0.2750977575
N   N24       1.0  0.95425  0.32075  0.60270  1.0000 -0.2745347917
N   N25       1.0  0.64664  0.71884  0.12880  1.0000 0.0044083162
N   N26       1.0  0.59004  0.51784  0.87120  1.0000 0.0044083162
N   N27       1.0  0.46884  0.84004  0.57220  1.0000 0.0044083162
N   N28       1.0  0.26784  0.89664  0.42780  1.0000 0.0044083162
N   N29       1.0  0.14664  0.01784  0.92780  1.0000 0.0044083162
N   N30       1.0  0.76784  0.34004  0.37120  1.0000 0.0044083162
N   N31       1.0  0.09004  0.21884  0.07220  1.0000 0.0044083162
N   N32       1.0  0.96884  0.39664  0.62880  1.0000 0.0044083162
N   N33       1.0  0.12835  0.95135  0.14520  1.0000 -0.2862426508
N   N34       1.0  0.70135  0.05615  0.32300  1.0000 -0.2862426508
N   N35       1.0  0.80615  0.98315  0.85480  1.0000 -0.2862426508
N   N36       1.0  0.73315  0.37835  0.67700  1.0000 -0.2862426508
N   N37       1.0  0.62835  0.48315  0.17700  1.0000 -0.2862426508
N   N38       1.0  0.30615  0.45135  0.82300  1.0000 -0.2862426508
N   N39       1.0  0.23315  0.55615  0.35480  1.0000 -0.2862426508
N   N40       1.0  0.20135  0.87835  0.64520  1.0000 -0.2862426508
N   N41       1.0  0.21542  0.02217  0.24961  1.0000 0.0075808764
N   N42       1.0  0.77217  0.02256  0.30675  1.0000 0.0075808764
N   N43       1.0  0.77256  0.96581  0.75039  1.0000 0.0075808764
N   N44       1.0  0.71581  0.46542  0.69325  1.0000 0.0075808764
N   N45       1.0  0.71542  0.46581  0.19325  1.0000 0.0075808764
N   N46       1.0  0.27256  0.52217  0.80675  1.0000 0.0075808764
N   N47       1.0  0.21581  0.52256  0.25039  1.0000 0.0075808764
N   N48       1.0  0.27217  0.96542  0.74961  1.0000 0.0075808764
N   N49       1.0  0.67925  0.28195  0.63350  1.0000 -0.2745347917
N   N50       1.0  0.03195  0.89845  0.10270  1.0000 -0.2750977575
N   N51       1.0  0.64845  0.04575  0.36650  1.0000 -0.2745347917
N   N52       1.0  0.79575  0.92925  0.89730  1.0000 -0.2750977575
N   N53       1.0  0.17925  0.54575  0.39730  1.0000 -0.2750977575
N   N54       1.0  0.14845  0.78195  0.60270  1.0000 -0.2750977575
N   N55       1.0  0.29575  0.39845  0.86650  1.0000 -0.2750977575
N   N56       1.0  0.53195  0.42925  0.13350  1.0000 -0.2750977575
N   N57       1.0  0.60336  0.23216  0.57220  1.0000 0.0044083162
N   N58       1.0  0.98216  0.90996  0.12880  1.0000 0.0044083162
N   N59       1.0  0.65996  0.03116  0.42780  1.0000 0.0044083162
N   N60       1.0  0.78116  0.85336  0.87120  1.0000 0.0044083162
N   N61       1.0  0.10336  0.53116  0.37120  1.0000 0.0044083162
N   N62       1.0  0.15996  0.73216  0.62880  1.0000 0.0044083162
N   N63       1.0  0.28116  0.40996  0.92780  1.0000 0.0044083162
N   N64       1.0  0.48216  0.35336  0.07220  1.0000 0.0044083162
O   O1        1.0  0.07280  0.61483  0.10631  1.0000 -0.5417137369
O   O2        1.0  0.50852  0.96649  0.89369  1.0000 -0.5417137369
O   O3        1.0  0.36483  0.75852  0.04203  1.0000 -0.5417137369
O   O4        1.0  0.71649  0.32280  0.95797  1.0000 -0.5417137369
O   O5        1.0  0.57280  0.46649  0.45797  1.0000 -0.5417137369
O   O6        1.0  0.21649  0.25852  0.39369  1.0000 -0.5417137369
O   O7        1.0  0.00852  0.11483  0.54203  1.0000 -0.5417137369
O   O8        1.0  0.86483  0.82280  0.60631  1.0000 -0.5417137369
O   O9        1.0  0.08245  0.68798  0.12513  1.0000 -0.5485045761
O   O10       1.0  0.56285  0.95732  0.87487  1.0000 -0.5485045761
O   O11       1.0  0.43798  0.81285  0.10553  1.0000 -0.5485045761
O   O12       1.0  0.70732  0.33245  0.89447  1.0000 -0.5485045761
O   O13       1.0  0.58245  0.45732  0.39447  1.0000 -0.5485045761
O   O14       1.0  0.20732  0.31285  0.37487  1.0000 -0.5485045761
O   O15       1.0  0.06285  0.18798  0.60553  1.0000 -0.5485045761
O   O16       1.0  0.93798  0.83245  0.62513  1.0000 -0.5485045761
O   O17       1.0  0.76620  0.41974  0.59550  1.0000 -0.5417137369
O   O18       1.0  0.82424  0.17070  0.40450  1.0000 -0.5417137369
O   O19       1.0  0.16974  0.07424  0.15354  1.0000 -0.5417137369
O   O20       1.0  0.92070  0.01620  0.84646  1.0000 -0.5417137369
O   O21       1.0  0.26620  0.67070  0.34646  1.0000 -0.5417137369
O   O22       1.0  0.42070  0.57424  0.90450  1.0000 -0.5417137369
O   O23       1.0  0.32424  0.91974  0.65354  1.0000 -0.5417137369
O   O24       1.0  0.66974  0.51620  0.09550  1.0000 -0.5417137369
O   O25       1.0  0.76335  0.50555  0.62124  1.0000 -0.5193746164
O   O26       1.0  0.88431  0.14211  0.37876  1.0000 -0.5193746164
O   O27       1.0  0.25555  0.13431  0.24220  1.0000 -0.5193746164
O   O28       1.0  0.89211  0.01335  0.75780  1.0000 -0.5193746164
O   O29       1.0  0.26335  0.64211  0.25780  1.0000 -0.5193746164
O   O30       1.0  0.39211  0.63431  0.87876  1.0000 -0.5193746164
O   O31       1.0  0.38431  0.00555  0.74220  1.0000 -0.5193746164
O   O32       1.0  0.75555  0.51335  0.12124  1.0000 -0.5193746164
O   O33       1.0  0.74852  0.79907  0.13345  1.0000 -0.2312613576
O   O34       1.0  0.66562  0.61507  0.86655  1.0000 -0.2312613576
O   O35       1.0  0.54907  0.91562  0.55055  1.0000 -0.2312613576
O   O36       1.0  0.36507  0.99852  0.44945  1.0000 -0.2312613576
O   O37       1.0  0.24852  0.11507  0.94945  1.0000 -0.2312613576
O   O38       1.0  0.86507  0.41562  0.36655  1.0000 -0.2312613576
O   O39       1.0  0.16562  0.29907  0.05055  1.0000 -0.2312613576
O   O40       1.0  0.04907  0.49852  0.63345  1.0000 -0.2312613576
O   O41       1.0  0.17720  0.78351  0.04203  1.0000 -0.5417137369
O   O42       1.0  0.53351  0.99148  0.10631  1.0000 -0.5417137369
O   O43       1.0  0.74148  0.13517  0.95797  1.0000 -0.5417137369
O   O44       1.0  0.88517  0.42720  0.89369  1.0000 -0.5417137369
O   O45       1.0  0.67720  0.63517  0.39369  1.0000 -0.5417137369
O   O46       1.0  0.24148  0.28351  0.60631  1.0000 -0.5417137369
O   O47       1.0  0.38517  0.49148  0.45797  1.0000 -0.5417137369
O   O48       1.0  0.03351  0.92720  0.54203  1.0000 -0.5417137369
O   O49       1.0  0.16755  0.79268  0.10553  1.0000 -0.5485045761
O   O50       1.0  0.54268  0.93715  0.12513  1.0000 -0.5485045761
O   O51       1.0  0.68715  0.06202  0.89447  1.0000 -0.5485045761
O   O52       1.0  0.81202  0.41755  0.87487  1.0000 -0.5485045761
O   O53       1.0  0.66755  0.56202  0.37487  1.0000 -0.5485045761
O   O54       1.0  0.18715  0.29268  0.62513  1.0000 -0.5485045761
O   O55       1.0  0.31202  0.43715  0.39447  1.0000 -0.5485045761
O   O56       1.0  0.04268  0.91755  0.60553  1.0000 -0.5485045761
O   O57       1.0  0.48380  0.57930  0.15354  1.0000 -0.5417137369
O   O58       1.0  0.32930  0.67576  0.59550  1.0000 -0.5417137369
O   O59       1.0  0.42576  0.33026  0.84646  1.0000 -0.5417137369
O   O60       1.0  0.08026  0.73380  0.40450  1.0000 -0.5417137369
O   O61       1.0  0.98380  0.83026  0.90450  1.0000 -0.5417137369
O   O62       1.0  0.92576  0.07930  0.09550  1.0000 -0.5417137369
O   O63       1.0  0.58026  0.17576  0.34646  1.0000 -0.5417137369
O   O64       1.0  0.82930  0.23380  0.65354  1.0000 -0.5417137369
O   O65       1.0  0.48665  0.60789  0.24220  1.0000 -0.5193746164
O   O66       1.0  0.35789  0.61569  0.62124  1.0000 -0.5193746164
O   O67       1.0  0.36569  0.24445  0.75780  1.0000 -0.5193746164
O   O68       1.0  0.99445  0.73665  0.37876  1.0000 -0.5193746164
O   O69       1.0  0.98665  0.74445  0.87876  1.0000 -0.5193746164
O   O70       1.0  0.86569  0.10789  0.12124  1.0000 -0.5193746164
O   O71       1.0  0.49445  0.11569  0.25780  1.0000 -0.5193746164
O   O72       1.0  0.85789  0.23665  0.74220  1.0000 -0.5193746164
O   O73       1.0  0.50148  0.13493  0.55055  1.0000 -0.2312613576
O   O74       1.0  0.88493  0.83438  0.13345  1.0000 -0.2312613576
O   O75       1.0  0.58438  0.95093  0.44945  1.0000 -0.2312613576
O   O76       1.0  0.70093  0.75148  0.86655  1.0000 -0.2312613576
O   O77       1.0  0.00148  0.45093  0.36655  1.0000 -0.2312613576
O   O78       1.0  0.08438  0.63493  0.63345  1.0000 -0.2312613576
O   O79       1.0  0.20093  0.33438  0.94945  1.0000 -0.2312613576
O   O80       1.0  0.38493  0.25148  0.05055  1.0000 -0.2312613576
