# DDEC6 charges by PACMAN v1.1 (https://github.com/mtap-research/PACMAN-charge/)
data_2010[Zn][srs]3[FSR]5
_chemical_formula_sum              "Zn24 H192 C288 I48 N96"
_cell_length_a       13.812
_cell_length_b       27.54
_cell_length_c       45.022
_cell_angle_alpha    90
_cell_angle_beta     90
_cell_angle_gamma    90

_symmetry_space_group_name_H-M    "P 1"
_symmetry_Int_Tables_number       1

loop_
  _symmetry_equiv_pos_as_xyz
  'x, y, z'

loop_
  _atom_site_type_symbol
  _atom_site_label
  _atom_site_symmetry_multiplicity
  _atom_site_fract_x
  _atom_site_fract_y
  _atom_site_fract_z
  _atom_site_occupancy
  _atom_site_charge
Zn  Zn1       1.0  0.85011  0.45402  0.08331  1.0000 0.4535962301
Zn  Zn2       1.0  0.14989  0.04598  0.58331  1.0000 0.4535962301
Zn  Zn3       1.0  0.35011  0.54598  0.41669  1.0000 0.4535962301
Zn  Zn4       1.0  0.64989  0.95402  0.91669  1.0000 0.4535962301
Zn  Zn5       1.0  0.62268  0.47408  0.91475  1.0000 0.4575003791
Zn  Zn6       1.0  0.37732  0.02592  0.41475  1.0000 0.4575003791
Zn  Zn7       1.0  0.12268  0.52592  0.58525  1.0000 0.4575003791
Zn  Zn8       1.0  0.87732  0.97408  0.08525  1.0000 0.4575003791
Zn  Zn9       1.0  0.32664  0.74238  0.68205  1.0000 0.468509126
Zn  Zn10      1.0  0.67336  0.75762  0.18205  1.0000 0.468509126
Zn  Zn11      1.0  0.82664  0.25762  0.81795  1.0000 0.468509126
Zn  Zn12      1.0  0.17336  0.24238  0.31795  1.0000 0.468509126
Zn  Zn13      1.0  0.14989  0.54598  0.91669  1.0000 0.4535962301
Zn  Zn14      1.0  0.85011  0.95402  0.41669  1.0000 0.4535962301
Zn  Zn15      1.0  0.64989  0.45402  0.58331  1.0000 0.4535962301
Zn  Zn16      1.0  0.35011  0.04598  0.08331  1.0000 0.4535962301
Zn  Zn17      1.0  0.37732  0.52592  0.08525  1.0000 0.4575003791
Zn  Zn18      1.0  0.62268  0.97408  0.58525  1.0000 0.4575003791
Zn  Zn19      1.0  0.87732  0.47408  0.41475  1.0000 0.4575003791
Zn  Zn20      1.0  0.12268  0.02592  0.91475  1.0000 0.4575003791
Zn  Zn21      1.0  0.67336  0.25762  0.31795  1.0000 0.468509126
Zn  Zn22      1.0  0.32664  0.24238  0.81795  1.0000 0.468509126
Zn  Zn23      1.0  0.17336  0.74238  0.18205  1.0000 0.468509126
Zn  Zn24      1.0  0.82664  0.75762  0.68205  1.0000 0.468509126
H   H1        1.0  0.04040  0.47160  0.05400  1.0000 0.1031425762
H   H2        1.0  0.95960  0.02840  0.55400  1.0000 0.1031425762
H   H3        1.0  0.54040  0.52840  0.44600  1.0000 0.1031425762
H   H4        1.0  0.45960  0.97160  0.94600  1.0000 0.1031425762
H   H5        1.0  0.12430  0.45080  0.01070  1.0000 0.1318791763
H   H6        1.0  0.87570  0.04920  0.51070  1.0000 0.1318791763
H   H7        1.0  0.62430  0.54920  0.48930  1.0000 0.1318791763
H   H8        1.0  0.37570  0.95080  0.98930  1.0000 0.1318791763
H   H9        1.0  0.87310  0.39620  0.97770  1.0000 0.1374057946
H   H10       1.0  0.12690  0.10380  0.47770  1.0000 0.1374057946
H   H11       1.0  0.37310  0.60380  0.52230  1.0000 0.1374057946
H   H12       1.0  0.62690  0.89620  0.02230  1.0000 0.1374057946
H   H13       1.0  0.79770  0.42060  0.02100  1.0000 0.109460745
H   H14       1.0  0.20230  0.07940  0.52100  1.0000 0.109460745
H   H15       1.0  0.29770  0.57940  0.47900  1.0000 0.109460745
H   H16       1.0  0.70230  0.92060  0.97900  1.0000 0.109460745
H   H17       1.0  0.47190  0.41720  0.88310  1.0000 0.109460745
H   H18       1.0  0.52810  0.08280  0.38310  1.0000 0.109460745
H   H19       1.0  0.97190  0.58280  0.61690  1.0000 0.109460745
H   H20       1.0  0.02810  0.91720  0.11690  1.0000 0.109460745
H   H21       1.0  0.31210  0.39120  0.88920  1.0000 0.1374057946
H   H22       1.0  0.68790  0.10880  0.38920  1.0000 0.1374057946
H   H23       1.0  0.81210  0.60880  0.61080  1.0000 0.1374057946
H   H24       1.0  0.18790  0.89120  0.11080  1.0000 0.1374057946
H   H25       1.0  0.32660  0.43610  0.97520  1.0000 0.1318791763
H   H26       1.0  0.67340  0.06390  0.47520  1.0000 0.1318791763
H   H27       1.0  0.82660  0.56390  0.52480  1.0000 0.1318791763
H   H28       1.0  0.17340  0.93610  0.02480  1.0000 0.1318791763
H   H29       1.0  0.48210  0.46350  0.96560  1.0000 0.109460745
H   H30       1.0  0.51790  0.03650  0.46560  1.0000 0.109460745
H   H31       1.0  0.98210  0.53650  0.53440  1.0000 0.109460745
H   H32       1.0  0.01790  0.96350  0.03440  1.0000 0.109460745
H   H33       1.0  0.79100  0.31120  0.87380  1.0000 0.109460745
H   H34       1.0  0.20900  0.18880  0.37380  1.0000 0.109460745
H   H35       1.0  0.29100  0.68880  0.62620  1.0000 0.109460745
H   H36       1.0  0.70900  0.81120  0.12620  1.0000 0.109460745
H   H37       1.0  0.87370  0.34850  0.91200  1.0000 0.1318791763
H   H38       1.0  0.12630  0.15150  0.41200  1.0000 0.1318791763
H   H39       1.0  0.37370  0.65150  0.58800  1.0000 0.1318791763
H   H40       1.0  0.62630  0.84850  0.08800  1.0000 0.1318791763
H   H41       1.0  0.12510  0.31500  0.87100  1.0000 0.1374057946
H   H42       1.0  0.87490  0.18500  0.37100  1.0000 0.1318791763
H   H43       1.0  0.62510  0.68500  0.62900  1.0000 0.1318791763
H   H44       1.0  0.37490  0.81500  0.12900  1.0000 0.1318791763
H   H45       1.0  0.03500  0.27780  0.83400  1.0000 0.109460745
H   H46       1.0  0.96500  0.22220  0.33400  1.0000 0.109460745
H   H47       1.0  0.53500  0.72220  0.66600  1.0000 0.109460745
H   H48       1.0  0.46500  0.77780  0.16600  1.0000 0.109460745
H   H49       1.0  0.60260  0.58100  0.92950  1.0000 0.109460745
H   H50       1.0  0.39740  0.91900  0.42950  1.0000 0.109460745
H   H51       1.0  0.10260  0.41900  0.57050  1.0000 0.109460745
H   H52       1.0  0.89740  0.08100  0.07050  1.0000 0.109460745
H   H53       1.0  0.58700  0.65580  0.90580  1.0000 0.1318791763
H   H54       1.0  0.41300  0.84420  0.40580  1.0000 0.1318791763
H   H55       1.0  0.08700  0.34420  0.59420  1.0000 0.1318791763
H   H56       1.0  0.91300  0.15580  0.09420  1.0000 0.1318791763
H   H57       1.0  0.54060  0.58390  0.82930  1.0000 0.1318791763
H   H58       1.0  0.45940  0.91610  0.32930  1.0000 0.1318791763
H   H59       1.0  0.04060  0.41610  0.67070  1.0000 0.1318791763
H   H60       1.0  0.95940  0.08390  0.17070  1.0000 0.1318791763
H   H61       1.0  0.56180  0.51170  0.85430  1.0000 0.109460745
H   H62       1.0  0.43820  0.98830  0.35430  1.0000 0.109460745
H   H63       1.0  0.06180  0.48830  0.64570  1.0000 0.109460745
H   H64       1.0  0.93820  0.01170  0.14570  1.0000 0.109460745
H   H65       1.0  0.56440  0.91950  0.85940  1.0000 0.1031425762
H   H66       1.0  0.43560  0.58050  0.35940  1.0000 0.1031425762
H   H67       1.0  0.06440  0.08050  0.64060  1.0000 0.1031425762
H   H68       1.0  0.93560  0.41950  0.14060  1.0000 0.1031425762
H   H69       1.0  0.53400  0.84900  0.83380  1.0000 0.1318791763
H   H70       1.0  0.46600  0.65100  0.33380  1.0000 0.1318791763
H   H71       1.0  0.03400  0.15100  0.66620  1.0000 0.1318791763
H   H72       1.0  0.96600  0.34900  0.16620  1.0000 0.1318791763
H   H73       1.0  0.59840  0.77350  0.90860  1.0000 0.1374057946
H   H74       1.0  0.40160  0.72650  0.40860  1.0000 0.1374057946
H   H75       1.0  0.09840  0.22650  0.59140  1.0000 0.1374057946
H   H76       1.0  0.90160  0.27350  0.09140  1.0000 0.1374057946
H   H77       1.0  0.62650  0.84740  0.93200  1.0000 0.1031425762
H   H78       1.0  0.37350  0.65260  0.43200  1.0000 0.109460745
H   H79       1.0  0.12650  0.15260  0.56800  1.0000 0.109460745
H   H80       1.0  0.87350  0.34740  0.06800  1.0000 0.1031425762
H   H81       1.0  0.39460  0.66180  0.72170  1.0000 0.109460745
H   H82       1.0  0.60540  0.83820  0.22170  1.0000 0.109460745
H   H83       1.0  0.89460  0.33820  0.77830  1.0000 0.109460745
H   H84       1.0  0.10540  0.16180  0.27830  1.0000 0.109460745
H   H85       1.0  0.45390  0.65090  0.76950  1.0000 0.1374057946
H   H86       1.0  0.54610  0.84910  0.26950  1.0000 0.1374057946
H   H87       1.0  0.95390  0.34910  0.73050  1.0000 0.1374057946
H   H88       1.0  0.04610  0.15090  0.23050  1.0000 0.1374057946
H   H89       1.0  0.50040  0.79650  0.77370  1.0000 0.1318791763
H   H90       1.0  0.49960  0.70350  0.27370  1.0000 0.1318791763
H   H91       1.0  0.00040  0.20350  0.72630  1.0000 0.1318791763
H   H92       1.0  0.99960  0.29650  0.22630  1.0000 0.1318791763
H   H93       1.0  0.44210  0.80220  0.72530  1.0000 0.109460745
H   H94       1.0  0.55790  0.69780  0.22530  1.0000 0.109460745
H   H95       1.0  0.94210  0.19780  0.77470  1.0000 0.109460745
H   H96       1.0  0.05790  0.30220  0.27470  1.0000 0.109460745
H   H97       1.0  0.95960  0.52840  0.94600  1.0000 0.1031425762
H   H98       1.0  0.04040  0.97160  0.44600  1.0000 0.1031425762
H   H99       1.0  0.45960  0.47160  0.55400  1.0000 0.1031425762
H   H100      1.0  0.54040  0.02840  0.05400  1.0000 0.109460745
H   H101      1.0  0.87570  0.54920  0.98930  1.0000 0.1318791763
H   H102      1.0  0.12430  0.95080  0.48930  1.0000 0.1318791763
H   H103      1.0  0.37570  0.45080  0.51070  1.0000 0.1318791763
H   H104      1.0  0.62430  0.04920  0.01070  1.0000 0.1318791763
H   H105      1.0  0.12690  0.60380  0.02230  1.0000 0.1374057946
H   H106      1.0  0.87310  0.89620  0.52230  1.0000 0.1374057946
H   H107      1.0  0.62690  0.39620  0.47770  1.0000 0.1374057946
H   H108      1.0  0.37310  0.10380  0.97770  1.0000 0.1374057946
H   H109      1.0  0.20230  0.57940  0.97900  1.0000 0.109460745
H   H110      1.0  0.79770  0.92060  0.47900  1.0000 0.109460745
H   H111      1.0  0.70230  0.42060  0.52100  1.0000 0.109460745
H   H112      1.0  0.29770  0.07940  0.02100  1.0000 0.109460745
H   H113      1.0  0.52810  0.58280  0.11690  1.0000 0.109460745
H   H114      1.0  0.47190  0.91720  0.61690  1.0000 0.109460745
H   H115      1.0  0.02810  0.41720  0.38310  1.0000 0.109460745
H   H116      1.0  0.97190  0.08280  0.88310  1.0000 0.109460745
H   H117      1.0  0.68790  0.60880  0.11080  1.0000 0.1374057946
H   H118      1.0  0.31210  0.89120  0.61080  1.0000 0.1374057946
H   H119      1.0  0.18790  0.39120  0.38920  1.0000 0.1374057946
H   H120      1.0  0.81210  0.10880  0.88920  1.0000 0.1374057946
H   H121      1.0  0.67340  0.56390  0.02480  1.0000 0.1318791763
H   H122      1.0  0.32660  0.93610  0.52480  1.0000 0.1318791763
H   H123      1.0  0.17340  0.43610  0.47520  1.0000 0.1318791763
H   H124      1.0  0.82660  0.06390  0.97520  1.0000 0.1318791763
H   H125      1.0  0.51790  0.53650  0.03440  1.0000 0.109460745
H   H126      1.0  0.48210  0.96350  0.53440  1.0000 0.109460745
H   H127      1.0  0.01790  0.46350  0.46560  1.0000 0.109460745
H   H128      1.0  0.98210  0.03650  0.96560  1.0000 0.109460745
H   H129      1.0  0.20900  0.68880  0.12620  1.0000 0.109460745
H   H130      1.0  0.79100  0.81120  0.62620  1.0000 0.109460745
H   H131      1.0  0.70900  0.31120  0.37380  1.0000 0.109460745
H   H132      1.0  0.29100  0.18880  0.87380  1.0000 0.109460745
H   H133      1.0  0.12630  0.65150  0.08800  1.0000 0.1318791763
H   H134      1.0  0.87370  0.84850  0.58800  1.0000 0.1318791763
H   H135      1.0  0.62630  0.34850  0.41200  1.0000 0.1318791763
H   H136      1.0  0.37370  0.15150  0.91200  1.0000 0.1318791763
H   H137      1.0  0.87490  0.68500  0.12900  1.0000 0.1318791763
H   H138      1.0  0.12510  0.81500  0.62900  1.0000 0.1318791763
H   H139      1.0  0.37490  0.31500  0.37100  1.0000 0.1318791763
H   H140      1.0  0.62510  0.18500  0.87100  1.0000 0.1318791763
H   H141      1.0  0.96500  0.72220  0.16600  1.0000 0.109460745
H   H142      1.0  0.03500  0.77780  0.66600  1.0000 0.109460745
H   H143      1.0  0.46500  0.27780  0.33400  1.0000 0.109460745
H   H144      1.0  0.53500  0.22220  0.83400  1.0000 0.109460745
H   H145      1.0  0.39740  0.41900  0.07050  1.0000 0.109460745
H   H146      1.0  0.60260  0.08100  0.57050  1.0000 0.109460745
H   H147      1.0  0.89740  0.58100  0.42950  1.0000 0.109460745
H   H148      1.0  0.10260  0.91900  0.92950  1.0000 0.109460745
H   H149      1.0  0.41300  0.34420  0.09420  1.0000 0.1318791763
H   H150      1.0  0.58700  0.15580  0.59420  1.0000 0.1318791763
H   H151      1.0  0.91300  0.65580  0.40580  1.0000 0.1318791763
H   H152      1.0  0.08700  0.84420  0.90580  1.0000 0.1318791763
H   H153      1.0  0.45940  0.41610  0.17070  1.0000 0.1318791763
H   H154      1.0  0.54060  0.08390  0.67070  1.0000 0.1318791763
H   H155      1.0  0.95940  0.58390  0.32930  1.0000 0.1318791763
H   H156      1.0  0.04060  0.91610  0.82930  1.0000 0.1318791763
H   H157      1.0  0.43820  0.48830  0.14570  1.0000 0.109460745
H   H158      1.0  0.56180  0.01170  0.64570  1.0000 0.109460745
H   H159      1.0  0.93820  0.51170  0.35430  1.0000 0.109460745
H   H160      1.0  0.06180  0.98830  0.85430  1.0000 0.109460745
H   H161      1.0  0.43560  0.08050  0.14060  1.0000 0.1031425762
H   H162      1.0  0.56440  0.41950  0.64060  1.0000 0.1031425762
H   H163      1.0  0.93560  0.91950  0.35940  1.0000 0.1031425762
H   H164      1.0  0.06440  0.58050  0.85940  1.0000 0.1031425762
H   H165      1.0  0.46600  0.15100  0.16620  1.0000 0.1318791763
H   H166      1.0  0.53400  0.34900  0.66620  1.0000 0.1318791763
H   H167      1.0  0.96600  0.84900  0.33380  1.0000 0.1318791763
H   H168      1.0  0.03400  0.65100  0.83380  1.0000 0.1318791763
H   H169      1.0  0.40160  0.22650  0.09140  1.0000 0.1374057946
H   H170      1.0  0.59840  0.27350  0.59140  1.0000 0.1374057946
H   H171      1.0  0.90160  0.77350  0.40860  1.0000 0.1374057946
H   H172      1.0  0.09840  0.72650  0.90860  1.0000 0.1374057946
H   H173      1.0  0.37350  0.15260  0.06800  1.0000 0.1031425762
H   H174      1.0  0.62650  0.34740  0.56800  1.0000 0.1031425762
H   H175      1.0  0.87350  0.84740  0.43200  1.0000 0.1031425762
H   H176      1.0  0.12650  0.65260  0.93200  1.0000 0.109460745
H   H177      1.0  0.60540  0.33820  0.27830  1.0000 0.109460745
H   H178      1.0  0.39460  0.16180  0.77830  1.0000 0.109460745
H   H179      1.0  0.10540  0.66180  0.22170  1.0000 0.109460745
H   H180      1.0  0.89460  0.83820  0.72170  1.0000 0.109460745
H   H181      1.0  0.54610  0.34910  0.23050  1.0000 0.1374057946
H   H182      1.0  0.45390  0.15090  0.73050  1.0000 0.1374057946
H   H183      1.0  0.04610  0.65090  0.26950  1.0000 0.1374057946
H   H184      1.0  0.95390  0.84910  0.76950  1.0000 0.1374057946
H   H185      1.0  0.49960  0.20350  0.22630  1.0000 0.1318791763
H   H186      1.0  0.50040  0.29650  0.72630  1.0000 0.1318791763
H   H187      1.0  0.99960  0.79650  0.27370  1.0000 0.1318791763
H   H188      1.0  0.00040  0.70350  0.77370  1.0000 0.1318791763
H   H189      1.0  0.55790  0.19780  0.27470  1.0000 0.109460745
H   H190      1.0  0.44210  0.30220  0.77470  1.0000 0.109460745
H   H191      1.0  0.05790  0.80220  0.22530  1.0000 0.109460745
H   H192      1.0  0.94210  0.69780  0.72530  1.0000 0.109460745
C   C1        1.0  0.00670  0.45570  0.03840  1.0000 0.0719193421
C   C2        1.0  0.99330  0.04430  0.53840  1.0000 0.0719193421
C   C3        1.0  0.50670  0.54430  0.46160  1.0000 0.0719193421
C   C4        1.0  0.49330  0.95570  0.96160  1.0000 0.0719193421
C   C5        1.0  0.05760  0.44310  0.01270  1.0000 -0.1399877105
C   C6        1.0  0.94240  0.05690  0.51270  1.0000 -0.1399877105
C   C7        1.0  0.55760  0.55690  0.48730  1.0000 -0.1399877105
C   C8        1.0  0.44240  0.94310  0.98730  1.0000 -0.1399877105
C   C9        1.0  0.00800  0.41890  0.99023  1.0000 0.0486789229
C   C10       1.0  0.99200  0.08110  0.49023  1.0000 0.0486789229
C   C11       1.0  0.50800  0.58110  0.50977  1.0000 0.0486789229
C   C12       1.0  0.49200  0.91890  0.00977  1.0000 0.0486789229
C   C13       1.0  0.90940  0.41110  0.99310  1.0000 -0.1399877105
C   C14       1.0  0.09060  0.08890  0.49310  1.0000 -0.1399877105
C   C15       1.0  0.40940  0.58890  0.50690  1.0000 -0.1399877105
C   C16       1.0  0.59060  0.91110  0.00690  1.0000 -0.1451806766
C   C17       1.0  0.86550  0.42560  0.01920  1.0000 0.0786486582
C   C18       1.0  0.13450  0.07440  0.51920  1.0000 0.0786486582
C   C19       1.0  0.36550  0.57440  0.48080  1.0000 0.0786486582
C   C20       1.0  0.63450  0.92560  0.98080  1.0000 0.0786486582
C   C21       1.0  0.44090  0.42190  0.90170  1.0000 0.0901297008
C   C22       1.0  0.55910  0.07810  0.40170  1.0000 0.0901297008
C   C23       1.0  0.94090  0.57810  0.59830  1.0000 0.0901297008
C   C24       1.0  0.05910  0.92190  0.09830  1.0000 0.0901297008
C   C25       1.0  0.34600  0.40550  0.90540  1.0000 -0.1236762968
C   C26       1.0  0.65400  0.09450  0.40540  1.0000 -0.1236762968
C   C27       1.0  0.84600  0.59450  0.59460  1.0000 -0.1236762968
C   C28       1.0  0.15400  0.90550  0.09460  1.0000 -0.1236762968
C   C29       1.0  0.30180  0.41020  0.93260  1.0000 0.0621016425
C   C30       1.0  0.69820  0.08980  0.43260  1.0000 0.0621016425
C   C31       1.0  0.80180  0.58980  0.56740  1.0000 0.0621016425
C   C32       1.0  0.19820  0.91020  0.06740  1.0000 0.0621016425
C   C33       1.0  0.35430  0.43240  0.95600  1.0000 -0.1399877105
C   C34       1.0  0.64570  0.06760  0.45600  1.0000 -0.1399877105
C   C35       1.0  0.85430  0.56760  0.54400  1.0000 -0.1399877105
C   C36       1.0  0.14570  0.93240  0.04400  1.0000 -0.1399877105
C   C37       1.0  0.44670  0.44840  0.95010  1.0000 0.0786486582
C   C38       1.0  0.55330  0.05160  0.45010  1.0000 0.0786486582
C   C39       1.0  0.94670  0.55160  0.54990  1.0000 0.0786486582
C   C40       1.0  0.05330  0.94840  0.04990  1.0000 0.0786486582
C   C41       1.0  0.85970  0.31220  0.87330  1.0000 0.0786486582
C   C42       1.0  0.14030  0.18780  0.37330  1.0000 0.0786486582
C   C43       1.0  0.35970  0.68780  0.62670  1.0000 0.0786486582
C   C44       1.0  0.64030  0.81220  0.12670  1.0000 0.0786486582
C   C45       1.0  0.90890  0.33430  0.89610  1.0000 -0.1236762968
C   C46       1.0  0.09110  0.16570  0.39610  1.0000 -0.1236762968
C   C47       1.0  0.40890  0.66570  0.60390  1.0000 -0.1236762968
C   C48       1.0  0.59110  0.83430  0.10390  1.0000 -0.1236762968
C   C49       1.0  0.00780  0.33620  0.89610  1.0000 0.0621016425
C   C50       1.0  0.99220  0.16380  0.39610  1.0000 0.0621016425
C   C51       1.0  0.50780  0.66380  0.60390  1.0000 0.0621016425
C   C52       1.0  0.49220  0.83620  0.10390  1.0000 0.0621016425
C   C53       1.0  0.05640  0.31460  0.87210  1.0000 -0.1399877105
C   C54       1.0  0.94360  0.18540  0.37210  1.0000 -0.134036493
C   C55       1.0  0.55640  0.68540  0.62790  1.0000 -0.1399877105
C   C56       1.0  0.44360  0.81460  0.12790  1.0000 -0.1399877105
C   C57       1.0  0.00190  0.29280  0.85010  1.0000 0.0901297008
C   C58       1.0  0.99810  0.20720  0.35010  1.0000 0.0901297008
C   C59       1.0  0.50190  0.70720  0.64990  1.0000 0.0901297008
C   C60       1.0  0.49810  0.79280  0.14990  1.0000 0.0901297008
C   C61       1.0  0.06130  0.40230  0.96330  1.0000 0.3783591741
C   C62       1.0  0.93870  0.09770  0.46330  1.0000 0.3783591741
C   C63       1.0  0.56130  0.59770  0.53670  1.0000 0.3783591741
C   C64       1.0  0.43870  0.90230  0.03670  1.0000 0.3783591741
C   C65       1.0  0.19890  0.39580  0.93710  1.0000 0.3783591741
C   C66       1.0  0.80110  0.10420  0.43710  1.0000 0.3783591741
C   C67       1.0  0.69890  0.60420  0.56290  1.0000 0.3783591741
C   C68       1.0  0.30110  0.89580  0.06290  1.0000 0.3783591741
C   C69       1.0  0.06320  0.36130  0.91986  1.0000 0.3783591741
C   C70       1.0  0.93680  0.13870  0.41986  1.0000 0.3783591741
C   C71       1.0  0.56320  0.63870  0.58014  1.0000 0.3783591741
C   C72       1.0  0.43680  0.86130  0.08014  1.0000 0.3783591741
C   C73       1.0  0.59230  0.58170  0.90860  1.0000 0.0901297008
C   C74       1.0  0.40770  0.91830  0.40860  1.0000 0.0901297008
C   C75       1.0  0.09230  0.41830  0.59140  1.0000 0.0901297008
C   C76       1.0  0.90770  0.08170  0.09140  1.0000 0.0901297008
C   C77       1.0  0.58060  0.62650  0.89480  1.0000 -0.134036493
C   C78       1.0  0.41940  0.87350  0.39480  1.0000 -0.134036493
C   C79       1.0  0.08060  0.37350  0.60520  1.0000 -0.134036493
C   C80       1.0  0.91940  0.12650  0.10520  1.0000 -0.134036493
C   C81       1.0  0.55990  0.62750  0.86530  1.0000 0.0621016425
C   C82       1.0  0.44010  0.87250  0.36530  1.0000 0.0621016425
C   C83       1.0  0.05990  0.37250  0.63470  1.0000 0.0621016425
C   C84       1.0  0.94010  0.12750  0.13470  1.0000 0.0621016425
C   C85       1.0  0.55410  0.58410  0.85000  1.0000 -0.1616388205
C   C86       1.0  0.44590  0.91590  0.35000  1.0000 -0.1616388205
C   C87       1.0  0.05410  0.41590  0.65000  1.0000 -0.1616388205
C   C88       1.0  0.94590  0.08410  0.15000  1.0000 -0.1616388205
C   C89       1.0  0.56790  0.54140  0.86500  1.0000 0.0901297008
C   C90       1.0  0.43210  0.95860  0.36500  1.0000 0.0901297008
C   C91       1.0  0.06790  0.45860  0.63500  1.0000 0.0901297008
C   C92       1.0  0.93210  0.04140  0.13500  1.0000 0.0901297008
C   C93       1.0  0.57230  0.88930  0.86930  1.0000 0.0901297008
C   C94       1.0  0.42770  0.61070  0.36930  1.0000 0.0901297008
C   C95       1.0  0.07230  0.11070  0.63070  1.0000 0.0901297008
C   C96       1.0  0.92770  0.38930  0.13070  1.0000 0.0901297008
C   C97       1.0  0.55360  0.84750  0.85400  1.0000 -0.1616388205
C   C98       1.0  0.44640  0.65250  0.35400  1.0000 -0.1616388205
C   C99       1.0  0.05360  0.15250  0.64600  1.0000 -0.1616388205
C   C100      1.0  0.94640  0.34750  0.14600  1.0000 -0.1616388205
C   C101      1.0  0.56330  0.80300  0.86801  1.0000 0.0621016425
C   C102      1.0  0.43670  0.69700  0.36801  1.0000 0.0621016425
C   C103      1.0  0.06330  0.19700  0.63199  1.0000 0.0621016425
C   C104      1.0  0.93670  0.30300  0.13199  1.0000 0.0621016425
C   C105      1.0  0.59140  0.80310  0.89800  1.0000 -0.1616388205
C   C106      1.0  0.40860  0.69690  0.39800  1.0000 -0.1616388205
C   C107      1.0  0.09140  0.19690  0.60200  1.0000 -0.1616388205
C   C108      1.0  0.90860  0.30310  0.10200  1.0000 -0.1616388205
C   C109      1.0  0.60860  0.84730  0.91160  1.0000 0.0786486582
C   C110      1.0  0.39140  0.65270  0.41160  1.0000 0.0786486582
C   C111      1.0  0.10860  0.15270  0.58840  1.0000 0.0786486582
C   C112      1.0  0.89140  0.34730  0.08840  1.0000 0.0786486582
C   C113      1.0  0.41470  0.68940  0.73270  1.0000 0.0901297008
C   C114      1.0  0.58530  0.81060  0.23270  1.0000 0.0901297008
C   C115      1.0  0.91470  0.31060  0.76730  1.0000 0.0901297008
C   C116      1.0  0.08530  0.18940  0.26730  1.0000 0.0901297008
C   C117      1.0  0.45020  0.68260  0.76120  1.0000 -0.1616388205
C   C118      1.0  0.54980  0.81740  0.26120  1.0000 -0.1616388205
C   C119      1.0  0.95020  0.31740  0.73880  1.0000 -0.1616388205
C   C120      1.0  0.04980  0.18260  0.23880  1.0000 -0.1616388205
C   C121      1.0  0.47990  0.72220  0.77754  1.0000 0.0621016425
C   C122      1.0  0.52010  0.77780  0.27754  1.0000 0.0621016425
C   C123      1.0  0.97990  0.27780  0.72246  1.0000 0.0621016425
C   C124      1.0  0.02010  0.22220  0.22246  1.0000 0.0621016425
C   C125      1.0  0.47790  0.76840  0.76360  1.0000 -0.1399877105
C   C126      1.0  0.52210  0.73160  0.26360  1.0000 -0.1399877105
C   C127      1.0  0.97790  0.23160  0.73640  1.0000 -0.1399877105
C   C128      1.0  0.02210  0.26840  0.23640  1.0000 -0.1399877105
C   C129      1.0  0.44220  0.77150  0.73490  1.0000 0.0901297008
C   C130      1.0  0.55780  0.72850  0.23490  1.0000 0.0901297008
C   C131      1.0  0.94220  0.22850  0.76510  1.0000 0.0901297008
C   C132      1.0  0.05780  0.27150  0.26510  1.0000 0.0901297008
C   C133      1.0  0.54670  0.67490  0.84980  1.0000 0.3861663672
C   C134      1.0  0.45330  0.82510  0.34980  1.0000 0.3861663672
C   C135      1.0  0.04670  0.32510  0.65020  1.0000 0.3861663672
C   C136      1.0  0.95330  0.17490  0.15020  1.0000 0.3861663672
C   C137      1.0  0.54810  0.75690  0.85136  1.0000 0.3738097964
C   C138      1.0  0.45190  0.74310  0.35136  1.0000 0.3738097964
C   C139      1.0  0.04810  0.24310  0.64864  1.0000 0.3738097964
C   C140      1.0  0.95190  0.25690  0.14864  1.0000 0.3738097964
C   C141      1.0  0.51120  0.71870  0.80900  1.0000 0.3738097964
C   C142      1.0  0.48880  0.78130  0.30900  1.0000 0.3738097964
C   C143      1.0  0.01120  0.28130  0.69100  1.0000 0.3738097964
C   C144      1.0  0.98880  0.21870  0.19100  1.0000 0.3738097964
C   C145      1.0  0.99330  0.54430  0.96160  1.0000 0.0719193421
C   C146      1.0  0.00670  0.95570  0.46160  1.0000 0.0719193421
C   C147      1.0  0.49330  0.45570  0.53840  1.0000 0.0719193421
C   C148      1.0  0.50670  0.04430  0.03840  1.0000 0.0719193421
C   C149      1.0  0.94240  0.55690  0.98730  1.0000 -0.1399877105
C   C150      1.0  0.05760  0.94310  0.48730  1.0000 -0.1399877105
C   C151      1.0  0.44240  0.44310  0.51270  1.0000 -0.1399877105
C   C152      1.0  0.55760  0.05690  0.01270  1.0000 -0.1399877105
C   C153      1.0  0.99200  0.58110  0.00977  1.0000 0.0486789229
C   C154      1.0  0.00800  0.91890  0.50977  1.0000 0.0486789229
C   C155      1.0  0.49200  0.41890  0.49023  1.0000 0.0486789229
C   C156      1.0  0.50800  0.08110  0.99023  1.0000 0.0486789229
C   C157      1.0  0.09060  0.58890  0.00690  1.0000 -0.1399877105
C   C158      1.0  0.90940  0.91110  0.50690  1.0000 -0.1451806766
C   C159      1.0  0.59060  0.41110  0.49310  1.0000 -0.1399877105
C   C160      1.0  0.40940  0.08890  0.99310  1.0000 -0.1399877105
C   C161      1.0  0.13450  0.57440  0.98080  1.0000 0.0786486582
C   C162      1.0  0.86550  0.92560  0.48080  1.0000 0.0786486582
C   C163      1.0  0.63450  0.42560  0.51920  1.0000 0.0786486582
C   C164      1.0  0.36550  0.07440  0.01920  1.0000 0.0786486582
C   C165      1.0  0.55910  0.57810  0.09830  1.0000 0.0901297008
C   C166      1.0  0.44090  0.92190  0.59830  1.0000 0.0901297008
C   C167      1.0  0.05910  0.42190  0.40170  1.0000 0.0901297008
C   C168      1.0  0.94090  0.07810  0.90170  1.0000 0.0901297008
C   C169      1.0  0.65400  0.59450  0.09460  1.0000 -0.1236762968
C   C170      1.0  0.34600  0.90550  0.59460  1.0000 -0.1236762968
C   C171      1.0  0.15400  0.40550  0.40540  1.0000 -0.1236762968
C   C172      1.0  0.84600  0.09450  0.90540  1.0000 -0.1236762968
C   C173      1.0  0.69820  0.58980  0.06740  1.0000 0.0621016425
C   C174      1.0  0.30180  0.91020  0.56740  1.0000 0.0621016425
C   C175      1.0  0.19820  0.41020  0.43260  1.0000 0.0621016425
C   C176      1.0  0.80180  0.08980  0.93260  1.0000 0.0621016425
C   C177      1.0  0.64570  0.56760  0.04400  1.0000 -0.1399877105
C   C178      1.0  0.35430  0.93240  0.54400  1.0000 -0.1399877105
C   C179      1.0  0.14570  0.43240  0.45600  1.0000 -0.1399877105
C   C180      1.0  0.85430  0.06760  0.95600  1.0000 -0.1399877105
C   C181      1.0  0.55330  0.55160  0.04990  1.0000 0.0786486582
C   C182      1.0  0.44670  0.94840  0.54990  1.0000 0.0786486582
C   C183      1.0  0.05330  0.44840  0.45010  1.0000 0.0786486582
C   C184      1.0  0.94670  0.05160  0.95010  1.0000 0.0786486582
C   C185      1.0  0.14030  0.68780  0.12670  1.0000 0.0786486582
C   C186      1.0  0.85970  0.81220  0.62670  1.0000 0.0786486582
C   C187      1.0  0.64030  0.31220  0.37330  1.0000 0.0786486582
C   C188      1.0  0.35970  0.18780  0.87330  1.0000 0.0786486582
C   C189      1.0  0.09110  0.66570  0.10390  1.0000 -0.1236762968
C   C190      1.0  0.90890  0.83430  0.60390  1.0000 -0.1236762968
C   C191      1.0  0.59110  0.33430  0.39610  1.0000 -0.1236762968
C   C192      1.0  0.40890  0.16570  0.89610  1.0000 -0.1236762968
C   C193      1.0  0.99220  0.66380  0.10390  1.0000 0.0621016425
C   C194      1.0  0.00780  0.83620  0.60390  1.0000 0.0621016425
C   C195      1.0  0.49220  0.33620  0.39610  1.0000 0.0621016425
C   C196      1.0  0.50780  0.16380  0.89610  1.0000 0.0621016425
C   C197      1.0  0.94360  0.68540  0.12790  1.0000 -0.1399877105
C   C198      1.0  0.05640  0.81460  0.62790  1.0000 -0.1399877105
C   C199      1.0  0.44360  0.31460  0.37210  1.0000 -0.1399877105
C   C200      1.0  0.55640  0.18540  0.87210  1.0000 -0.134036493
C   C201      1.0  0.99810  0.70720  0.14990  1.0000 0.0901297008
C   C202      1.0  0.00190  0.79280  0.64990  1.0000 0.0901297008
C   C203      1.0  0.49810  0.29280  0.35010  1.0000 0.0901297008
C   C204      1.0  0.50190  0.20720  0.85010  1.0000 0.0901297008
C   C205      1.0  0.93870  0.59770  0.03670  1.0000 0.3783591741
C   C206      1.0  0.06130  0.90230  0.53670  1.0000 0.3783591741
C   C207      1.0  0.43870  0.40230  0.46330  1.0000 0.3783591741
C   C208      1.0  0.56130  0.09770  0.96330  1.0000 0.3783591741
C   C209      1.0  0.80110  0.60420  0.06290  1.0000 0.3783591741
C   C210      1.0  0.19890  0.89580  0.56290  1.0000 0.3783591741
C   C211      1.0  0.30110  0.39580  0.43710  1.0000 0.3783591741
C   C212      1.0  0.69890  0.10420  0.93710  1.0000 0.3783591741
C   C213      1.0  0.93680  0.63870  0.08014  1.0000 0.3783591741
C   C214      1.0  0.06320  0.86130  0.58014  1.0000 0.3783591741
C   C215      1.0  0.43680  0.36130  0.41986  1.0000 0.3783591741
C   C216      1.0  0.56320  0.13870  0.91986  1.0000 0.3783591741
C   C217      1.0  0.40770  0.41830  0.09140  1.0000 0.0901297008
C   C218      1.0  0.59230  0.08170  0.59140  1.0000 0.0901297008
C   C219      1.0  0.90770  0.58170  0.40860  1.0000 0.0901297008
C   C220      1.0  0.09230  0.91830  0.90860  1.0000 0.0901297008
C   C221      1.0  0.41940  0.37350  0.10520  1.0000 -0.134036493
C   C222      1.0  0.58060  0.12650  0.60520  1.0000 -0.134036493
C   C223      1.0  0.91940  0.62650  0.39480  1.0000 -0.134036493
C   C224      1.0  0.08060  0.87350  0.89480  1.0000 -0.134036493
C   C225      1.0  0.44010  0.37250  0.13470  1.0000 0.0621016425
C   C226      1.0  0.55990  0.12750  0.63470  1.0000 0.0621016425
C   C227      1.0  0.94010  0.62750  0.36530  1.0000 0.0621016425
C   C228      1.0  0.05990  0.87250  0.86530  1.0000 0.0621016425
C   C229      1.0  0.44590  0.41590  0.15000  1.0000 -0.1616388205
C   C230      1.0  0.55410  0.08410  0.65000  1.0000 -0.1616388205
C   C231      1.0  0.94590  0.58410  0.35000  1.0000 -0.1616388205
C   C232      1.0  0.05410  0.91590  0.85000  1.0000 -0.1616388205
C   C233      1.0  0.43210  0.45860  0.13500  1.0000 0.0901297008
C   C234      1.0  0.56790  0.04140  0.63500  1.0000 0.0901297008
C   C235      1.0  0.93210  0.54140  0.36500  1.0000 0.0901297008
C   C236      1.0  0.06790  0.95860  0.86500  1.0000 0.0901297008
C   C237      1.0  0.42770  0.11070  0.13070  1.0000 0.0901297008
C   C238      1.0  0.57230  0.38930  0.63070  1.0000 0.0901297008
C   C239      1.0  0.92770  0.88930  0.36930  1.0000 0.0901297008
C   C240      1.0  0.07230  0.61070  0.86930  1.0000 0.0901297008
C   C241      1.0  0.44640  0.15250  0.14600  1.0000 -0.1616388205
C   C242      1.0  0.55360  0.34750  0.64600  1.0000 -0.1616388205
C   C243      1.0  0.94640  0.84750  0.35400  1.0000 -0.1616388205
C   C244      1.0  0.05360  0.65250  0.85400  1.0000 -0.1616388205
C   C245      1.0  0.43670  0.19700  0.13199  1.0000 0.0621016425
C   C246      1.0  0.56330  0.30300  0.63199  1.0000 0.0621016425
C   C247      1.0  0.93670  0.80300  0.36801  1.0000 0.0621016425
C   C248      1.0  0.06330  0.69700  0.86801  1.0000 0.0621016425
C   C249      1.0  0.40860  0.19690  0.10200  1.0000 -0.1616388205
C   C250      1.0  0.59140  0.30310  0.60200  1.0000 -0.1616388205
C   C251      1.0  0.90860  0.80310  0.39800  1.0000 -0.1616388205
C   C252      1.0  0.09140  0.69690  0.89800  1.0000 -0.1616388205
C   C253      1.0  0.39140  0.15270  0.08840  1.0000 0.0786486582
C   C254      1.0  0.60860  0.34730  0.58840  1.0000 0.0786486582
C   C255      1.0  0.89140  0.84730  0.41160  1.0000 0.0786486582
C   C256      1.0  0.10860  0.65270  0.91160  1.0000 0.0786486582
C   C257      1.0  0.58530  0.31060  0.26730  1.0000 0.0901297008
C   C258      1.0  0.41470  0.18940  0.76730  1.0000 0.0901297008
C   C259      1.0  0.08530  0.68940  0.23270  1.0000 0.0901297008
C   C260      1.0  0.91470  0.81060  0.73270  1.0000 0.0901297008
C   C261      1.0  0.54980  0.31740  0.23880  1.0000 -0.1616388205
C   C262      1.0  0.45020  0.18260  0.73880  1.0000 -0.1616388205
C   C263      1.0  0.04980  0.68260  0.26120  1.0000 -0.1616388205
C   C264      1.0  0.95020  0.81740  0.76120  1.0000 -0.1616388205
C   C265      1.0  0.52010  0.27780  0.22246  1.0000 0.0621016425
C   C266      1.0  0.47990  0.22220  0.72246  1.0000 0.0621016425
C   C267      1.0  0.02010  0.72220  0.27754  1.0000 0.0621016425
C   C268      1.0  0.97990  0.77780  0.77754  1.0000 0.0621016425
C   C269      1.0  0.52210  0.23160  0.23640  1.0000 -0.1399877105
C   C270      1.0  0.47790  0.26840  0.73640  1.0000 -0.1399877105
C   C271      1.0  0.02210  0.76840  0.26360  1.0000 -0.1399877105
C   C272      1.0  0.97790  0.73160  0.76360  1.0000 -0.1399877105
C   C273      1.0  0.55780  0.22850  0.26510  1.0000 0.0901297008
C   C274      1.0  0.44220  0.27150  0.76510  1.0000 0.0901297008
C   C275      1.0  0.05780  0.77150  0.23490  1.0000 0.0901297008
C   C276      1.0  0.94220  0.72850  0.73490  1.0000 0.0901297008
C   C277      1.0  0.45330  0.32510  0.15020  1.0000 0.3861663672
C   C278      1.0  0.54670  0.17490  0.65020  1.0000 0.3861663672
C   C279      1.0  0.95330  0.67490  0.34980  1.0000 0.3861663672
C   C280      1.0  0.04670  0.82510  0.84980  1.0000 0.3861663672
C   C281      1.0  0.45190  0.24310  0.14864  1.0000 0.3738097964
C   C282      1.0  0.54810  0.25690  0.64864  1.0000 0.3738097964
C   C283      1.0  0.95190  0.75690  0.35136  1.0000 0.3738097964
C   C284      1.0  0.04810  0.74310  0.85136  1.0000 0.3738097964
C   C285      1.0  0.48880  0.28130  0.19100  1.0000 0.3738097964
C   C286      1.0  0.51120  0.21870  0.69100  1.0000 0.3738097964
C   C287      1.0  0.98880  0.71870  0.30900  1.0000 0.3738097964
C   C288      1.0  0.01120  0.78130  0.80900  1.0000 0.3783591741
I   I1        1.0  0.93504  0.52068  0.11211  1.0000 -0.4355942223
I   I2        1.0  0.06496  0.97932  0.61211  1.0000 -0.4342983705
I   I3        1.0  0.43504  0.47932  0.38789  1.0000 -0.4355942223
I   I4        1.0  0.56496  0.02068  0.88789  1.0000 -0.4355942223
I   I5        1.0  0.66891  0.44062  0.07815  1.0000 -0.4534455396
I   I6        1.0  0.33109  0.05938  0.57815  1.0000 -0.4534455396
I   I7        1.0  0.16891  0.55938  0.42185  1.0000 -0.4534455396
I   I8        1.0  0.83109  0.94062  0.92185  1.0000 -0.4534455396
I   I9        1.0  0.69976  0.49477  0.96516  1.0000 -0.4760536593
I   I10       1.0  0.30024  0.00523  0.46516  1.0000 -0.4760536593
I   I11       1.0  0.19976  0.50523  0.53484  1.0000 -0.4760536593
I   I12       1.0  0.80024  0.99477  0.03484  1.0000 -0.4760536593
I   I13       1.0  0.70730  0.42385  0.87599  1.0000 -0.4355942223
I   I14       1.0  0.29270  0.07615  0.37599  1.0000 -0.4355942223
I   I15       1.0  0.20730  0.57615  0.62401  1.0000 -0.4355942223
I   I16       1.0  0.79270  0.92385  0.12401  1.0000 -0.4355942223
I   I17       1.0  0.31485  0.83304  0.67110  1.0000 -0.4534455396
I   I18       1.0  0.68515  0.66696  0.17110  1.0000 -0.4534455396
I   I19       1.0  0.81485  0.16696  0.82890  1.0000 -0.4591896814
I   I20       1.0  0.18515  0.33304  0.32890  1.0000 -0.4534455396
I   I21       1.0  0.16960  0.69499  0.69032  1.0000 -0.4653135282
I   I22       1.0  0.83040  0.80501  0.19032  1.0000 -0.4653135282
I   I23       1.0  0.66960  0.30501  0.80968  1.0000 -0.4591896814
I   I24       1.0  0.33040  0.19499  0.30968  1.0000 -0.4591896814
I   I25       1.0  0.06496  0.47932  0.88789  1.0000 -0.4342983705
I   I26       1.0  0.93504  0.02068  0.38789  1.0000 -0.4355942223
I   I27       1.0  0.56496  0.52068  0.61211  1.0000 -0.4355942223
I   I28       1.0  0.43504  0.97932  0.11211  1.0000 -0.4355942223
I   I29       1.0  0.33109  0.55938  0.92185  1.0000 -0.4534455396
I   I30       1.0  0.66891  0.94062  0.42185  1.0000 -0.4534455396
I   I31       1.0  0.83109  0.44062  0.57815  1.0000 -0.4534455396
I   I32       1.0  0.16891  0.05938  0.07815  1.0000 -0.4534455396
I   I33       1.0  0.30024  0.50523  0.03484  1.0000 -0.4760536593
I   I34       1.0  0.69976  0.99477  0.53484  1.0000 -0.4760536593
I   I35       1.0  0.80024  0.49477  0.46516  1.0000 -0.4760536593
I   I36       1.0  0.19976  0.00523  0.96516  1.0000 -0.4760536593
I   I37       1.0  0.29270  0.57615  0.12401  1.0000 -0.4355942223
I   I38       1.0  0.70730  0.92385  0.62401  1.0000 -0.4355942223
I   I39       1.0  0.79270  0.42385  0.37599  1.0000 -0.4355942223
I   I40       1.0  0.20730  0.07615  0.87599  1.0000 -0.4355942223
I   I41       1.0  0.68515  0.16696  0.32890  1.0000 -0.4591896814
I   I42       1.0  0.31485  0.33304  0.82890  1.0000 -0.4534455396
I   I43       1.0  0.18515  0.83304  0.17110  1.0000 -0.4534455396
I   I44       1.0  0.81485  0.66696  0.67110  1.0000 -0.4591896814
I   I45       1.0  0.83040  0.30501  0.30968  1.0000 -0.4653135282
I   I46       1.0  0.16960  0.19499  0.80968  1.0000 -0.4653135282
I   I47       1.0  0.33040  0.69499  0.19032  1.0000 -0.4653135282
I   I48       1.0  0.66960  0.80501  0.69032  1.0000 -0.4653135282
N   N1        1.0  0.91170  0.44620  0.04191  1.0000 -0.1893549128
N   N2        1.0  0.08830  0.05380  0.54191  1.0000 -0.1893549128
N   N3        1.0  0.41170  0.55380  0.45809  1.0000 -0.1893549128
N   N4        1.0  0.58830  0.94620  0.95809  1.0000 -0.1893549128
N   N5        1.0  0.48950  0.44390  0.92329  1.0000 -0.179232852
N   N6        1.0  0.51050  0.05610  0.42329  1.0000 -0.179232852
N   N7        1.0  0.98950  0.55610  0.57671  1.0000 -0.179232852
N   N8        1.0  0.01050  0.94390  0.07671  1.0000 -0.179232852
N   N9        1.0  0.90640  0.29180  0.85016  1.0000 -0.179232852
N   N10       1.0  0.09360  0.20820  0.35016  1.0000 -0.179232852
N   N11       1.0  0.40640  0.70820  0.64984  1.0000 -0.179232852
N   N12       1.0  0.59360  0.79180  0.14984  1.0000 -0.179232852
N   N13       1.0  0.15510  0.41390  0.96147  1.0000 -0.3846390885
N   N14       1.0  0.84490  0.08610  0.46147  1.0000 -0.3876249907
N   N15       1.0  0.65510  0.58610  0.53853  1.0000 -0.3846390885
N   N16       1.0  0.34490  0.91390  0.03853  1.0000 -0.3846390885
N   N17       1.0  0.15800  0.36870  0.91614  1.0000 -0.3724620384
N   N18       1.0  0.84200  0.13130  0.41614  1.0000 -0.3724620384
N   N19       1.0  0.65800  0.63130  0.58386  1.0000 -0.3724620384
N   N20       1.0  0.34200  0.86870  0.08386  1.0000 -0.3724620384
N   N21       1.0  0.01010  0.37720  0.94315  1.0000 -0.3876249907
N   N22       1.0  0.98990  0.12280  0.44315  1.0000 -0.3994883386
N   N23       1.0  0.51010  0.62280  0.55685  1.0000 -0.3994883386
N   N24       1.0  0.48990  0.87720  0.05685  1.0000 -0.3994883386
N   N25       1.0  0.58950  0.53960  0.89382  1.0000 -0.179232852
N   N26       1.0  0.41050  0.96040  0.39382  1.0000 -0.179232852
N   N27       1.0  0.08950  0.46040  0.60618  1.0000 -0.179232852
N   N28       1.0  0.91050  0.03960  0.10618  1.0000 -0.179232852
N   N29       1.0  0.60130  0.88950  0.89759  1.0000 -0.179232852
N   N30       1.0  0.39870  0.61050  0.39759  1.0000 -0.179232852
N   N31       1.0  0.10130  0.11050  0.60241  1.0000 -0.179232852
N   N32       1.0  0.89870  0.38950  0.10241  1.0000 -0.179232852
N   N33       1.0  0.40780  0.73280  0.72005  1.0000 -0.1893549128
N   N34       1.0  0.59220  0.76720  0.22005  1.0000 -0.1893549128
N   N35       1.0  0.90780  0.26720  0.77995  1.0000 -0.1893549128
N   N36       1.0  0.09220  0.23280  0.27995  1.0000 -0.1893549128
N   N37       1.0  0.52170  0.67450  0.82083  1.0000 -0.4121593776
N   N38       1.0  0.47830  0.82550  0.32083  1.0000 -0.4121593776
N   N39       1.0  0.02170  0.32550  0.67917  1.0000 -0.4121593776
N   N40       1.0  0.97830  0.17450  0.17917  1.0000 -0.4121593776
N   N41       1.0  0.55970  0.71500  0.86630  1.0000 -0.4121593776
N   N42       1.0  0.44030  0.78500  0.36630  1.0000 -0.4154211027
N   N43       1.0  0.05970  0.28500  0.63370  1.0000 -0.4154211027
N   N44       1.0  0.94030  0.21500  0.13370  1.0000 -0.4154211027
N   N45       1.0  0.52380  0.76070  0.82304  1.0000 -0.3994883386
N   N46       1.0  0.47620  0.73930  0.32304  1.0000 -0.3994883386
N   N47       1.0  0.02380  0.23930  0.67696  1.0000 -0.3994883386
N   N48       1.0  0.97620  0.26070  0.17696  1.0000 -0.4121593776
N   N49       1.0  0.08830  0.55380  0.95809  1.0000 -0.1893549128
N   N50       1.0  0.91170  0.94620  0.45809  1.0000 -0.1893549128
N   N51       1.0  0.58830  0.44620  0.54191  1.0000 -0.1893549128
N   N52       1.0  0.41170  0.05380  0.04191  1.0000 -0.1893549128
N   N53       1.0  0.51050  0.55610  0.07671  1.0000 -0.179232852
N   N54       1.0  0.48950  0.94390  0.57671  1.0000 -0.179232852
N   N55       1.0  0.01050  0.44390  0.42329  1.0000 -0.179232852
N   N56       1.0  0.98950  0.05610  0.92329  1.0000 -0.179232852
N   N57       1.0  0.09360  0.70820  0.14984  1.0000 -0.179232852
N   N58       1.0  0.90640  0.79180  0.64984  1.0000 -0.179232852
N   N59       1.0  0.59360  0.29180  0.35016  1.0000 -0.179232852
N   N60       1.0  0.40640  0.20820  0.85016  1.0000 -0.179232852
N   N61       1.0  0.84490  0.58610  0.03853  1.0000 -0.3876249907
N   N62       1.0  0.15510  0.91390  0.53853  1.0000 -0.3846390885
N   N63       1.0  0.34490  0.41390  0.46147  1.0000 -0.3846390885
N   N64       1.0  0.65510  0.08610  0.96147  1.0000 -0.3876249907
N   N65       1.0  0.84200  0.63130  0.08386  1.0000 -0.3724620384
N   N66       1.0  0.15800  0.86870  0.58386  1.0000 -0.3724620384
N   N67       1.0  0.34200  0.36870  0.41614  1.0000 -0.3724620384
N   N68       1.0  0.65800  0.13130  0.91614  1.0000 -0.3724620384
N   N69       1.0  0.98990  0.62280  0.05685  1.0000 -0.3994883386
N   N70       1.0  0.01010  0.87720  0.55685  1.0000 -0.3994883386
N   N71       1.0  0.48990  0.37720  0.44315  1.0000 -0.3994883386
N   N72       1.0  0.51010  0.12280  0.94315  1.0000 -0.3994883386
N   N73       1.0  0.41050  0.46040  0.10618  1.0000 -0.179232852
N   N74       1.0  0.58950  0.03960  0.60618  1.0000 -0.179232852
N   N75       1.0  0.91050  0.53960  0.39382  1.0000 -0.179232852
N   N76       1.0  0.08950  0.96040  0.89382  1.0000 -0.179232852
N   N77       1.0  0.39870  0.11050  0.10241  1.0000 -0.179232852
N   N78       1.0  0.60130  0.38950  0.60241  1.0000 -0.179232852
N   N79       1.0  0.89870  0.88950  0.39759  1.0000 -0.179232852
N   N80       1.0  0.10130  0.61050  0.89759  1.0000 -0.179232852
N   N81       1.0  0.59220  0.26720  0.27995  1.0000 -0.1893549128
N   N82       1.0  0.40780  0.23280  0.77995  1.0000 -0.1893549128
N   N83       1.0  0.09220  0.73280  0.22005  1.0000 -0.1893549128
N   N84       1.0  0.90780  0.76720  0.72005  1.0000 -0.1893549128
N   N85       1.0  0.47830  0.32550  0.17917  1.0000 -0.4121593776
N   N86       1.0  0.52170  0.17450  0.67917  1.0000 -0.4121593776
N   N87       1.0  0.97830  0.67450  0.32083  1.0000 -0.4121593776
N   N88       1.0  0.02170  0.82550  0.82083  1.0000 -0.4121593776
N   N89       1.0  0.44030  0.28500  0.13370  1.0000 -0.4154211027
N   N90       1.0  0.55970  0.21500  0.63370  1.0000 -0.4154211027
N   N91       1.0  0.94030  0.71500  0.36630  1.0000 -0.4154211027
N   N92       1.0  0.05970  0.78500  0.86630  1.0000 -0.4121593776
N   N93       1.0  0.47620  0.23930  0.17696  1.0000 -0.4121593776
N   N94       1.0  0.52380  0.26070  0.67696  1.0000 -0.3994883386
N   N95       1.0  0.97620  0.76070  0.32304  1.0000 -0.3994883386
N   N96       1.0  0.02380  0.73930  0.82304  1.0000 -0.3994883386
