# DDEC6 charges by PACMAN v1.1 (https://github.com/mtap-research/PACMAN-charge/)
data_2010[Zn][nan]3[FSR]15
_chemical_formula_sum              "Zn16 H48 C48 N64 O32"
_cell_length_a       12.9639
_cell_length_b       13.8034
_cell_length_c       16.8318
_cell_angle_alpha    90
_cell_angle_beta     90
_cell_angle_gamma    90

_symmetry_space_group_name_H-M    "P 1"
_symmetry_Int_Tables_number       1

loop_
  _symmetry_equiv_pos_as_xyz
  'x, y, z'

loop_
  _atom_site_type_symbol
  _atom_site_label
  _atom_site_symmetry_multiplicity
  _atom_site_fract_x
  _atom_site_fract_y
  _atom_site_fract_z
  _atom_site_occupancy
  _atom_site_charge
Zn  Zn1       1.0  0.97614  0.40741  0.42397  1.0000 0.7114981334
Zn  Zn2       1.0  0.02386  0.09259  0.92397  1.0000 0.7114981334
Zn  Zn3       1.0  0.47614  0.59259  0.07603  1.0000 0.7114981334
Zn  Zn4       1.0  0.52386  0.90741  0.57603  1.0000 0.7114981334
Zn  Zn5       1.0  0.02386  0.59259  0.57603  1.0000 0.7114981334
Zn  Zn6       1.0  0.97614  0.90741  0.07603  1.0000 0.7114981334
Zn  Zn7       1.0  0.52386  0.40741  0.92397  1.0000 0.7114981334
Zn  Zn8       1.0  0.47614  0.09259  0.42397  1.0000 0.7114981334
Zn  Zn9       1.0  0.92641  0.47801  0.09615  1.0000 0.7114981334
Zn  Zn10      1.0  0.07359  0.02199  0.59615  1.0000 0.7114981334
Zn  Zn11      1.0  0.42641  0.52199  0.40385  1.0000 0.7114981334
Zn  Zn12      1.0  0.57359  0.97801  0.90385  1.0000 0.7114981334
Zn  Zn13      1.0  0.07359  0.52199  0.90385  1.0000 0.7114981334
Zn  Zn14      1.0  0.92641  0.97801  0.40385  1.0000 0.7114981334
Zn  Zn15      1.0  0.57359  0.47801  0.59615  1.0000 0.7114981334
Zn  Zn16      1.0  0.42641  0.02199  0.09615  1.0000 0.7114981334
H   H1        1.0  0.95000  0.19200  0.35540  1.0000 0.1263417821
H   H2        1.0  0.05000  0.30800  0.85540  1.0000 0.1263417821
H   H3        1.0  0.45000  0.80800  0.14460  1.0000 0.1263417821
H   H4        1.0  0.55000  0.69200  0.64460  1.0000 0.1263417821
H   H5        1.0  0.05000  0.80800  0.64460  1.0000 0.1263417821
H   H6        1.0  0.95000  0.69200  0.14460  1.0000 0.1263417821
H   H7        1.0  0.55000  0.19200  0.85540  1.0000 0.1263417821
H   H8        1.0  0.45000  0.30800  0.35540  1.0000 0.1263417821
H   H9        1.0  0.75100  0.35400  0.49660  1.0000 0.1109351735
H   H10       1.0  0.24900  0.14600  0.99660  1.0000 0.1109351735
H   H11       1.0  0.25100  0.64600  0.00340  1.0000 0.1109351735
H   H12       1.0  0.74900  0.85400  0.50340  1.0000 0.1109351735
H   H13       1.0  0.24900  0.64600  0.50340  1.0000 0.1109351735
H   H14       1.0  0.75100  0.85400  0.00340  1.0000 0.1109351735
H   H15       1.0  0.74900  0.35400  0.99660  1.0000 0.1109351735
H   H16       1.0  0.25100  0.14600  0.49660  1.0000 0.1109351735
H   H17       1.0  0.06100  0.24300  0.63100  1.0000 0.303233556
H   H18       1.0  0.93900  0.25700  0.13100  1.0000 0.303233556
H   H19       1.0  0.56100  0.75700  0.86900  1.0000 0.303233556
H   H20       1.0  0.43900  0.74300  0.36900  1.0000 0.303233556
H   H21       1.0  0.93900  0.75700  0.36900  1.0000 0.303233556
H   H22       1.0  0.06100  0.74300  0.86900  1.0000 0.303233556
H   H23       1.0  0.43900  0.24300  0.13100  1.0000 0.303233556
H   H24       1.0  0.56100  0.25700  0.63100  1.0000 0.303233556
H   H25       1.0  0.05800  0.33000  0.58950  1.0000 0.2843728732
H   H26       1.0  0.94200  0.17000  0.08950  1.0000 0.2843728732
H   H27       1.0  0.55800  0.67000  0.91050  1.0000 0.2843728732
H   H28       1.0  0.44200  0.83000  0.41050  1.0000 0.2843728732
H   H29       1.0  0.94200  0.67000  0.41050  1.0000 0.2843728732
H   H30       1.0  0.05800  0.83000  0.91050  1.0000 0.2843728732
H   H31       1.0  0.44200  0.33000  0.08950  1.0000 0.2843728732
H   H32       1.0  0.55800  0.17000  0.58950  1.0000 0.2843728732
H   H33       1.0  0.72600  0.61800  0.67600  1.0000 0.3166408683
H   H34       1.0  0.27400  0.88200  0.17600  1.0000 0.3166408683
H   H35       1.0  0.22600  0.38200  0.82400  1.0000 0.3166408683
H   H36       1.0  0.77400  0.11800  0.32400  1.0000 0.3166408683
H   H37       1.0  0.27400  0.38200  0.32400  1.0000 0.3166408683
H   H38       1.0  0.72600  0.11800  0.82400  1.0000 0.3166408683
H   H39       1.0  0.77400  0.61800  0.17600  1.0000 0.3166408683
H   H40       1.0  0.22600  0.88200  0.67600  1.0000 0.3166408683
H   H41       1.0  0.83800  0.66000  0.65400  1.0000 0.3166408683
H   H42       1.0  0.16200  0.84000  0.15400  1.0000 0.3166408683
H   H43       1.0  0.33800  0.34000  0.84600  1.0000 0.3166408683
H   H44       1.0  0.66200  0.16000  0.34600  1.0000 0.3166408683
H   H45       1.0  0.16200  0.34000  0.34600  1.0000 0.3166408683
H   H46       1.0  0.83800  0.16000  0.84600  1.0000 0.3166408683
H   H47       1.0  0.66200  0.66000  0.15400  1.0000 0.3166408683
H   H48       1.0  0.33800  0.84000  0.65400  1.0000 0.3166408683
C   C1        1.0  0.97220  0.40972  0.25394  1.0000 0.4662194322
C   C2        1.0  0.02780  0.09028  0.75394  1.0000 0.4662194322
C   C3        1.0  0.47220  0.59028  0.24606  1.0000 0.4662194322
C   C4        1.0  0.52780  0.90972  0.74606  1.0000 0.4662194322
C   C5        1.0  0.02780  0.59028  0.74606  1.0000 0.4662194322
C   C6        1.0  0.97220  0.90972  0.24606  1.0000 0.4662194322
C   C7        1.0  0.52780  0.40972  0.75394  1.0000 0.4662194322
C   C8        1.0  0.47220  0.09028  0.25394  1.0000 0.4662194322
C   C9        1.0  0.92270  0.50699  0.27748  1.0000 0.4662194322
C   C10       1.0  0.07730  0.99301  0.77748  1.0000 0.4662194322
C   C11       1.0  0.42270  0.49301  0.22252  1.0000 0.4662194322
C   C12       1.0  0.57730  0.00699  0.72252  1.0000 0.4662194322
C   C13       1.0  0.07730  0.49301  0.72252  1.0000 0.4662194322
C   C14       1.0  0.92270  0.00699  0.22252  1.0000 0.4662194322
C   C15       1.0  0.57730  0.50699  0.77748  1.0000 0.4662194322
C   C16       1.0  0.42270  0.99301  0.27748  1.0000 0.4662194322
C   C17       1.0  0.02790  0.22036  0.52007  1.0000 0.5029045712
C   C18       1.0  0.97210  0.27964  0.02007  1.0000 0.5029045712
C   C19       1.0  0.52790  0.77964  0.97993  1.0000 0.5029045712
C   C20       1.0  0.47210  0.72036  0.47993  1.0000 0.5029045712
C   C21       1.0  0.97210  0.77964  0.47993  1.0000 0.5029045712
C   C22       1.0  0.02790  0.72036  0.97993  1.0000 0.5029045712
C   C23       1.0  0.47210  0.22036  0.02007  1.0000 0.5029045712
C   C24       1.0  0.52790  0.27964  0.52007  1.0000 0.5029045712
C   C25       1.0  0.97110  0.18820  0.40587  1.0000 0.1623186987
C   C26       1.0  0.02890  0.31180  0.90587  1.0000 0.1623186987
C   C27       1.0  0.47110  0.81180  0.09413  1.0000 0.1623186987
C   C28       1.0  0.52890  0.68820  0.59413  1.0000 0.1623186987
C   C29       1.0  0.02890  0.81180  0.59413  1.0000 0.1623186987
C   C30       1.0  0.97110  0.68820  0.09413  1.0000 0.1623186987
C   C31       1.0  0.52890  0.18820  0.90587  1.0000 0.1623186987
C   C32       1.0  0.47110  0.31180  0.40587  1.0000 0.1623186987
C   C33       1.0  0.79790  0.54791  0.58937  1.0000 0.5214455049
C   C34       1.0  0.20210  0.95209  0.08937  1.0000 0.5214455049
C   C35       1.0  0.29790  0.45209  0.91063  1.0000 0.5214455049
C   C36       1.0  0.70210  0.04791  0.41063  1.0000 0.5214455049
C   C37       1.0  0.20210  0.45209  0.41063  1.0000 0.5214455049
C   C38       1.0  0.79790  0.04791  0.91063  1.0000 0.5214455049
C   C39       1.0  0.70210  0.54791  0.08937  1.0000 0.5214455049
C   C40       1.0  0.29790  0.95209  0.58937  1.0000 0.5214455049
C   C41       1.0  0.77790  0.41895  0.52303  1.0000 0.1487627398
C   C42       1.0  0.22210  0.08105  0.02303  1.0000 0.1487627398
C   C43       1.0  0.27790  0.58105  0.97697  1.0000 0.1487627398
C   C44       1.0  0.72210  0.91895  0.47697  1.0000 0.1487627398
C   C45       1.0  0.22210  0.58105  0.47697  1.0000 0.1487627398
C   C46       1.0  0.77790  0.91895  0.97697  1.0000 0.1487627398
C   C47       1.0  0.72210  0.41895  0.02303  1.0000 0.1487627398
C   C48       1.0  0.27790  0.08105  0.52303  1.0000 0.1487627398
N   N1        1.0  0.99502  0.26341  0.45285  1.0000 -0.4316712101
N   N2        1.0  0.00498  0.23659  0.95285  1.0000 -0.4316712101
N   N3        1.0  0.49502  0.73659  0.04715  1.0000 -0.4316712101
N   N4        1.0  0.50498  0.76341  0.54715  1.0000 -0.4316712101
N   N5        1.0  0.00498  0.73659  0.54715  1.0000 -0.4316712101
N   N6        1.0  0.99502  0.76341  0.04715  1.0000 -0.4316712101
N   N7        1.0  0.50498  0.26341  0.95285  1.0000 -0.4316712101
N   N8        1.0  0.49502  0.23659  0.45285  1.0000 -0.4316712101
N   N9        1.0  0.98706  0.10405  0.43948  1.0000 -0.2159128119
N   N10       1.0  0.01294  0.39595  0.93948  1.0000 -0.2159128119
N   N11       1.0  0.48706  0.89595  0.06052  1.0000 -0.2159128119
N   N12       1.0  0.51294  0.60405  0.56052  1.0000 -0.2159128119
N   N13       1.0  0.01294  0.89595  0.56052  1.0000 -0.2159128119
N   N14       1.0  0.98706  0.60405  0.06052  1.0000 -0.2159128119
N   N15       1.0  0.51294  0.10405  0.93948  1.0000 -0.2159128119
N   N16       1.0  0.48706  0.39595  0.43948  1.0000 -0.2159128119
N   N17       1.0  0.02496  0.12395  0.51497  1.0000 -0.3180260234
N   N18       1.0  0.97504  0.37605  0.01497  1.0000 -0.3180260234
N   N19       1.0  0.52496  0.87605  0.98503  1.0000 -0.3180260234
N   N20       1.0  0.47504  0.62395  0.48503  1.0000 -0.3180260234
N   N21       1.0  0.97504  0.87605  0.48503  1.0000 -0.3180260234
N   N22       1.0  0.02496  0.62395  0.98503  1.0000 -0.3180260234
N   N23       1.0  0.47504  0.12395  0.01497  1.0000 -0.3180260234
N   N24       1.0  0.52496  0.37605  0.51497  1.0000 -0.3180260234
N   N25       1.0  0.06650  0.26911  0.58336  1.0000 -0.6206294824
N   N26       1.0  0.93350  0.23089  0.08336  1.0000 -0.6206294824
N   N27       1.0  0.56650  0.73089  0.91664  1.0000 -0.6206294824
N   N28       1.0  0.43350  0.76911  0.41664  1.0000 -0.6206294824
N   N29       1.0  0.93350  0.73089  0.41664  1.0000 -0.6206294824
N   N30       1.0  0.06650  0.76911  0.91664  1.0000 -0.6206294824
N   N31       1.0  0.43350  0.26911  0.08336  1.0000 -0.6206294824
N   N32       1.0  0.56650  0.23089  0.58336  1.0000 -0.6206294824
N   N33       1.0  0.87291  0.44663  0.50907  1.0000 -0.1985056516
N   N34       1.0  0.12709  0.05337  0.00907  1.0000 -0.1985056516
N   N35       1.0  0.37291  0.55337  0.99093  1.0000 -0.1985056516
N   N36       1.0  0.62709  0.94663  0.49093  1.0000 -0.1985056516
N   N37       1.0  0.12709  0.55337  0.49093  1.0000 -0.1985056516
N   N38       1.0  0.87291  0.94663  0.99093  1.0000 -0.1985056516
N   N39       1.0  0.62709  0.44663  0.00907  1.0000 -0.1985056516
N   N40       1.0  0.37291  0.05337  0.50907  1.0000 -0.1985056516
N   N41       1.0  0.88679  0.53165  0.55226  1.0000 -0.3180260234
N   N42       1.0  0.11321  0.96835  0.05226  1.0000 -0.3180260234
N   N43       1.0  0.38679  0.46835  0.94774  1.0000 -0.3180260234
N   N44       1.0  0.61321  0.03165  0.44774  1.0000 -0.3180260234
N   N45       1.0  0.11321  0.46835  0.44774  1.0000 -0.3180260234
N   N46       1.0  0.88679  0.03165  0.94774  1.0000 -0.3180260234
N   N47       1.0  0.61321  0.53165  0.05226  1.0000 -0.3180260234
N   N48       1.0  0.38679  0.96835  0.55226  1.0000 -0.3180260234
N   N49       1.0  0.72658  0.47859  0.57287  1.0000 -0.4195962031
N   N50       1.0  0.27342  0.02141  0.07287  1.0000 -0.4195962031
N   N51       1.0  0.22658  0.52141  0.92713  1.0000 -0.4195962031
N   N52       1.0  0.77342  0.97859  0.42713  1.0000 -0.4195962031
N   N53       1.0  0.27342  0.52141  0.42713  1.0000 -0.4195962031
N   N54       1.0  0.72658  0.97859  0.92713  1.0000 -0.4195962031
N   N55       1.0  0.77342  0.47859  0.07287  1.0000 -0.4195962031
N   N56       1.0  0.22658  0.02141  0.57287  1.0000 -0.4195962031
N   N57       1.0  0.77900  0.62660  0.63560  1.0000 -0.6625750889
N   N58       1.0  0.22100  0.87340  0.13560  1.0000 -0.6625750889
N   N59       1.0  0.27900  0.37340  0.86440  1.0000 -0.6625750889
N   N60       1.0  0.72100  0.12660  0.36440  1.0000 -0.6625750889
N   N61       1.0  0.22100  0.37340  0.36440  1.0000 -0.6625750889
N   N62       1.0  0.77900  0.12660  0.86440  1.0000 -0.6625750889
N   N63       1.0  0.72100  0.62660  0.13560  1.0000 -0.6625750889
N   N64       1.0  0.27900  0.87340  0.63560  1.0000 -0.6625750889
O   O1        1.0  0.00069  0.35518  0.30866  1.0000 -0.4888425139
O   O2        1.0  0.99931  0.14482  0.80866  1.0000 -0.4888425139
O   O3        1.0  0.50069  0.64482  0.19134  1.0000 -0.4888425139
O   O4        1.0  0.49931  0.85518  0.69134  1.0000 -0.4888425139
O   O5        1.0  0.99931  0.64482  0.69134  1.0000 -0.4888425139
O   O6        1.0  0.00069  0.85518  0.19134  1.0000 -0.4888425139
O   O7        1.0  0.49931  0.35518  0.80866  1.0000 -0.4888425139
O   O8        1.0  0.50069  0.14482  0.30866  1.0000 -0.4888425139
O   O9        1.0  0.91606  0.52312  0.35041  1.0000 -0.4888425139
O   O10       1.0  0.08394  0.97688  0.85041  1.0000 -0.4888425139
O   O11       1.0  0.41606  0.47688  0.14959  1.0000 -0.4888425139
O   O12       1.0  0.58394  0.02312  0.64959  1.0000 -0.4888425139
O   O13       1.0  0.08394  0.47688  0.64959  1.0000 -0.4888425139
O   O14       1.0  0.91606  0.02312  0.14959  1.0000 -0.4888425139
O   O15       1.0  0.58394  0.52312  0.85041  1.0000 -0.4888425139
O   O16       1.0  0.41606  0.97688  0.35041  1.0000 -0.4888425139
O   O17       1.0  0.89425  0.55902  0.22132  1.0000 -0.5118094464
O   O18       1.0  0.10575  0.94098  0.72132  1.0000 -0.5118094464
O   O19       1.0  0.39425  0.44098  0.27868  1.0000 -0.5118094464
O   O20       1.0  0.60575  0.05902  0.77868  1.0000 -0.5118094464
O   O21       1.0  0.10575  0.44098  0.77868  1.0000 -0.5118094464
O   O22       1.0  0.89425  0.05902  0.27868  1.0000 -0.5118094464
O   O23       1.0  0.60575  0.55902  0.72132  1.0000 -0.5118094464
O   O24       1.0  0.39425  0.94098  0.22132  1.0000 -0.5118094464
O   O25       1.0  0.98248  0.39139  0.18153  1.0000 -0.4751602043
O   O26       1.0  0.01752  0.10861  0.68153  1.0000 -0.4742555548
O   O27       1.0  0.48248  0.60861  0.31847  1.0000 -0.4742555548
O   O28       1.0  0.51752  0.89139  0.81847  1.0000 -0.4751602043
O   O29       1.0  0.01752  0.60861  0.81847  1.0000 -0.4742555548
O   O30       1.0  0.98248  0.89139  0.31847  1.0000 -0.4751602043
O   O31       1.0  0.51752  0.39139  0.68153  1.0000 -0.4742555548
O   O32       1.0  0.48248  0.10861  0.18153  1.0000 -0.4742555548
