# DDEC6 charges by PACMAN v1.1 (https://github.com/mtap-research/PACMAN-charge/)
data_2010[Zn][srs]3[FSR]1
_chemical_formula_sum              "Zn4 H4 C20 N40"
_cell_length_a       8.6429
_cell_length_b       8.8848
_cell_length_c       15.4504
_cell_angle_alpha    90
_cell_angle_beta     90
_cell_angle_gamma    90

_symmetry_space_group_name_H-M    "P 1"
_symmetry_Int_Tables_number       1

loop_
  _symmetry_equiv_pos_as_xyz
  'x, y, z'

loop_
  _atom_site_type_symbol
  _atom_site_label
  _atom_site_symmetry_multiplicity
  _atom_site_fract_x
  _atom_site_fract_y
  _atom_site_fract_z
  _atom_site_occupancy
  _atom_site_charge
Zn  Zn1       1.0  0.04852  0.74452  0.62646  1.0000 0.6188793893
Zn  Zn2       1.0  0.45148  0.25548  0.12646  1.0000 0.6188793893
Zn  Zn3       1.0  0.95148  0.24452  0.87354  1.0000 0.6188793893
Zn  Zn4       1.0  0.54852  0.75548  0.37354  1.0000 0.6188793893
H   H1        1.0  0.44400  0.85400  0.66700  1.0000 0.116564166
H   H2        1.0  0.05600  0.14600  0.16700  1.0000 0.116564166
H   H3        1.0  0.55600  0.35400  0.83300  1.0000 0.116564166
H   H4        1.0  0.94400  0.64600  0.33300  1.0000 0.116564166
C   C1        1.0  0.37920  0.87270  0.71070  1.0000 0.2156688685
C   C2        1.0  0.12080  0.12730  0.21070  1.0000 0.2156688685
C   C3        1.0  0.62080  0.37270  0.78930  1.0000 0.2156688685
C   C4        1.0  0.87920  0.62730  0.28930  1.0000 0.2156688685
C   C5        1.0  0.28170  0.01020  0.81690  1.0000 0.0830693061
C   C6        1.0  0.21830  0.98980  0.31690  1.0000 0.0830693061
C   C7        1.0  0.71830  0.51020  0.68310  1.0000 0.0830693061
C   C8        1.0  0.78170  0.48980  0.18310  1.0000 0.0830693061
C   C9        1.0  0.28180  0.09480  0.89750  1.0000 0.2526865604
C   C10       1.0  0.21820  0.90520  0.39750  1.0000 0.2526865604
C   C11       1.0  0.71820  0.59480  0.60250  1.0000 0.2526865604
C   C12       1.0  0.78180  0.40520  0.10250  1.0000 0.2526865604
C   C13       1.0  0.16480  0.95440  0.76620  1.0000 0.0244459242
C   C14       1.0  0.33520  0.04560  0.26620  1.0000 0.0244459242
C   C15       1.0  0.83520  0.45440  0.73380  1.0000 0.0244459242
C   C16       1.0  0.66480  0.54560  0.23380  1.0000 0.0244459242
C   C17       1.0  0.99840  0.96190  0.76750  1.0000 0.2663540209
C   C18       1.0  0.50160  0.03810  0.26750  1.0000 0.2663540209
C   C19       1.0  0.00160  0.46190  0.73250  1.0000 0.2663540209
C   C20       1.0  0.49840  0.53810  0.23250  1.0000 0.2663540209
N   N1        1.0  0.22680  0.86710  0.69980  1.0000 -0.3229891544
N   N2        1.0  0.27320  0.13290  0.19980  1.0000 -0.3229891544
N   N3        1.0  0.77320  0.36710  0.80020  1.0000 -0.3229891544
N   N4        1.0  0.72680  0.63290  0.30020  1.0000 -0.3229891544
N   N5        1.0  0.41680  0.95990  0.77940  1.0000 -0.2747115528
N   N6        1.0  0.08320  0.04010  0.27940  1.0000 -0.2747115528
N   N7        1.0  0.58320  0.45990  0.72060  1.0000 -0.2751908635
N   N8        1.0  0.91680  0.54010  0.22060  1.0000 -0.2747115528
N   N9        1.0  0.40520  0.10740  0.94750  1.0000 -0.2187708676
N   N10       1.0  0.09480  0.89260  0.44750  1.0000 -0.2187708676
N   N11       1.0  0.59480  0.60740  0.55250  1.0000 -0.2187708676
N   N12       1.0  0.90520  0.39260  0.05250  1.0000 -0.2187708676
N   N13       1.0  0.35200  0.18960  0.01350  1.0000 -0.0015337097
N   N14       1.0  0.14800  0.81040  0.51350  1.0000 -0.0015337097
N   N15       1.0  0.64800  0.68960  0.48650  1.0000 -0.0015337097
N   N16       1.0  0.85200  0.31040  0.98650  1.0000 -0.0015337097
N   N17       1.0  0.20650  0.22410  0.00460  1.0000 -0.0260404271
N   N18       1.0  0.29350  0.77590  0.50460  1.0000 -0.0260404271
N   N19       1.0  0.79350  0.72410  0.49540  1.0000 -0.0248368902
N   N20       1.0  0.70650  0.27590  0.99540  1.0000 -0.0260404271
N   N21       1.0  0.15860  0.16550  0.92980  1.0000 -0.2187708676
N   N22       1.0  0.34140  0.83450  0.42980  1.0000 -0.2187708676
N   N23       1.0  0.84140  0.66550  0.57020  1.0000 -0.2187708676
N   N24       1.0  0.65860  0.33450  0.07020  1.0000 -0.2187708676
N   N25       1.0  0.92100  0.87130  0.71400  1.0000 -0.2277666514
N   N26       1.0  0.57900  0.12870  0.21400  1.0000 -0.2277666514
N   N27       1.0  0.07900  0.37130  0.78600  1.0000 -0.2277666514
N   N28       1.0  0.42100  0.62870  0.28600  1.0000 -0.2277666514
N   N29       1.0  0.76930  0.90040  0.72660  1.0000 -0.0424547668
N   N30       1.0  0.73070  0.09960  0.22660  1.0000 -0.0424547668
N   N31       1.0  0.23070  0.40040  0.77340  1.0000 -0.0424547668
N   N32       1.0  0.26930  0.59960  0.27340  1.0000 -0.0424547668
N   N33       1.0  0.75700  0.00650  0.78580  1.0000 -0.0260404271
N   N34       1.0  0.74300  0.99350  0.28580  1.0000 -0.0260404271
N   N35       1.0  0.24300  0.50650  0.71420  1.0000 -0.0260404271
N   N36       1.0  0.25700  0.49350  0.21420  1.0000 -0.0260404271
N   N37       1.0  0.90160  0.04600  0.81310  1.0000 -0.2187708676
N   N38       1.0  0.59840  0.95400  0.31310  1.0000 -0.2187708676
N   N39       1.0  0.09840  0.54600  0.68690  1.0000 -0.2187708676
N   N40       1.0  0.40160  0.45400  0.18690  1.0000 -0.2187708676
