# DDEC6 charges by PACMAN v1.1 (https://github.com/mtap-research/PACMAN-charge/)
data_2010[Zn][nan]3[FSR]8
_chemical_formula_sum              "Zn24 H192 C240 N16 O80"
_cell_length_a       24.8859
_cell_length_b       24.8859
_cell_length_c       15.1743
_cell_angle_alpha    90
_cell_angle_beta     90
_cell_angle_gamma    90

_symmetry_space_group_name_H-M    "P 1"
_symmetry_Int_Tables_number       1

loop_
  _symmetry_equiv_pos_as_xyz
  'x, y, z'

loop_
  _atom_site_type_symbol
  _atom_site_label
  _atom_site_symmetry_multiplicity
  _atom_site_fract_x
  _atom_site_fract_y
  _atom_site_fract_z
  _atom_site_occupancy
  _atom_site_charge
Zn  Zn1       1.0  0.97758  0.12078  0.96977  1.0000 0.8466649133
Zn  Zn2       1.0  0.02242  0.87922  0.96977  1.0000 0.8466649133
Zn  Zn3       1.0  0.87922  0.97758  0.03023  1.0000 0.8466649133
Zn  Zn4       1.0  0.12078  0.02242  0.03023  1.0000 0.8466649133
Zn  Zn5       1.0  0.47758  0.37922  0.53023  1.0000 0.8466649133
Zn  Zn6       1.0  0.52242  0.62078  0.53023  1.0000 0.8466649133
Zn  Zn7       1.0  0.37922  0.52242  0.46977  1.0000 0.8466649133
Zn  Zn8       1.0  0.62078  0.47758  0.46977  1.0000 0.8466649133
Zn  Zn9       1.0  0.99929  0.14903  0.75317  1.0000 0.9247384149
Zn  Zn10      1.0  0.00071  0.85097  0.75317  1.0000 0.9251452762
Zn  Zn11      1.0  0.85097  0.99929  0.24683  1.0000 0.9251452762
Zn  Zn12      1.0  0.14903  0.00071  0.24683  1.0000 0.9251452762
Zn  Zn13      1.0  0.49929  0.35097  0.74683  1.0000 0.9251452762
Zn  Zn14      1.0  0.50071  0.64903  0.74683  1.0000 0.9251452762
Zn  Zn15      1.0  0.35097  0.50071  0.25317  1.0000 0.9251452762
Zn  Zn16      1.0  0.64903  0.49929  0.25317  1.0000 0.9251452762
Zn  Zn17      1.0  0.62735  0.51765  0.03298  1.0000 0.8420438919
Zn  Zn18      1.0  0.37265  0.48235  0.03298  1.0000 0.8420438919
Zn  Zn19      1.0  0.48235  0.62735  0.96702  1.0000 0.8420438919
Zn  Zn20      1.0  0.51765  0.37265  0.96702  1.0000 0.8420438919
Zn  Zn21      1.0  0.12735  0.98235  0.46702  1.0000 0.8420438919
Zn  Zn22      1.0  0.87265  0.01765  0.46702  1.0000 0.8420438919
Zn  Zn23      1.0  0.98235  0.87265  0.53298  1.0000 0.8420438919
Zn  Zn24      1.0  0.01765  0.12735  0.53298  1.0000 0.8420438919
H   H1        1.0  0.11570  0.26840  0.78940  1.0000 0.1171438499
H   H2        1.0  0.88430  0.73160  0.78940  1.0000 0.1171438499
H   H3        1.0  0.73160  0.11570  0.21060  1.0000 0.1171438499
H   H4        1.0  0.26840  0.88430  0.21060  1.0000 0.1171438499
H   H5        1.0  0.61570  0.23160  0.71060  1.0000 0.1171438499
H   H6        1.0  0.38430  0.76840  0.71060  1.0000 0.1171438499
H   H7        1.0  0.23160  0.38430  0.28940  1.0000 0.1171438499
H   H8        1.0  0.76840  0.61570  0.28940  1.0000 0.1171438499
H   H9        1.0  0.18520  0.32740  0.82170  1.0000 0.1131905028
H   H10       1.0  0.81480  0.67260  0.82170  1.0000 0.1131905028
H   H11       1.0  0.67260  0.18520  0.17830  1.0000 0.1131905028
H   H12       1.0  0.32740  0.81480  0.17830  1.0000 0.1171438499
H   H13       1.0  0.68520  0.17260  0.67830  1.0000 0.1171438499
H   H14       1.0  0.31480  0.82740  0.67830  1.0000 0.1171438499
H   H15       1.0  0.17260  0.31480  0.32170  1.0000 0.1171438499
H   H16       1.0  0.82740  0.68520  0.32170  1.0000 0.1131905028
H   H17       1.0  0.17370  0.28580  0.07910  1.0000 0.1131905028
H   H18       1.0  0.82630  0.71420  0.07910  1.0000 0.1131905028
H   H19       1.0  0.71420  0.17370  0.92090  1.0000 0.1131905028
H   H20       1.0  0.28580  0.82630  0.92090  1.0000 0.1131905028
H   H21       1.0  0.67370  0.21420  0.42090  1.0000 0.1131905028
H   H22       1.0  0.32630  0.78580  0.42090  1.0000 0.1131905028
H   H23       1.0  0.21420  0.32630  0.57910  1.0000 0.1131905028
H   H24       1.0  0.78580  0.67370  0.57910  1.0000 0.1131905028
H   H25       1.0  0.10450  0.22740  0.04440  1.0000 0.129565931
H   H26       1.0  0.89550  0.77260  0.04440  1.0000 0.129565931
H   H27       1.0  0.77260  0.10450  0.95560  1.0000 0.129565931
H   H28       1.0  0.22740  0.89550  0.95560  1.0000 0.129565931
H   H29       1.0  0.60450  0.27260  0.45560  1.0000 0.129565931
H   H30       1.0  0.39550  0.72740  0.45560  1.0000 0.129565931
H   H31       1.0  0.27260  0.39550  0.54440  1.0000 0.129565931
H   H32       1.0  0.72740  0.60450  0.54440  1.0000 0.129565931
H   H33       1.0  0.20620  0.37160  0.09900  1.0000 0.129565931
H   H34       1.0  0.79380  0.62840  0.09900  1.0000 0.129565931
H   H35       1.0  0.62840  0.20620  0.90100  1.0000 0.129565931
H   H36       1.0  0.37160  0.79380  0.90100  1.0000 0.129565931
H   H37       1.0  0.70620  0.12840  0.40100  1.0000 0.129565931
H   H38       1.0  0.29380  0.87160  0.40100  1.0000 0.129565931
H   H39       1.0  0.12840  0.29380  0.59900  1.0000 0.129565931
H   H40       1.0  0.87160  0.70620  0.59900  1.0000 0.129565931
H   H41       1.0  0.27430  0.43490  0.12390  1.0000 0.1131905028
H   H42       1.0  0.72570  0.56510  0.12390  1.0000 0.1131905028
H   H43       1.0  0.56510  0.27430  0.87610  1.0000 0.1131905028
H   H44       1.0  0.43490  0.72570  0.87610  1.0000 0.1131905028
H   H45       1.0  0.77430  0.06510  0.37610  1.0000 0.1131905028
H   H46       1.0  0.22570  0.93490  0.37610  1.0000 0.1131905028
H   H47       1.0  0.06510  0.22570  0.62390  1.0000 0.1131905028
H   H48       1.0  0.93490  0.77430  0.62390  1.0000 0.1131905028
H   H49       1.0  0.33680  0.40750  0.89250  1.0000 0.1131905028
H   H50       1.0  0.66320  0.59250  0.89250  1.0000 0.1131905028
H   H51       1.0  0.59250  0.33680  0.10750  1.0000 0.1131905028
H   H52       1.0  0.40750  0.66320  0.10750  1.0000 0.1131905028
H   H53       1.0  0.83680  0.09250  0.60750  1.0000 0.1131905028
H   H54       1.0  0.16320  0.90750  0.60750  1.0000 0.1131905028
H   H55       1.0  0.09250  0.16320  0.39250  1.0000 0.1131905028
H   H56       1.0  0.90750  0.83680  0.39250  1.0000 0.1131905028
H   H57       1.0  0.27070  0.34470  0.85830  1.0000 0.129565931
H   H58       1.0  0.72930  0.65530  0.85830  1.0000 0.129565931
H   H59       1.0  0.65530  0.27070  0.14170  1.0000 0.129565931
H   H60       1.0  0.34470  0.72930  0.14170  1.0000 0.129565931
H   H61       1.0  0.77070  0.15530  0.64170  1.0000 0.129565931
H   H62       1.0  0.22930  0.84470  0.64170  1.0000 0.129565931
H   H63       1.0  0.15530  0.22930  0.35830  1.0000 0.129565931
H   H64       1.0  0.84470  0.77070  0.35830  1.0000 0.129565931
H   H65       1.0  0.71300  0.38000  0.97690  1.0000 0.129565931
H   H66       1.0  0.28700  0.62000  0.97690  1.0000 0.129565931
H   H67       1.0  0.62000  0.71300  0.02310  1.0000 0.129565931
H   H68       1.0  0.38000  0.28700  0.02310  1.0000 0.129565931
H   H69       1.0  0.21300  0.12000  0.52310  1.0000 0.129565931
H   H70       1.0  0.78700  0.88000  0.52310  1.0000 0.129565931
H   H71       1.0  0.12000  0.78700  0.47690  1.0000 0.129565931
H   H72       1.0  0.88000  0.21300  0.47690  1.0000 0.129565931
H   H73       1.0  0.76900  0.30890  0.93740  1.0000 0.1171438499
H   H74       1.0  0.23100  0.69110  0.93740  1.0000 0.1171438499
H   H75       1.0  0.69110  0.76900  0.06260  1.0000 0.1171438499
H   H76       1.0  0.30890  0.23100  0.06260  1.0000 0.1171438499
H   H77       1.0  0.26900  0.19110  0.56260  1.0000 0.1171438499
H   H78       1.0  0.73100  0.80890  0.56260  1.0000 0.1171438499
H   H79       1.0  0.19110  0.73100  0.43740  1.0000 0.1171438499
H   H80       1.0  0.80890  0.26900  0.43740  1.0000 0.1171438499
H   H81       1.0  0.82100  0.29970  0.18840  1.0000 0.1171438499
H   H82       1.0  0.17900  0.70030  0.18840  1.0000 0.1171438499
H   H83       1.0  0.70030  0.82100  0.81160  1.0000 0.1171438499
H   H84       1.0  0.29970  0.17900  0.81160  1.0000 0.1171438499
H   H85       1.0  0.32100  0.20030  0.31160  1.0000 0.1171438499
H   H86       1.0  0.67900  0.79970  0.31160  1.0000 0.1171438499
H   H87       1.0  0.20030  0.67900  0.68840  1.0000 0.1171438499
H   H88       1.0  0.79970  0.32100  0.68840  1.0000 0.1171438499
H   H89       1.0  0.76540  0.37160  0.22660  1.0000 0.1171438499
H   H90       1.0  0.23460  0.62840  0.22660  1.0000 0.1171438499
H   H91       1.0  0.62840  0.76540  0.77340  1.0000 0.1171438499
H   H92       1.0  0.37160  0.23460  0.77340  1.0000 0.1171438499
H   H93       1.0  0.26540  0.12840  0.27340  1.0000 0.1171438499
H   H94       1.0  0.73460  0.87160  0.27340  1.0000 0.1171438499
H   H95       1.0  0.12840  0.73460  0.72660  1.0000 0.1171438499
H   H96       1.0  0.87160  0.26540  0.72660  1.0000 0.1171438499
H   H97       1.0  0.85570  0.27990  0.91030  1.0000 0.129565931
H   H98       1.0  0.14430  0.72010  0.91030  1.0000 0.129565931
H   H99       1.0  0.72010  0.85570  0.08970  1.0000 0.129565931
H   H100      1.0  0.27990  0.14430  0.08970  1.0000 0.129565931
H   H101      1.0  0.35570  0.22010  0.58970  1.0000 0.129565931
H   H102      1.0  0.64430  0.77990  0.58970  1.0000 0.129565931
H   H103      1.0  0.22010  0.64430  0.41030  1.0000 0.129565931
H   H104      1.0  0.77990  0.35570  0.41030  1.0000 0.129565931
H   H105      1.0  0.91900  0.21520  0.87890  1.0000 0.1131905028
H   H106      1.0  0.08100  0.78480  0.87890  1.0000 0.1171438499
H   H107      1.0  0.78480  0.91900  0.12110  1.0000 0.1171438499
H   H108      1.0  0.21520  0.08100  0.12110  1.0000 0.1131905028
H   H109      1.0  0.41900  0.28480  0.62110  1.0000 0.1171438499
H   H110      1.0  0.58100  0.71520  0.62110  1.0000 0.1171438499
H   H111      1.0  0.28480  0.58100  0.37890  1.0000 0.1171438499
H   H112      1.0  0.71520  0.41900  0.37890  1.0000 0.1131905028
H   H113      1.0  0.89700  0.14670  0.10830  1.0000 0.1131905028
H   H114      1.0  0.10300  0.85330  0.10830  1.0000 0.1131905028
H   H115      1.0  0.85330  0.89700  0.89170  1.0000 0.1131905028
H   H116      1.0  0.14670  0.10300  0.89170  1.0000 0.1131905028
H   H117      1.0  0.39700  0.35330  0.39170  1.0000 0.1131905028
H   H118      1.0  0.60300  0.64670  0.39170  1.0000 0.1131905028
H   H119      1.0  0.35330  0.60300  0.60830  1.0000 0.1131905028
H   H120      1.0  0.64670  0.39700  0.60830  1.0000 0.1131905028
H   H121      1.0  0.83170  0.20970  0.14490  1.0000 0.129565931
H   H122      1.0  0.16830  0.79030  0.14490  1.0000 0.129565931
H   H123      1.0  0.79030  0.83170  0.85510  1.0000 0.129565931
H   H124      1.0  0.20970  0.16830  0.85510  1.0000 0.129565931
H   H125      1.0  0.33170  0.29030  0.35510  1.0000 0.129565931
H   H126      1.0  0.66830  0.70970  0.35510  1.0000 0.129565931
H   H127      1.0  0.29030  0.66830  0.64490  1.0000 0.129565931
H   H128      1.0  0.70970  0.33170  0.64490  1.0000 0.129565931
H   H129      1.0  0.95930  0.03390  0.78660  1.0000 0.0985804958
H   H130      1.0  0.04070  0.96610  0.78660  1.0000 0.0985804958
H   H131      1.0  0.96610  0.95930  0.21340  1.0000 0.0985804958
H   H132      1.0  0.03390  0.04070  0.21340  1.0000 0.0985804958
H   H133      1.0  0.45930  0.46610  0.71340  1.0000 0.0985804958
H   H134      1.0  0.54070  0.53390  0.71340  1.0000 0.0985804958
H   H135      1.0  0.46610  0.54070  0.28660  1.0000 0.0985804958
H   H136      1.0  0.53390  0.45930  0.28660  1.0000 0.0985804958
H   H137      1.0  0.90560  0.09470  0.71100  1.0000 0.129565931
H   H138      1.0  0.09440  0.90530  0.71100  1.0000 0.129565931
H   H139      1.0  0.90530  0.90560  0.28900  1.0000 0.129565931
H   H140      1.0  0.09470  0.09440  0.28900  1.0000 0.129565931
H   H141      1.0  0.40560  0.40530  0.78900  1.0000 0.129565931
H   H142      1.0  0.59440  0.59470  0.78900  1.0000 0.129565931
H   H143      1.0  0.40530  0.59440  0.21100  1.0000 0.129565931
H   H144      1.0  0.59470  0.40560  0.21100  1.0000 0.129565931
H   H145      1.0  0.86980  0.04680  0.74980  1.0000 0.1477615082
H   H146      1.0  0.13020  0.95320  0.74980  1.0000 0.1477615082
H   H147      1.0  0.95320  0.86980  0.25020  1.0000 0.1477615082
H   H148      1.0  0.04680  0.13020  0.25020  1.0000 0.1477615082
H   H149      1.0  0.36980  0.45320  0.75020  1.0000 0.1477615082
H   H150      1.0  0.63020  0.54680  0.75020  1.0000 0.1477615082
H   H151      1.0  0.45320  0.63020  0.24980  1.0000 0.1477615082
H   H152      1.0  0.54680  0.36980  0.24980  1.0000 0.1477615082
H   H153      1.0  0.87010  0.10420  0.79750  1.0000 0.1357455965
H   H154      1.0  0.12990  0.89580  0.79750  1.0000 0.1357455965
H   H155      1.0  0.89580  0.87010  0.20250  1.0000 0.1357455965
H   H156      1.0  0.10420  0.12990  0.20250  1.0000 0.1357455965
H   H157      1.0  0.37010  0.39580  0.70250  1.0000 0.1357455965
H   H158      1.0  0.62990  0.60420  0.70250  1.0000 0.1357455965
H   H159      1.0  0.39580  0.62990  0.29750  1.0000 0.1357455965
H   H160      1.0  0.60420  0.37010  0.29750  1.0000 0.1357455965
H   H161      1.0  0.06840  0.05170  0.72090  1.0000 0.0985804958
H   H162      1.0  0.93160  0.94830  0.72090  1.0000 0.0985804958
H   H163      1.0  0.94830  0.06840  0.27910  1.0000 0.0985804958
H   H164      1.0  0.05170  0.93160  0.27910  1.0000 0.0985804958
H   H165      1.0  0.56840  0.44830  0.77910  1.0000 0.0985804958
H   H166      1.0  0.43160  0.55170  0.77910  1.0000 0.0985804958
H   H167      1.0  0.44830  0.43160  0.22090  1.0000 0.0985804958
H   H168      1.0  0.55170  0.56840  0.22090  1.0000 0.0985804958
H   H169      1.0  0.12160  0.13210  0.74840  1.0000 0.129565931
H   H170      1.0  0.87840  0.86790  0.74840  1.0000 0.129565931
H   H171      1.0  0.86790  0.12160  0.25160  1.0000 0.129565931
H   H172      1.0  0.13210  0.87840  0.25160  1.0000 0.129565931
H   H173      1.0  0.62160  0.36790  0.75160  1.0000 0.129565931
H   H174      1.0  0.37840  0.63210  0.75160  1.0000 0.129565931
H   H175      1.0  0.36790  0.37840  0.24840  1.0000 0.129565931
H   H176      1.0  0.63210  0.62160  0.24840  1.0000 0.129565931
H   H177      1.0  0.14090  0.13050  0.64790  1.0000 0.129565931
H   H178      1.0  0.85910  0.86950  0.64790  1.0000 0.129565931
H   H179      1.0  0.86950  0.14090  0.35210  1.0000 0.129565931
H   H180      1.0  0.13050  0.85910  0.35210  1.0000 0.129565931
H   H181      1.0  0.64090  0.36950  0.85210  1.0000 0.129565931
H   H182      1.0  0.35910  0.63050  0.85210  1.0000 0.129565931
H   H183      1.0  0.36950  0.35910  0.14790  1.0000 0.129565931
H   H184      1.0  0.63050  0.64090  0.14790  1.0000 0.129565931
H   H185      1.0  0.15750  0.08310  0.71380  1.0000 0.1477615082
H   H186      1.0  0.84250  0.91690  0.71380  1.0000 0.1477615082
H   H187      1.0  0.91690  0.15750  0.28620  1.0000 0.1477615082
H   H188      1.0  0.08310  0.84250  0.28620  1.0000 0.1477615082
H   H189      1.0  0.65750  0.41690  0.78620  1.0000 0.1477615082
H   H190      1.0  0.34250  0.58310  0.78620  1.0000 0.1477615082
H   H191      1.0  0.41690  0.34250  0.21380  1.0000 0.1477615082
H   H192      1.0  0.58310  0.65750  0.21380  1.0000 0.1477615082
C   C1        1.0  0.10280  0.24220  0.91350  1.0000 -0.0339319926
C   C2        1.0  0.89720  0.75780  0.91350  1.0000 -0.0339319926
C   C3        1.0  0.75780  0.10280  0.08650  1.0000 -0.0339319926
C   C4        1.0  0.24220  0.89720  0.08650  1.0000 -0.0339319926
C   C5        1.0  0.60280  0.25780  0.58650  1.0000 -0.0339319926
C   C6        1.0  0.39720  0.74220  0.58650  1.0000 -0.0339319926
C   C7        1.0  0.25780  0.39720  0.41350  1.0000 -0.0339319926
C   C8        1.0  0.74220  0.60280  0.41350  1.0000 -0.0339319926
C   C9        1.0  0.12740  0.27210  0.84870  1.0000 -0.1114548311
C   C10       1.0  0.87260  0.72790  0.84870  1.0000 -0.1114548311
C   C11       1.0  0.72790  0.12740  0.15130  1.0000 -0.1114548311
C   C12       1.0  0.27210  0.87260  0.15130  1.0000 -0.1114548311
C   C13       1.0  0.62740  0.22790  0.65130  1.0000 -0.1114548311
C   C14       1.0  0.37260  0.77210  0.65130  1.0000 -0.1114548311
C   C15       1.0  0.22790  0.37260  0.34870  1.0000 -0.1114548311
C   C16       1.0  0.77210  0.62740  0.34870  1.0000 -0.1114548311
C   C17       1.0  0.16880  0.30730  0.86770  1.0000 -0.1534866837
C   C18       1.0  0.83120  0.69270  0.86770  1.0000 -0.1534866837
C   C19       1.0  0.69270  0.16880  0.13230  1.0000 -0.1534866837
C   C20       1.0  0.30730  0.83120  0.13230  1.0000 -0.1534866837
C   C21       1.0  0.66880  0.19270  0.63230  1.0000 -0.1534866837
C   C22       1.0  0.33120  0.80730  0.63230  1.0000 -0.1534866837
C   C23       1.0  0.19270  0.33120  0.36770  1.0000 -0.1534866837
C   C24       1.0  0.80730  0.66880  0.36770  1.0000 -0.1534866837
C   C25       1.0  0.18640  0.31340  0.95390  1.0000 0.0695292748
C   C26       1.0  0.81360  0.68660  0.95390  1.0000 0.0695292748
C   C27       1.0  0.68660  0.18640  0.04610  1.0000 0.0695292748
C   C28       1.0  0.31340  0.81360  0.04610  1.0000 0.0695292748
C   C29       1.0  0.68640  0.18660  0.54610  1.0000 0.0695292748
C   C30       1.0  0.31360  0.81340  0.54610  1.0000 0.0695292748
C   C31       1.0  0.18660  0.31360  0.45390  1.0000 0.0695292748
C   C32       1.0  0.81340  0.68640  0.45390  1.0000 0.0695292748
C   C33       1.0  0.16200  0.28270  0.01980  1.0000 -0.1534866837
C   C34       1.0  0.83800  0.71730  0.01980  1.0000 -0.1534866837
C   C35       1.0  0.71730  0.16200  0.98020  1.0000 -0.1534866837
C   C36       1.0  0.28270  0.83800  0.98020  1.0000 -0.1534866837
C   C37       1.0  0.66200  0.21730  0.48020  1.0000 -0.1534866837
C   C38       1.0  0.33800  0.78270  0.48020  1.0000 -0.1534866837
C   C39       1.0  0.21730  0.33800  0.51980  1.0000 -0.1534866837
C   C40       1.0  0.78270  0.66200  0.51980  1.0000 -0.1534866837
C   C41       1.0  0.12090  0.24800  0.99890  1.0000 -0.0992382622
C   C42       1.0  0.87910  0.75200  0.99890  1.0000 -0.0992382622
C   C43       1.0  0.75200  0.12090  0.00110  1.0000 -0.0992382622
C   C44       1.0  0.24800  0.87910  0.00110  1.0000 -0.0992382622
C   C45       1.0  0.62090  0.25200  0.50110  1.0000 -0.0992382622
C   C46       1.0  0.37910  0.74800  0.50110  1.0000 -0.0992382622
C   C47       1.0  0.25200  0.37910  0.49890  1.0000 -0.0992382622
C   C48       1.0  0.74800  0.62090  0.49890  1.0000 -0.0992382622
C   C49       1.0  0.22980  0.35240  0.97410  1.0000 0.1171438499
C   C50       1.0  0.77020  0.64760  0.97410  1.0000 0.1171438499
C   C51       1.0  0.64760  0.22980  0.02590  1.0000 0.1171438499
C   C52       1.0  0.35240  0.77020  0.02590  1.0000 0.1171438499
C   C53       1.0  0.72980  0.14760  0.52590  1.0000 0.1171438499
C   C54       1.0  0.27020  0.85240  0.52590  1.0000 0.1171438499
C   C55       1.0  0.14760  0.27020  0.47410  1.0000 0.1171438499
C   C56       1.0  0.85240  0.72980  0.47410  1.0000 0.1171438499
C   C57       1.0  0.23200  0.37890  0.05450  1.0000 -0.1998978514
C   C58       1.0  0.76800  0.62110  0.05450  1.0000 -0.1998978514
C   C59       1.0  0.62110  0.23200  0.94550  1.0000 -0.1998978514
C   C60       1.0  0.37890  0.76800  0.94550  1.0000 -0.1998978514
C   C61       1.0  0.73200  0.12110  0.44550  1.0000 -0.1998978514
C   C62       1.0  0.26800  0.87890  0.44550  1.0000 -0.1998978514
C   C63       1.0  0.12110  0.26800  0.55450  1.0000 -0.1998978514
C   C64       1.0  0.87890  0.73200  0.55450  1.0000 -0.1998978514
C   C65       1.0  0.27330  0.41650  0.06920  1.0000 0.0985804958
C   C66       1.0  0.72670  0.58350  0.06920  1.0000 0.0985804958
C   C67       1.0  0.58350  0.27330  0.93080  1.0000 0.0985804958
C   C68       1.0  0.41650  0.72670  0.93080  1.0000 0.0985804958
C   C69       1.0  0.77330  0.08350  0.43080  1.0000 0.0985804958
C   C70       1.0  0.22670  0.91650  0.43080  1.0000 0.0985804958
C   C71       1.0  0.08350  0.22670  0.56920  1.0000 0.0985804958
C   C72       1.0  0.91650  0.77330  0.56920  1.0000 0.0985804958
C   C73       1.0  0.30930  0.40050  0.93450  1.0000 0.0921049196
C   C74       1.0  0.69070  0.59950  0.93450  1.0000 0.0921049196
C   C75       1.0  0.59950  0.30930  0.06550  1.0000 0.0921049196
C   C76       1.0  0.40050  0.69070  0.06550  1.0000 0.0921049196
C   C77       1.0  0.80930  0.09950  0.56550  1.0000 0.0921049196
C   C78       1.0  0.19070  0.90050  0.56550  1.0000 0.0921049196
C   C79       1.0  0.09950  0.19070  0.43450  1.0000 0.0921049196
C   C80       1.0  0.90050  0.80930  0.43450  1.0000 0.0921049196
C   C81       1.0  0.27000  0.36290  0.91340  1.0000 -0.1908658963
C   C82       1.0  0.73000  0.63710  0.91340  1.0000 -0.1908658963
C   C83       1.0  0.63710  0.27000  0.08660  1.0000 -0.1908658963
C   C84       1.0  0.36290  0.73000  0.08660  1.0000 -0.1908658963
C   C85       1.0  0.77000  0.13710  0.58660  1.0000 -0.1908658963
C   C86       1.0  0.23000  0.86290  0.58660  1.0000 -0.1908658963
C   C87       1.0  0.13710  0.23000  0.41340  1.0000 -0.1908658963
C   C88       1.0  0.86290  0.77000  0.41340  1.0000 -0.1908658963
C   C89       1.0  0.05790  0.20430  0.89110  1.0000 0.5782478791
C   C90       1.0  0.94210  0.79570  0.89110  1.0000 0.5782478791
C   C91       1.0  0.79570  0.05790  0.10890  1.0000 0.5782478791
C   C92       1.0  0.20430  0.94210  0.10890  1.0000 0.5782478791
C   C93       1.0  0.55790  0.29570  0.60890  1.0000 0.5782478791
C   C94       1.0  0.44210  0.70430  0.60890  1.0000 0.5782478791
C   C95       1.0  0.29570  0.44210  0.39110  1.0000 0.5782478791
C   C96       1.0  0.70430  0.55790  0.39110  1.0000 0.5782478791
C   C97       1.0  0.73510  0.38390  0.10380  1.0000 -0.0339319926
C   C98       1.0  0.26490  0.61610  0.10380  1.0000 -0.0339319926
C   C99       1.0  0.61610  0.73510  0.89620  1.0000 -0.0339319926
C   C100      1.0  0.38390  0.26490  0.89620  1.0000 -0.0339319926
C   C101      1.0  0.23510  0.11610  0.39620  1.0000 -0.0339319926
C   C102      1.0  0.76490  0.88390  0.39620  1.0000 -0.0339319926
C   C103      1.0  0.11610  0.76490  0.60380  1.0000 -0.0339319926
C   C104      1.0  0.88390  0.23510  0.60380  1.0000 -0.0339319926
C   C105      1.0  0.73560  0.36420  0.02010  1.0000 -0.0992382622
C   C106      1.0  0.26440  0.63580  0.02010  1.0000 -0.0992382622
C   C107      1.0  0.63580  0.73560  0.97990  1.0000 -0.0992382622
C   C108      1.0  0.36420  0.26440  0.97990  1.0000 -0.0992382622
C   C109      1.0  0.23560  0.13580  0.47990  1.0000 -0.0992382622
C   C110      1.0  0.76440  0.86420  0.47990  1.0000 -0.0992382622
C   C111      1.0  0.13580  0.76440  0.52010  1.0000 -0.0992382622
C   C112      1.0  0.86420  0.23560  0.52010  1.0000 -0.0992382622
C   C113      1.0  0.76850  0.32130  0.99670  1.0000 -0.1534866837
C   C114      1.0  0.23150  0.67870  0.99670  1.0000 -0.1534866837
C   C115      1.0  0.67870  0.76850  0.00330  1.0000 -0.1534866837
C   C116      1.0  0.32130  0.23150  0.00330  1.0000 -0.1534866837
C   C117      1.0  0.26850  0.17870  0.50330  1.0000 -0.1534866837
C   C118      1.0  0.73150  0.82130  0.50330  1.0000 -0.1534866837
C   C119      1.0  0.17870  0.73150  0.49670  1.0000 -0.1534866837
C   C120      1.0  0.82130  0.26850  0.49670  1.0000 -0.1534866837
C   C121      1.0  0.80000  0.29690  0.05830  1.0000 0.0695292748
C   C122      1.0  0.20000  0.70310  0.05830  1.0000 0.0695292748
C   C123      1.0  0.70310  0.80000  0.94170  1.0000 0.0695292748
C   C124      1.0  0.29690  0.20000  0.94170  1.0000 0.0695292748
C   C125      1.0  0.30000  0.20310  0.44170  1.0000 0.0695292748
C   C126      1.0  0.70000  0.79690  0.44170  1.0000 0.0695292748
C   C127      1.0  0.20310  0.70000  0.55830  1.0000 0.0695292748
C   C128      1.0  0.79690  0.30000  0.55830  1.0000 0.0695292748
C   C129      1.0  0.79910  0.31610  0.14490  1.0000 -0.1534866837
C   C130      1.0  0.20090  0.68390  0.14490  1.0000 -0.1534866837
C   C131      1.0  0.68390  0.79910  0.85510  1.0000 -0.1534866837
C   C132      1.0  0.31610  0.20090  0.85510  1.0000 -0.1534866837
C   C133      1.0  0.29910  0.18390  0.35510  1.0000 -0.1534866837
C   C134      1.0  0.70090  0.81610  0.35510  1.0000 -0.1534866837
C   C135      1.0  0.18390  0.70090  0.64490  1.0000 -0.1534866837
C   C136      1.0  0.81610  0.29910  0.64490  1.0000 -0.1534866837
C   C137      1.0  0.76640  0.35910  0.16740  1.0000 -0.1114548311
C   C138      1.0  0.23360  0.64090  0.16740  1.0000 -0.1114548311
C   C139      1.0  0.64090  0.76640  0.83260  1.0000 -0.1114548311
C   C140      1.0  0.35910  0.23360  0.83260  1.0000 -0.1114548311
C   C141      1.0  0.26640  0.14090  0.33260  1.0000 -0.1114548311
C   C142      1.0  0.73360  0.85910  0.33260  1.0000 -0.1114548311
C   C143      1.0  0.14090  0.73360  0.66740  1.0000 -0.1114548311
C   C144      1.0  0.85910  0.26640  0.66740  1.0000 -0.1114548311
C   C145      1.0  0.83810  0.25360  0.03220  1.0000 0.1171438499
C   C146      1.0  0.16190  0.74640  0.03220  1.0000 0.1171438499
C   C147      1.0  0.74640  0.83810  0.96780  1.0000 0.1171438499
C   C148      1.0  0.25360  0.16190  0.96780  1.0000 0.1171438499
C   C149      1.0  0.33810  0.24640  0.46780  1.0000 0.1171438499
C   C150      1.0  0.66190  0.75360  0.46780  1.0000 0.1171438499
C   C151      1.0  0.24640  0.66190  0.53220  1.0000 0.1171438499
C   C152      1.0  0.75360  0.33810  0.53220  1.0000 0.1171438499
C   C153      1.0  0.86380  0.25320  0.95300  1.0000 -0.1908658963
C   C154      1.0  0.13620  0.74680  0.95300  1.0000 -0.1908658963
C   C155      1.0  0.74680  0.86380  0.04700  1.0000 -0.1908658963
C   C156      1.0  0.25320  0.13620  0.04700  1.0000 -0.1908658963
C   C157      1.0  0.36380  0.24680  0.54700  1.0000 -0.1908658963
C   C158      1.0  0.63620  0.75320  0.54700  1.0000 -0.1908658963
C   C159      1.0  0.24680  0.63620  0.45300  1.0000 -0.1908658963
C   C160      1.0  0.75320  0.36380  0.45300  1.0000 -0.1908658963
C   C161      1.0  0.90150  0.21420  0.93450  1.0000 0.082005761
C   C162      1.0  0.09850  0.78580  0.93450  1.0000 0.082005761
C   C163      1.0  0.78580  0.90150  0.06550  1.0000 0.082005761
C   C164      1.0  0.21420  0.09850  0.06550  1.0000 0.082005761
C   C165      1.0  0.40150  0.28580  0.56550  1.0000 0.082005761
C   C166      1.0  0.59850  0.71420  0.56550  1.0000 0.082005761
C   C167      1.0  0.28580  0.59850  0.43450  1.0000 0.082005761
C   C168      1.0  0.71420  0.40150  0.43450  1.0000 0.082005761
C   C169      1.0  0.88870  0.17440  0.06730  1.0000 0.0985804958
C   C170      1.0  0.11130  0.82560  0.06730  1.0000 0.0985804958
C   C171      1.0  0.82560  0.88870  0.93270  1.0000 0.0985804958
C   C172      1.0  0.17440  0.11130  0.93270  1.0000 0.0985804958
C   C173      1.0  0.38870  0.32560  0.43270  1.0000 0.0985804958
C   C174      1.0  0.61130  0.67440  0.43270  1.0000 0.0985804958
C   C175      1.0  0.32560  0.61130  0.56730  1.0000 0.0985804958
C   C176      1.0  0.67440  0.38870  0.56730  1.0000 0.0985804958
C   C177      1.0  0.85000  0.21220  0.09010  1.0000 -0.1998978514
C   C178      1.0  0.15000  0.78780  0.09010  1.0000 -0.1998978514
C   C179      1.0  0.78780  0.85000  0.90990  1.0000 -0.1998978514
C   C180      1.0  0.21220  0.15000  0.90990  1.0000 -0.1998978514
C   C181      1.0  0.35000  0.28780  0.40990  1.0000 -0.1998978514
C   C182      1.0  0.65000  0.71220  0.40990  1.0000 -0.1998978514
C   C183      1.0  0.28780  0.65000  0.59010  1.0000 -0.1998978514
C   C184      1.0  0.71220  0.35000  0.59010  1.0000 -0.1998978514
C   C185      1.0  0.70090  0.43130  0.12670  1.0000 0.5782478791
C   C186      1.0  0.29910  0.56870  0.12670  1.0000 0.5782478791
C   C187      1.0  0.56870  0.70090  0.87330  1.0000 0.5782478791
C   C188      1.0  0.43130  0.29910  0.87330  1.0000 0.5782478791
C   C189      1.0  0.20090  0.06870  0.37330  1.0000 0.5782478791
C   C190      1.0  0.79910  0.93130  0.37330  1.0000 0.5782478791
C   C191      1.0  0.06870  0.79910  0.62670  1.0000 0.5782478791
C   C192      1.0  0.93130  0.20090  0.62670  1.0000 0.5782478791
C   C193      1.0  0.93760  0.06060  0.82060  1.0000 0.1171438499
C   C194      1.0  0.06240  0.93940  0.82060  1.0000 0.1171438499
C   C195      1.0  0.93940  0.93760  0.17940  1.0000 0.1171438499
C   C196      1.0  0.06060  0.06240  0.17940  1.0000 0.1171438499
C   C197      1.0  0.43760  0.43940  0.67940  1.0000 0.1171438499
C   C198      1.0  0.56240  0.56060  0.67940  1.0000 0.1171438499
C   C199      1.0  0.43940  0.56240  0.32060  1.0000 0.1171438499
C   C200      1.0  0.56060  0.43760  0.32060  1.0000 0.1171438499
C   C201      1.0  0.91640  0.03320  0.90360  1.0000 0.5503835681
C   C202      1.0  0.08360  0.96680  0.90360  1.0000 0.5503835681
C   C203      1.0  0.96680  0.91640  0.09640  1.0000 0.5503835681
C   C204      1.0  0.03320  0.08360  0.09640  1.0000 0.5503835681
C   C205      1.0  0.41640  0.46680  0.59640  1.0000 0.5503835681
C   C206      1.0  0.58360  0.53320  0.59640  1.0000 0.5503835681
C   C207      1.0  0.46680  0.58360  0.40360  1.0000 0.5503835681
C   C208      1.0  0.53320  0.41640  0.40360  1.0000 0.5503835681
C   C209      1.0  0.89190  0.07800  0.76500  1.0000 -0.4993003082
C   C210      1.0  0.10810  0.92200  0.76500  1.0000 -0.4993003082
C   C211      1.0  0.92200  0.89190  0.23500  1.0000 -0.4993003082
C   C212      1.0  0.07800  0.10810  0.23500  1.0000 -0.4993003082
C   C213      1.0  0.39190  0.42200  0.73500  1.0000 -0.4993003082
C   C214      1.0  0.60810  0.57800  0.73500  1.0000 -0.4993003082
C   C215      1.0  0.42200  0.60810  0.26500  1.0000 -0.4993003082
C   C216      1.0  0.57800  0.39190  0.26500  1.0000 -0.4993003082
C   C217      1.0  0.08930  0.04670  0.58810  1.0000 0.5503835681
C   C218      1.0  0.91070  0.95330  0.58810  1.0000 0.5503835681
C   C219      1.0  0.95330  0.08930  0.41190  1.0000 0.5503835681
C   C220      1.0  0.04670  0.91070  0.41190  1.0000 0.5503835681
C   C221      1.0  0.58930  0.45330  0.91190  1.0000 0.5503835681
C   C222      1.0  0.41070  0.54670  0.91190  1.0000 0.5503835681
C   C223      1.0  0.45330  0.41070  0.08810  1.0000 0.5503835681
C   C224      1.0  0.54670  0.58930  0.08810  1.0000 0.5503835681
C   C225      1.0  0.07760  0.07760  0.67290  1.0000 0.1171438499
C   C226      1.0  0.92240  0.92240  0.67290  1.0000 0.1171438499
C   C227      1.0  0.92240  0.07760  0.32710  1.0000 0.1171438499
C   C228      1.0  0.07760  0.92240  0.32710  1.0000 0.1171438499
C   C229      1.0  0.57760  0.42240  0.82710  1.0000 0.1171438499
C   C230      1.0  0.42240  0.57760  0.82710  1.0000 0.1171438499
C   C231      1.0  0.42240  0.42240  0.17290  1.0000 0.1171438499
C   C232      1.0  0.57760  0.57760  0.17290  1.0000 0.1171438499
C   C233      1.0  0.12910  0.10870  0.69800  1.0000 -0.4863870364
C   C234      1.0  0.87090  0.89130  0.69800  1.0000 -0.4863870364
C   C235      1.0  0.89130  0.12910  0.30200  1.0000 -0.4863870364
C   C236      1.0  0.10870  0.87090  0.30200  1.0000 -0.4863870364
C   C237      1.0  0.62910  0.39130  0.80200  1.0000 -0.4863870364
C   C238      1.0  0.37090  0.60870  0.80200  1.0000 -0.4863870364
C   C239      1.0  0.39130  0.37090  0.19800  1.0000 -0.4863870364
C   C240      1.0  0.60870  0.62910  0.19800  1.0000 -0.4863870364
N   N1        1.0  0.31050  0.42720  0.01020  1.0000 -0.2190814201
N   N2        1.0  0.68950  0.57280  0.01020  1.0000 -0.2190814201
N   N3        1.0  0.57280  0.31050  0.98980  1.0000 -0.2190814201
N   N4        1.0  0.42720  0.68950  0.98980  1.0000 -0.2190814201
N   N5        1.0  0.81050  0.07280  0.48980  1.0000 -0.2190814201
N   N6        1.0  0.18950  0.92720  0.48980  1.0000 -0.2190814201
N   N7        1.0  0.07280  0.18950  0.51020  1.0000 -0.2190814201
N   N8        1.0  0.92720  0.81050  0.51020  1.0000 -0.2190814201
N   N9        1.0  0.91460  0.17520  0.99070  1.0000 -0.2148592841
N   N10       1.0  0.08540  0.82480  0.99070  1.0000 -0.2148592841
N   N11       1.0  0.82480  0.91460  0.00930  1.0000 -0.2148592841
N   N12       1.0  0.17520  0.08540  0.00930  1.0000 -0.2148592841
N   N13       1.0  0.41460  0.32480  0.50930  1.0000 -0.2148592841
N   N14       1.0  0.58540  0.67520  0.50930  1.0000 -0.2148592841
N   N15       1.0  0.32480  0.58540  0.49070  1.0000 -0.2148592841
N   N16       1.0  0.67520  0.41460  0.49070  1.0000 -0.2148592841
O   O1        1.0  0.03372  0.18215  0.95360  1.0000 -0.5354432386
O   O2        1.0  0.96628  0.81785  0.95360  1.0000 -0.5354432386
O   O3        1.0  0.81785  0.03372  0.04640  1.0000 -0.5354432386
O   O4        1.0  0.18215  0.96628  0.04640  1.0000 -0.5354432386
O   O5        1.0  0.53372  0.31785  0.54640  1.0000 -0.5354432386
O   O6        1.0  0.46628  0.68215  0.54640  1.0000 -0.5354432386
O   O7        1.0  0.31785  0.46628  0.45360  1.0000 -0.5354432386
O   O8        1.0  0.68215  0.53372  0.45360  1.0000 -0.5354432386
O   O9        1.0  0.04890  0.19897  0.80950  1.0000 -0.5631907728
O   O10       1.0  0.95110  0.80103  0.80950  1.0000 -0.5631907728
O   O11       1.0  0.80103  0.04890  0.19050  1.0000 -0.5631907728
O   O12       1.0  0.19897  0.95110  0.19050  1.0000 -0.5631907728
O   O13       1.0  0.54890  0.30103  0.69050  1.0000 -0.5631907728
O   O14       1.0  0.45110  0.69897  0.69050  1.0000 -0.5631907728
O   O15       1.0  0.30103  0.45110  0.30950  1.0000 -0.5631907728
O   O16       1.0  0.69897  0.54890  0.30950  1.0000 -0.5631907728
O   O17       1.0  0.69860  0.44440  0.20750  1.0000 -0.5631907728
O   O18       1.0  0.30140  0.55560  0.20750  1.0000 -0.5631907728
O   O19       1.0  0.55560  0.69860  0.79250  1.0000 -0.5631907728
O   O20       1.0  0.44440  0.30140  0.79250  1.0000 -0.5631907728
O   O21       1.0  0.19860  0.05560  0.29250  1.0000 -0.5631907728
O   O22       1.0  0.80140  0.94440  0.29250  1.0000 -0.5631907728
O   O23       1.0  0.05560  0.80140  0.70750  1.0000 -0.5631907728
O   O24       1.0  0.94440  0.19860  0.70750  1.0000 -0.5631907728
O   O25       1.0  0.67840  0.45450  0.06560  1.0000 -0.5270816532
O   O26       1.0  0.32160  0.54550  0.06560  1.0000 -0.5270816532
O   O27       1.0  0.54550  0.67840  0.93440  1.0000 -0.5270816532
O   O28       1.0  0.45450  0.32160  0.93440  1.0000 -0.5270816532
O   O29       1.0  0.17840  0.04550  0.43440  1.0000 -0.5270816532
O   O30       1.0  0.82160  0.95450  0.43440  1.0000 -0.5270816532
O   O31       1.0  0.04550  0.82160  0.56560  1.0000 -0.5270816532
O   O32       1.0  0.95450  0.17840  0.56560  1.0000 -0.5270816532
O   O33       1.0  0.97099  0.10391  0.84350  1.0000 -0.617913
O   O34       1.0  0.02901  0.89609  0.84350  1.0000 -0.617913
O   O35       1.0  0.89609  0.97099  0.15650  1.0000 -0.617913
O   O36       1.0  0.10391  0.02901  0.15650  1.0000 -0.617913
O   O37       1.0  0.47099  0.39609  0.65650  1.0000 -0.617913
O   O38       1.0  0.52901  0.60391  0.65650  1.0000 -0.617913
O   O39       1.0  0.39609  0.52901  0.34350  1.0000 -0.617913
O   O40       1.0  0.60391  0.47099  0.34350  1.0000 -0.617913
O   O41       1.0  0.92991  0.05114  0.97710  1.0000 -0.5137650218
O   O42       1.0  0.07009  0.94886  0.97710  1.0000 -0.5137650218
O   O43       1.0  0.94886  0.92991  0.02290  1.0000 -0.5137650218
O   O44       1.0  0.05114  0.07009  0.02290  1.0000 -0.5137650218
O   O45       1.0  0.42991  0.44886  0.52290  1.0000 -0.5137650218
O   O46       1.0  0.57009  0.55114  0.52290  1.0000 -0.5137650218
O   O47       1.0  0.44886  0.57009  0.47710  1.0000 -0.5137650218
O   O48       1.0  0.55114  0.42991  0.47710  1.0000 -0.5137650218
O   O49       1.0  0.88670  0.99260  0.89620  1.0000 -0.5137650218
O   O50       1.0  0.11330  0.00740  0.89620  1.0000 -0.5137650218
O   O51       1.0  0.00740  0.88670  0.10380  1.0000 -0.5137650218
O   O52       1.0  0.99260  0.11330  0.10380  1.0000 -0.5137650218
O   O53       1.0  0.38670  0.50740  0.60380  1.0000 -0.5137650218
O   O54       1.0  0.61330  0.49260  0.60380  1.0000 -0.5137650218
O   O55       1.0  0.50740  0.61330  0.39620  1.0000 -0.5137650218
O   O56       1.0  0.49260  0.38670  0.39620  1.0000 -0.5137650218
O   O57       1.0  0.12260  0.00830  0.59250  1.0000 -0.5157614273
O   O58       1.0  0.87740  0.99170  0.59250  1.0000 -0.5157614273
O   O59       1.0  0.99170  0.12260  0.40750  1.0000 -0.5157614273
O   O60       1.0  0.00830  0.87740  0.40750  1.0000 -0.5157614273
O   O61       1.0  0.62260  0.49170  0.90750  1.0000 -0.5157614273
O   O62       1.0  0.37740  0.50830  0.90750  1.0000 -0.5157614273
O   O63       1.0  0.49170  0.37740  0.09250  1.0000 -0.5157614273
O   O64       1.0  0.50830  0.62260  0.09250  1.0000 -0.5157614273
O   O65       1.0  0.06791  0.06167  0.51790  1.0000 -0.5157614273
O   O66       1.0  0.93209  0.93833  0.51790  1.0000 -0.5157614273
O   O67       1.0  0.93833  0.06791  0.48210  1.0000 -0.5157614273
O   O68       1.0  0.06167  0.93209  0.48210  1.0000 -0.5157614273
O   O69       1.0  0.56791  0.43833  0.98210  1.0000 -0.5157614273
O   O70       1.0  0.43209  0.56167  0.98210  1.0000 -0.5157614273
O   O71       1.0  0.43833  0.43209  0.01790  1.0000 -0.5157614273
O   O72       1.0  0.56167  0.56791  0.01790  1.0000 -0.5157614273
O   O73       1.0  0.03412  0.11258  0.65860  1.0000 -0.6264358681
O   O74       1.0  0.96588  0.88742  0.65860  1.0000 -0.6264358681
O   O75       1.0  0.88742  0.03412  0.34140  1.0000 -0.6264358681
O   O76       1.0  0.11258  0.96588  0.34140  1.0000 -0.6264358681
O   O77       1.0  0.53412  0.38742  0.84140  1.0000 -0.6264358681
O   O78       1.0  0.46588  0.61258  0.84140  1.0000 -0.6264358681
O   O79       1.0  0.38742  0.46588  0.15860  1.0000 -0.6264358681
O   O80       1.0  0.61258  0.53412  0.15860  1.0000 -0.6264358681
