# DDEC6 charges by PACMAN v1.1 (https://github.com/mtap-research/PACMAN-charge/)
data_2010[Cd][dia]3[FSR]5
_chemical_formula_sum              "Cd4 H136 C152 N16 O16"
_cell_length_a       10.4451
_cell_length_b       12.4548
_cell_length_c       28.6487
_cell_angle_alpha    90
_cell_angle_beta     90
_cell_angle_gamma    90

_symmetry_space_group_name_H-M    "P 1"
_symmetry_Int_Tables_number       1

loop_
  _symmetry_equiv_pos_as_xyz
  'x, y, z'

loop_
  _atom_site_type_symbol
  _atom_site_label
  _atom_site_symmetry_multiplicity
  _atom_site_fract_x
  _atom_site_fract_y
  _atom_site_fract_z
  _atom_site_occupancy
  _atom_site_charge
Cd  Cd1       1.0  0.76681  0.15171  0.93909  1.0000 0.7634140221
Cd  Cd2       1.0  0.73319  0.84829  0.43909  1.0000 0.7634140221
Cd  Cd3       1.0  0.23319  0.65171  0.56091  1.0000 0.7634140221
Cd  Cd4       1.0  0.26681  0.34829  0.06091  1.0000 0.7634140221
H   H1        1.0  0.40130  0.05090  0.14360  1.0000 0.1182253673
H   H2        1.0  0.09870  0.94910  0.64360  1.0000 0.1182253673
H   H3        1.0  0.59870  0.55090  0.35640  1.0000 0.1182253673
H   H4        1.0  0.90130  0.44910  0.85640  1.0000 0.1182253673
H   H5        1.0  0.39280  0.88600  0.19440  1.0000 0.1119054516
H   H6        1.0  0.10720  0.11400  0.69440  1.0000 0.1119054516
H   H7        1.0  0.60720  0.38600  0.30560  1.0000 0.1119054516
H   H8        1.0  0.89280  0.61400  0.80560  1.0000 0.1119054516
H   H9        1.0  0.46130  0.71520  0.20770  1.0000 0.1119054516
H   H10       1.0  0.03870  0.28480  0.70770  1.0000 0.1119054516
H   H11       1.0  0.53870  0.21520  0.29230  1.0000 0.1119054516
H   H12       1.0  0.96130  0.78480  0.79230  1.0000 0.1119054516
H   H13       1.0  0.56970  0.61880  0.15100  1.0000 0.1119054516
H   H14       1.0  0.93030  0.38120  0.65100  1.0000 0.1119054516
H   H15       1.0  0.43030  0.11880  0.34900  1.0000 0.1119054516
H   H16       1.0  0.06970  0.88120  0.84900  1.0000 0.1119054516
H   H17       1.0  0.63190  0.70110  0.08300  1.0000 0.1182253673
H   H18       1.0  0.86810  0.29890  0.58300  1.0000 0.1182253673
H   H19       1.0  0.36810  0.20110  0.41700  1.0000 0.1182253673
H   H20       1.0  0.13190  0.79890  0.91700  1.0000 0.1182253673
H   H21       1.0  0.63330  0.86320  0.03290  1.0000 0.1182253673
H   H22       1.0  0.86670  0.13680  0.53290  1.0000 0.1182253673
H   H23       1.0  0.36670  0.36320  0.46710  1.0000 0.1182253673
H   H24       1.0  0.13330  0.63680  0.96710  1.0000 0.1182253673
H   H25       1.0  0.06080  0.15540  0.97690  1.0000 0.1182253673
H   H26       1.0  0.43920  0.84460  0.47690  1.0000 0.1182253673
H   H27       1.0  0.93920  0.65540  0.52310  1.0000 0.1182253673
H   H28       1.0  0.56080  0.34460  0.02310  1.0000 0.1182253673
H   H29       1.0  0.83430  0.90910  0.96900  1.0000 0.1002194154
H   H30       1.0  0.66570  0.09090  0.46900  1.0000 0.1002194154
H   H31       1.0  0.16570  0.40910  0.53100  1.0000 0.1002194154
H   H32       1.0  0.33430  0.59090  0.03100  1.0000 0.1002194154
H   H33       1.0  0.97740  0.80380  0.00700  1.0000 0.1305122222
H   H34       1.0  0.52260  0.19620  0.50700  1.0000 0.1305122222
H   H35       1.0  0.02260  0.30380  0.49300  1.0000 0.1305122222
H   H36       1.0  0.47740  0.69620  0.99300  1.0000 0.1305122222
H   H37       1.0  0.21160  0.05510  0.01400  1.0000 0.1500836992
H   H38       1.0  0.28840  0.94490  0.51400  1.0000 0.1500836992
H   H39       1.0  0.78840  0.55510  0.48600  1.0000 0.1500836992
H   H40       1.0  0.71160  0.44490  0.98600  1.0000 0.1500836992
H   H41       1.0  0.28170  0.89460  0.04670  1.0000 0.1182253673
H   H42       1.0  0.21830  0.10540  0.54670  1.0000 0.1182253673
H   H43       1.0  0.71830  0.39460  0.45330  1.0000 0.1182253673
H   H44       1.0  0.78170  0.60540  0.95330  1.0000 0.1182253673
H   H45       1.0  0.24170  0.79540  0.01660  1.0000 0.1119054516
H   H46       1.0  0.25830  0.20460  0.51660  1.0000 0.1119054516
H   H47       1.0  0.75830  0.29540  0.48340  1.0000 0.1119054516
H   H48       1.0  0.74170  0.70460  0.98340  1.0000 0.1119054516
H   H49       1.0  0.09730  0.74350  0.07210  1.0000 0.1002194154
H   H50       1.0  0.40270  0.25650  0.57210  1.0000 0.1002194154
H   H51       1.0  0.90270  0.24350  0.42790  1.0000 0.1002194154
H   H52       1.0  0.59730  0.75650  0.92790  1.0000 0.1002194154
H   H53       1.0  0.23460  0.75200  0.09370  1.0000 0.1002194154
H   H54       1.0  0.26540  0.24800  0.59370  1.0000 0.1002194154
H   H55       1.0  0.76540  0.25200  0.40630  1.0000 0.1002194154
H   H56       1.0  0.73460  0.74800  0.90630  1.0000 0.1002194154
H   H57       1.0  0.05880  0.91670  0.10270  1.0000 0.1182253673
H   H58       1.0  0.44120  0.08330  0.60270  1.0000 0.1182253673
H   H59       1.0  0.94120  0.41670  0.39730  1.0000 0.1182253673
H   H60       1.0  0.55880  0.58330  0.89730  1.0000 0.1182253673
H   H61       1.0  0.18670  0.90400  0.13040  1.0000 0.1119054516
H   H62       1.0  0.31330  0.09600  0.63040  1.0000 0.1119054516
H   H63       1.0  0.81330  0.40400  0.36960  1.0000 0.1119054516
H   H64       1.0  0.68670  0.59600  0.86960  1.0000 0.1119054516
H   H65       1.0  0.90510  0.74370  0.11830  1.0000 0.1406243164
H   H66       1.0  0.59490  0.25630  0.61830  1.0000 0.1406243164
H   H67       1.0  0.09490  0.24370  0.38170  1.0000 0.1406243164
H   H68       1.0  0.40510  0.75630  0.88170  1.0000 0.1406243164
H   H69       1.0  0.79630  0.66070  0.17770  1.0000 0.0916468097
H   H70       1.0  0.70370  0.33930  0.67770  1.0000 0.0916468097
H   H71       1.0  0.20370  0.16070  0.32230  1.0000 0.0916468097
H   H72       1.0  0.29630  0.83930  0.82230  1.0000 0.0916468097
H   H73       1.0  0.14160  0.86120  0.21230  1.0000 0.1406243164
H   H74       1.0  0.35840  0.13880  0.71230  1.0000 0.1406243164
H   H75       1.0  0.85840  0.36120  0.28770  1.0000 0.1406243164
H   H76       1.0  0.64160  0.63880  0.78770  1.0000 0.1406243164
H   H77       1.0  0.01180  0.79490  0.26570  1.0000 0.1119054516
H   H78       1.0  0.48820  0.20510  0.76570  1.0000 0.1119054516
H   H79       1.0  0.98820  0.29490  0.23430  1.0000 0.1119054516
H   H80       1.0  0.51180  0.70510  0.73430  1.0000 0.1119054516
H   H81       1.0  0.05890  0.57320  0.64470  1.0000 0.1119054516
H   H82       1.0  0.44110  0.42680  0.14470  1.0000 0.1119054516
H   H83       1.0  0.94110  0.07320  0.85530  1.0000 0.1119054516
H   H84       1.0  0.55890  0.92680  0.35530  1.0000 0.1119054516
H   H85       1.0  0.07210  0.52700  0.72310  1.0000 0.1406243164
H   H86       1.0  0.42790  0.47300  0.22310  1.0000 0.1406243164
H   H87       1.0  0.92790  0.02700  0.77690  1.0000 0.1406243164
H   H88       1.0  0.57210  0.97300  0.27690  1.0000 0.1406243164
H   H89       1.0  0.41550  0.51600  0.63080  1.0000 0.1119054516
H   H90       1.0  0.08450  0.48400  0.13080  1.0000 0.1119054516
H   H91       1.0  0.58450  0.01600  0.86920  1.0000 0.1119054516
H   H92       1.0  0.91550  0.98400  0.36920  1.0000 0.1119054516
H   H93       1.0  0.43400  0.45120  0.70570  1.0000 0.1305122222
H   H94       1.0  0.06600  0.54880  0.20570  1.0000 0.1305122222
H   H95       1.0  0.56600  0.95120  0.79430  1.0000 0.1305122222
H   H96       1.0  0.93400  0.04880  0.29430  1.0000 0.1182253673
H   H97       1.0  0.19040  0.38010  0.77930  1.0000 0.1182253673
H   H98       1.0  0.30960  0.61990  0.27930  1.0000 0.1182253673
H   H99       1.0  0.80960  0.88010  0.72070  1.0000 0.1182253673
H   H100      1.0  0.69040  0.11990  0.22070  1.0000 0.1182253673
H   H101      1.0  0.33830  0.37440  0.76910  1.0000 0.1002194154
H   H102      1.0  0.16170  0.62560  0.26910  1.0000 0.1002194154
H   H103      1.0  0.66170  0.87440  0.73090  1.0000 0.1002194154
H   H104      1.0  0.83830  0.12560  0.23090  1.0000 0.1002194154
H   H105      1.0  0.37000  0.54280  0.80160  1.0000 0.0916468097
H   H106      1.0  0.13000  0.45720  0.30160  1.0000 0.0916468097
H   H107      1.0  0.63000  0.04280  0.69840  1.0000 0.0916468097
H   H108      1.0  0.87000  0.95720  0.19840  1.0000 0.0916468097
H   H109      1.0  0.22160  0.56140  0.80610  1.0000 0.1002194154
H   H110      1.0  0.27840  0.43860  0.30610  1.0000 0.1002194154
H   H111      1.0  0.77840  0.06140  0.69390  1.0000 0.1002194154
H   H112      1.0  0.72160  0.93860  0.19390  1.0000 0.1002194154
H   H113      1.0  0.21200  0.41340  0.85700  1.0000 0.1119054516
H   H114      1.0  0.28800  0.58660  0.35700  1.0000 0.1119054516
H   H115      1.0  0.78800  0.91340  0.64300  1.0000 0.1119054516
H   H116      1.0  0.71200  0.08660  0.14300  1.0000 0.1119054516
H   H117      1.0  0.28370  0.51230  0.87750  1.0000 0.1119054516
H   H118      1.0  0.21630  0.48770  0.37750  1.0000 0.1119054516
H   H119      1.0  0.71630  0.01230  0.62250  1.0000 0.1119054516
H   H120      1.0  0.78370  0.98770  0.12250  1.0000 0.1119054516
H   H121      1.0  0.53640  0.41080  0.82220  1.0000 0.1305122222
H   H122      1.0  0.96360  0.58920  0.32220  1.0000 0.1305122222
H   H123      1.0  0.46360  0.91080  0.67780  1.0000 0.1305122222
H   H124      1.0  0.03640  0.08920  0.17780  1.0000 0.1305122222
H   H125      1.0  0.68820  0.30790  0.85180  1.0000 0.1119054516
H   H126      1.0  0.81180  0.69210  0.35180  1.0000 0.1119054516
H   H127      1.0  0.31180  0.80790  0.64820  1.0000 0.1119054516
H   H128      1.0  0.18820  0.19210  0.14820  1.0000 0.1119054516
H   H129      1.0  0.30930  0.32400  0.92560  1.0000 0.1500836992
H   H130      1.0  0.19070  0.67600  0.42560  1.0000 0.1500836992
H   H131      1.0  0.69070  0.82400  0.57440  1.0000 0.1500836992
H   H132      1.0  0.80930  0.17600  0.07440  1.0000 0.1500836992
H   H133      1.0  0.47240  0.21700  0.95390  1.0000 0.1119054516
H   H134      1.0  0.02760  0.78300  0.45390  1.0000 0.1119054516
H   H135      1.0  0.52760  0.71700  0.54610  1.0000 0.1119054516
H   H136      1.0  0.97240  0.28300  0.04610  1.0000 0.1119054516
C   C1        1.0  0.60990  0.05950  0.00520  1.0000 0.5501044361
C   C2        1.0  0.89010  0.94050  0.50520  1.0000 0.5501044361
C   C3        1.0  0.39010  0.55950  0.49480  1.0000 0.5501044361
C   C4        1.0  0.10990  0.44050  0.99480  1.0000 0.5501044361
C   C5        1.0  0.55550  0.00540  0.04760  1.0000 -0.0258264816
C   C6        1.0  0.94450  0.99460  0.54760  1.0000 -0.0258264816
C   C7        1.0  0.44450  0.50540  0.45240  1.0000 -0.0258264816
C   C8        1.0  0.05550  0.49460  0.95240  1.0000 -0.0258264816
C   C9        1.0  0.48020  0.05850  0.08050  1.0000 -0.0147639507
C   C10       1.0  0.01980  0.94150  0.58050  1.0000 -0.0147639507
C   C11       1.0  0.51980  0.55850  0.41950  1.0000 -0.0147639507
C   C12       1.0  0.98020  0.44150  0.91950  1.0000 -0.0147639507
C   C13       1.0  0.44630  0.01230  0.12120  1.0000 -0.1783988116
C   C14       1.0  0.05370  0.98770  0.62120  1.0000 -0.1783988116
C   C15       1.0  0.55370  0.51230  0.37880  1.0000 -0.1783988116
C   C16       1.0  0.94630  0.48770  0.87880  1.0000 -0.1783988116
C   C17       1.0  0.48050  0.90400  0.12920  1.0000 0.0614506738
C   C18       1.0  0.01950  0.09600  0.62920  1.0000 0.0614506738
C   C19       1.0  0.51950  0.40400  0.37080  1.0000 0.0614506738
C   C20       1.0  0.98050  0.59600  0.87080  1.0000 0.0614506738
C   C21       1.0  0.44240  0.85050  0.17230  1.0000 -0.1568569096
C   C22       1.0  0.05760  0.14950  0.67230  1.0000 -0.1568569096
C   C23       1.0  0.55760  0.35050  0.32770  1.0000 -0.1568569096
C   C24       1.0  0.94240  0.64950  0.82770  1.0000 -0.1568569096
C   C25       1.0  0.48080  0.74820  0.17940  1.0000 -0.1052999826
C   C26       1.0  0.01920  0.25180  0.67940  1.0000 -0.1052999826
C   C27       1.0  0.51920  0.24820  0.32060  1.0000 -0.1052999826
C   C28       1.0  0.98080  0.75180  0.82060  1.0000 -0.1052999826
C   C29       1.0  0.54900  0.69040  0.14570  1.0000 -0.120367791
C   C30       1.0  0.95100  0.30960  0.64570  1.0000 -0.120367791
C   C31       1.0  0.45100  0.19040  0.35430  1.0000 -0.120367791
C   C32       1.0  0.04900  0.80960  0.85430  1.0000 -0.120367791
C   C33       1.0  0.58500  0.73890  0.10510  1.0000 -0.1507300563
C   C34       1.0  0.91500  0.26110  0.60510  1.0000 -0.1507300563
C   C35       1.0  0.41500  0.23890  0.39490  1.0000 -0.1507300563
C   C36       1.0  0.08500  0.76110  0.89490  1.0000 -0.1507300563
C   C37       1.0  0.55020  0.84840  0.09680  1.0000 0.0614506738
C   C38       1.0  0.94980  0.15160  0.59680  1.0000 0.0614506738
C   C39       1.0  0.44980  0.34840  0.40320  1.0000 0.0614506738
C   C40       1.0  0.05020  0.65160  0.90320  1.0000 0.0614506738
C   C41       1.0  0.58690  0.90070  0.05530  1.0000 -0.1783988116
C   C42       1.0  0.91310  0.09930  0.55530  1.0000 -0.1783988116
C   C43       1.0  0.41310  0.40070  0.44470  1.0000 -0.1783988116
C   C44       1.0  0.08690  0.59930  0.94470  1.0000 -0.1783988116
C   C45       1.0  0.42260  0.17030  0.07270  1.0000 0.5430407195
C   C46       1.0  0.07740  0.82970  0.57270  1.0000 0.5430407195
C   C47       1.0  0.57740  0.67030  0.42730  1.0000 0.5430407195
C   C48       1.0  0.92260  0.32970  0.92730  1.0000 0.5430407195
C   C49       1.0  0.04390  0.08330  0.98280  1.0000 0.067804585
C   C50       1.0  0.45610  0.91670  0.48280  1.0000 0.067804585
C   C51       1.0  0.95610  0.58330  0.51720  1.0000 0.067804585
C   C52       1.0  0.54390  0.41670  0.01720  1.0000 0.067804585
C   C53       1.0  0.91130  0.93970  0.97830  1.0000 0.0780085943
C   C54       1.0  0.58870  0.06030  0.47830  1.0000 0.0780085943
C   C55       1.0  0.08870  0.43970  0.52170  1.0000 0.0780085943
C   C56       1.0  0.41130  0.56030  0.02170  1.0000 0.0780085943
C   C57       1.0  0.99840  0.87500  0.00070  1.0000 -0.2299397517
C   C58       1.0  0.50160  0.12500  0.50070  1.0000 -0.2299397517
C   C59       1.0  0.00160  0.37500  0.49930  1.0000 -0.2299397517
C   C60       1.0  0.49840  0.62500  0.99930  1.0000 -0.2299397517
C   C61       1.0  0.13520  0.02280  0.00490  1.0000 -0.1947931679
C   C62       1.0  0.36480  0.97720  0.50490  1.0000 -0.2028863342
C   C63       1.0  0.86480  0.52280  0.49510  1.0000 -0.1947931679
C   C64       1.0  0.63520  0.47720  0.99510  1.0000 -0.1947931679
C   C65       1.0  0.11660  0.91430  0.01410  1.0000 0.1587638661
C   C66       1.0  0.38340  0.08570  0.51410  1.0000 0.1587638661
C   C67       1.0  0.88340  0.41430  0.48590  1.0000 0.1587638661
C   C68       1.0  0.61660  0.58570  0.98590  1.0000 0.1500836992
C   C69       1.0  0.21000  0.84910  0.03820  1.0000 -0.255926031
C   C70       1.0  0.29000  0.15090  0.53820  1.0000 -0.255926031
C   C71       1.0  0.79000  0.34910  0.46180  1.0000 -0.255926031
C   C72       1.0  0.71000  0.65090  0.96180  1.0000 -0.255926031
C   C73       1.0  0.16440  0.79350  0.08090  1.0000 -0.1507300563
C   C74       1.0  0.33560  0.20650  0.58090  1.0000 -0.1507300563
C   C75       1.0  0.83560  0.29350  0.41910  1.0000 -0.1507300563
C   C76       1.0  0.66440  0.70650  0.91910  1.0000 -0.1507300563
C   C77       1.0  0.11500  0.86470  0.11730  1.0000 -0.255926031
C   C78       1.0  0.38500  0.13530  0.61730  1.0000 -0.255926031
C   C79       1.0  0.88500  0.36470  0.38270  1.0000 -0.255926031
C   C80       1.0  0.61500  0.63530  0.88270  1.0000 -0.255926031
C   C81       1.0  0.04280  0.81270  0.15720  1.0000 0.1587638661
C   C82       1.0  0.45720  0.18730  0.65720  1.0000 0.1587638661
C   C83       1.0  0.95720  0.31270  0.34280  1.0000 0.1587638661
C   C84       1.0  0.54280  0.68730  0.84280  1.0000 0.1587638661
C   C85       1.0  0.93390  0.75190  0.14880  1.0000 -0.2299397517
C   C86       1.0  0.56610  0.24810  0.64880  1.0000 -0.2299397517
C   C87       1.0  0.06610  0.25190  0.35120  1.0000 -0.2299397517
C   C88       1.0  0.43390  0.74810  0.85120  1.0000 -0.2299397517
C   C89       1.0  0.86710  0.70310  0.18470  1.0000 0.067804585
C   C90       1.0  0.63290  0.29690  0.68470  1.0000 0.067804585
C   C91       1.0  0.13290  0.20310  0.31530  1.0000 0.067804585
C   C92       1.0  0.36710  0.79690  0.81530  1.0000 0.067804585
C   C93       1.0  0.06980  0.82270  0.20290  1.0000 -0.2299397517
C   C94       1.0  0.43020  0.17730  0.70290  1.0000 -0.2299397517
C   C95       1.0  0.93020  0.32270  0.29710  1.0000 -0.2299397517
C   C96       1.0  0.56980  0.67730  0.79710  1.0000 -0.2299397517
C   C97       1.0  0.99400  0.77780  0.23480  1.0000 0.0780085943
C   C98       1.0  0.50600  0.22220  0.73480  1.0000 0.0780085943
C   C99       1.0  0.00600  0.27780  0.26520  1.0000 0.067804585
C   C100      1.0  0.49400  0.72220  0.76520  1.0000 0.0780085943
C   C101      1.0  0.13740  0.55240  0.65710  1.0000 0.0916468097
C   C102      1.0  0.36260  0.44760  0.15710  1.0000 0.0916468097
C   C103      1.0  0.86260  0.05240  0.84290  1.0000 0.0916468097
C   C104      1.0  0.63740  0.94760  0.34290  1.0000 0.0916468097
C   C105      1.0  0.14440  0.51910  0.70450  1.0000 -0.2122798072
C   C106      1.0  0.35560  0.48090  0.20450  1.0000 -0.2122798072
C   C107      1.0  0.85560  0.01910  0.79550  1.0000 -0.2122798072
C   C108      1.0  0.64440  0.98090  0.29550  1.0000 -0.2122798072
C   C109      1.0  0.34310  0.51650  0.64960  1.0000 0.0614506738
C   C110      1.0  0.15690  0.48350  0.14960  1.0000 0.0614506738
C   C111      1.0  0.65690  0.01650  0.85040  1.0000 0.0614506738
C   C112      1.0  0.84310  0.98350  0.35040  1.0000 0.0614506738
C   C113      1.0  0.35650  0.47730  0.69450  1.0000 -0.2299397517
C   C114      1.0  0.14350  0.52270  0.19450  1.0000 -0.2299397517
C   C115      1.0  0.64350  0.97730  0.80550  1.0000 -0.2299397517
C   C116      1.0  0.85650  0.02270  0.30550  1.0000 -0.2299397517
C   C117      1.0  0.24310  0.47960  0.72250  1.0000 0.1500836992
C   C118      1.0  0.25690  0.52040  0.22250  1.0000 0.1500836992
C   C119      1.0  0.75690  0.97960  0.77750  1.0000 0.1500836992
C   C120      1.0  0.74310  0.02040  0.27750  1.0000 0.1500836992
C   C121      1.0  0.26500  0.42220  0.77100  1.0000 -0.2416333746
C   C122      1.0  0.23500  0.57780  0.27100  1.0000 -0.2416333746
C   C123      1.0  0.73500  0.92220  0.72900  1.0000 -0.2416333746
C   C124      1.0  0.76500  0.07780  0.22900  1.0000 -0.2416333746
C   C125      1.0  0.28900  0.50770  0.80740  1.0000 -0.1507300563
C   C126      1.0  0.21100  0.49230  0.30740  1.0000 -0.1507300563
C   C127      1.0  0.71100  0.00770  0.69260  1.0000 -0.1507300563
C   C128      1.0  0.78900  0.99230  0.19260  1.0000 -0.1568569096
C   C129      1.0  0.29010  0.45520  0.85460  1.0000 -0.2416333746
C   C130      1.0  0.20990  0.54480  0.35460  1.0000 -0.2416333746
C   C131      1.0  0.70990  0.95520  0.64540  1.0000 -0.2416333746
C   C132      1.0  0.79010  0.04480  0.14540  1.0000 -0.2416333746
C   C133      1.0  0.40190  0.38080  0.87040  1.0000 0.1587638661
C   C134      1.0  0.09810  0.61920  0.37040  1.0000 0.1587638661
C   C135      1.0  0.59810  0.88080  0.62960  1.0000 0.1587638661
C   C136      1.0  0.90190  0.11920  0.12960  1.0000 0.1587638661
C   C137      1.0  0.52000  0.37250  0.84940  1.0000 -0.2028863342
C   C138      1.0  0.98000  0.62750  0.34940  1.0000 -0.2028863342
C   C139      1.0  0.48000  0.87250  0.65060  1.0000 -0.2028863342
C   C140      1.0  0.02000  0.12750  0.15060  1.0000 -0.2028863342
C   C141      1.0  0.61020  0.31100  0.86740  1.0000 0.0195242396
C   C142      1.0  0.88980  0.68900  0.36740  1.0000 0.0195242396
C   C143      1.0  0.38980  0.81100  0.63260  1.0000 0.0195242396
C   C144      1.0  0.11020  0.18900  0.13260  1.0000 0.0195242396
C   C145      1.0  0.38700  0.32180  0.90980  1.0000 -0.2122798072
C   C146      1.0  0.11300  0.67820  0.40980  1.0000 -0.2122798072
C   C147      1.0  0.61300  0.82180  0.59020  1.0000 -0.2122798072
C   C148      1.0  0.88700  0.17820  0.09020  1.0000 -0.2122798072
C   C149      1.0  0.48640  0.25740  0.92700  1.0000 0.1002194154
C   C150      1.0  0.01360  0.74260  0.42700  1.0000 0.1002194154
C   C151      1.0  0.51360  0.75740  0.57300  1.0000 0.1002194154
C   C152      1.0  0.98640  0.24260  0.07300  1.0000 0.1002194154
N   N1        1.0  0.92940  0.04140  0.96920  1.0000 -0.2416333746
N   N2        1.0  0.57060  0.95860  0.46920  1.0000 -0.2416333746
N   N3        1.0  0.07060  0.54140  0.53080  1.0000 -0.2416333746
N   N4        1.0  0.42940  0.45860  0.03080  1.0000 -0.2416333746
N   N5        1.0  0.90220  0.71570  0.22840  1.0000 -0.2654562624
N   N6        1.0  0.59780  0.28430  0.72840  1.0000 -0.2654562624
N   N7        1.0  0.09780  0.21570  0.27160  1.0000 -0.2654562624
N   N8        1.0  0.40220  0.78430  0.77160  1.0000 -0.2654562624
N   N9        1.0  0.59830  0.25220  0.90660  1.0000 -0.2416333746
N   N10       1.0  0.90170  0.74780  0.40660  1.0000 -0.2416333746
N   N11       1.0  0.40170  0.75220  0.59340  1.0000 -0.2416333746
N   N12       1.0  0.09830  0.24780  0.09340  1.0000 -0.2416333746
N   N13       1.0  0.23650  0.55440  0.63120  1.0000 -0.2122798072
N   N14       1.0  0.26350  0.44560  0.13120  1.0000 -0.2122798072
N   N15       1.0  0.76350  0.05440  0.86880  1.0000 -0.2122798072
N   N16       1.0  0.73650  0.94560  0.36880  1.0000 -0.2122798072
O   O1        1.0  0.61370  0.01120  0.96670  1.0000 -0.5730382832
O   O2        1.0  0.88630  0.98880  0.46670  1.0000 -0.5730382832
O   O3        1.0  0.38630  0.51120  0.53330  1.0000 -0.5730382832
O   O4        1.0  0.11370  0.48880  0.03330  1.0000 -0.5730382832
O   O5        1.0  0.66000  0.15080  0.01130  1.0000 -0.5391604783
O   O6        1.0  0.84000  0.84920  0.51130  1.0000 -0.5391604783
O   O7        1.0  0.34000  0.65080  0.48870  1.0000 -0.5391604783
O   O8        1.0  0.16000  0.34920  0.98870  1.0000 -0.5391604783
O   O9        1.0  0.37540  0.18840  0.03260  1.0000 -0.5391604783
O   O10       1.0  0.12460  0.81160  0.53260  1.0000 -0.5391604783
O   O11       1.0  0.62460  0.68840  0.46740  1.0000 -0.5391604783
O   O12       1.0  0.87540  0.31160  0.96740  1.0000 -0.5391604783
O   O13       1.0  0.42090  0.23630  0.10440  1.0000 -0.5457843574
O   O14       1.0  0.07910  0.76370  0.60440  1.0000 -0.5457843574
O   O15       1.0  0.57910  0.73630  0.39560  1.0000 -0.5457843574
O   O16       1.0  0.92090  0.26370  0.89560  1.0000 -0.5457843574
