# DDEC6 charges by PACMAN v1.1 (https://github.com/mtap-research/PACMAN-charge/)
data_2010[Zn][nan]3[FSR]4
_chemical_formula_sum              "Zn16 B8 H152 C184 N80 O32"
_cell_length_a       13.0584
_cell_length_b       13.0584
_cell_length_c       53.731
_cell_angle_alpha    90
_cell_angle_beta     90
_cell_angle_gamma    90

_symmetry_space_group_name_H-M    "P 1"
_symmetry_Int_Tables_number       1

loop_
  _symmetry_equiv_pos_as_xyz
  'x, y, z'

loop_
  _atom_site_type_symbol
  _atom_site_label
  _atom_site_symmetry_multiplicity
  _atom_site_fract_x
  _atom_site_fract_y
  _atom_site_fract_z
  _atom_site_occupancy
  _atom_site_charge
Zn  Zn1       1.0  0.84236  0.87365  0.11538  1.0000 0.6768522915
Zn  Zn2       1.0  0.15764  0.12635  0.61538  1.0000 0.6768522915
Zn  Zn3       1.0  0.62635  0.34236  0.86538  1.0000 0.6768522915
Zn  Zn4       1.0  0.37365  0.65764  0.36538  1.0000 0.6768522915
Zn  Zn5       1.0  0.65764  0.37365  0.63462  1.0000 0.6768522915
Zn  Zn6       1.0  0.34236  0.62635  0.13462  1.0000 0.6768522915
Zn  Zn7       1.0  0.87365  0.84236  0.88462  1.0000 0.6768522915
Zn  Zn8       1.0  0.12635  0.15764  0.38462  1.0000 0.6768522915
Zn  Zn9       1.0  0.67434  0.94108  0.31515  1.0000 0.6956670563
Zn  Zn10      1.0  0.32566  0.05892  0.81515  1.0000 0.6956670563
Zn  Zn11      1.0  0.55892  0.17434  0.06515  1.0000 0.6956670563
Zn  Zn12      1.0  0.44108  0.82566  0.56515  1.0000 0.6956670563
Zn  Zn13      1.0  0.82566  0.44108  0.43485  1.0000 0.6956670563
Zn  Zn14      1.0  0.17434  0.55892  0.93485  1.0000 0.6956670563
Zn  Zn15      1.0  0.94108  0.67434  0.68485  1.0000 0.6956670563
Zn  Zn16      1.0  0.05892  0.32566  0.18485  1.0000 0.6956670563
B   B1        1.0  0.73720  0.46910  0.12810  1.0000 0.5199045967
B   B2        1.0  0.26280  0.53090  0.62810  1.0000 0.5199045967
B   B3        1.0  0.03090  0.23720  0.87810  1.0000 0.5199045967
B   B4        1.0  0.96910  0.76280  0.37810  1.0000 0.5199045967
B   B5        1.0  0.76280  0.96910  0.62190  1.0000 0.5199045967
B   B6        1.0  0.23720  0.03090  0.12190  1.0000 0.5199045967
B   B7        1.0  0.46910  0.73720  0.87190  1.0000 0.5199045967
B   B8        1.0  0.53090  0.26280  0.37190  1.0000 0.5199045967
H   H1        1.0  0.93960  0.45580  0.14770  1.0000 0.0937074031
H   H2        1.0  0.06040  0.54420  0.64770  1.0000 0.0937074031
H   H3        1.0  0.04420  0.43960  0.89770  1.0000 0.0937074031
H   H4        1.0  0.95580  0.56040  0.39770  1.0000 0.0937074031
H   H5        1.0  0.56040  0.95580  0.60230  1.0000 0.0937074031
H   H6        1.0  0.43960  0.04420  0.10230  1.0000 0.0937074031
H   H7        1.0  0.45580  0.93960  0.85230  1.0000 0.0937074031
H   H8        1.0  0.54420  0.06040  0.35230  1.0000 0.0937074031
H   H9        1.0  0.68620  0.29800  0.16150  1.0000 0.1292155583
H   H10       1.0  0.31380  0.70200  0.66150  1.0000 0.1292155583
H   H11       1.0  0.20200  0.18620  0.91150  1.0000 0.1292155583
H   H12       1.0  0.79800  0.81380  0.41150  1.0000 0.1292155583
H   H13       1.0  0.81380  0.79800  0.58850  1.0000 0.1292155583
H   H14       1.0  0.18620  0.20200  0.08850  1.0000 0.1292155583
H   H15       1.0  0.29800  0.68620  0.83850  1.0000 0.1292155583
H   H16       1.0  0.70200  0.31380  0.33850  1.0000 0.1292155583
H   H17       1.0  0.82500  0.22880  0.18670  1.0000 0.1409760893
H   H18       1.0  0.17500  0.77120  0.68670  1.0000 0.1409760893
H   H19       1.0  0.27120  0.32500  0.93670  1.0000 0.1409760893
H   H20       1.0  0.72880  0.67500  0.43670  1.0000 0.1409760893
H   H21       1.0  0.67500  0.72880  0.56330  1.0000 0.1409760893
H   H22       1.0  0.32500  0.27120  0.06330  1.0000 0.1409760893
H   H23       1.0  0.22880  0.82500  0.81330  1.0000 0.1409760893
H   H24       1.0  0.77120  0.17500  0.31330  1.0000 0.1409760893
H   H25       1.0  0.72160  0.68480  0.12940  1.0000 0.1115610171
H   H26       1.0  0.27840  0.31520  0.62940  1.0000 0.1115610171
H   H27       1.0  0.81520  0.22160  0.87940  1.0000 0.1115610171
H   H28       1.0  0.18480  0.77840  0.37940  1.0000 0.1115610171
H   H29       1.0  0.77840  0.18480  0.62060  1.0000 0.1115610171
H   H30       1.0  0.22160  0.81520  0.12060  1.0000 0.1115610171
H   H31       1.0  0.68480  0.72160  0.87060  1.0000 0.1115610171
H   H32       1.0  0.31520  0.27840  0.37060  1.0000 0.1115610171
H   H33       1.0  0.98460  0.67990  0.09750  1.0000 0.1292155583
H   H34       1.0  0.01540  0.32010  0.59750  1.0000 0.1292155583
H   H35       1.0  0.82010  0.48460  0.84750  1.0000 0.1292155583
H   H36       1.0  0.17990  0.51540  0.34750  1.0000 0.1292155583
H   H37       1.0  0.51540  0.17990  0.65250  1.0000 0.1292155583
H   H38       1.0  0.48460  0.82010  0.15250  1.0000 0.1292155583
H   H39       1.0  0.67990  0.98460  0.90250  1.0000 0.1292155583
H   H40       1.0  0.32010  0.01540  0.40250  1.0000 0.1292155583
H   H41       1.0  0.94140  0.50620  0.10440  1.0000 0.1292155583
H   H42       1.0  0.05860  0.49380  0.60440  1.0000 0.1292155583
H   H43       1.0  0.99380  0.44140  0.85440  1.0000 0.1292155583
H   H44       1.0  0.00620  0.55860  0.35440  1.0000 0.1292155583
H   H45       1.0  0.55860  0.00620  0.64560  1.0000 0.1292155583
H   H46       1.0  0.44140  0.99380  0.14560  1.0000 0.1292155583
H   H47       1.0  0.50620  0.94140  0.89560  1.0000 0.1292155583
H   H48       1.0  0.49380  0.05860  0.39560  1.0000 0.1292155583
H   H49       1.0  0.53620  0.52180  0.11280  1.0000 0.1115610171
H   H50       1.0  0.46380  0.47820  0.61280  1.0000 0.1115610171
H   H51       1.0  0.97820  0.03620  0.86280  1.0000 0.1115610171
H   H52       1.0  0.02180  0.96380  0.36280  1.0000 0.1115610171
H   H53       1.0  0.96380  0.02180  0.63720  1.0000 0.1115610171
H   H54       1.0  0.03620  0.97820  0.13720  1.0000 0.1115610171
H   H55       1.0  0.52180  0.53620  0.88720  1.0000 0.1115610171
H   H56       1.0  0.47820  0.46380  0.38720  1.0000 0.1115610171
H   H57       1.0  0.67840  0.54350  0.17720  1.0000 0.1292155583
H   H58       1.0  0.32160  0.45650  0.67720  1.0000 0.1292155583
H   H59       1.0  0.95650  0.17840  0.92720  1.0000 0.1292155583
H   H60       1.0  0.04350  0.82160  0.42720  1.0000 0.1292155583
H   H61       1.0  0.82160  0.04350  0.57280  1.0000 0.1292155583
H   H62       1.0  0.17840  0.95650  0.07280  1.0000 0.1292155583
H   H63       1.0  0.54350  0.67840  0.82280  1.0000 0.1292155583
H   H64       1.0  0.45650  0.32160  0.32280  1.0000 0.1292155583
H   H65       1.0  0.51320  0.61710  0.18190  1.0000 0.1292155583
H   H66       1.0  0.48680  0.38290  0.68190  1.0000 0.1292155583
H   H67       1.0  0.88290  0.01320  0.93190  1.0000 0.1292155583
H   H68       1.0  0.11710  0.98680  0.43190  1.0000 0.1292155583
H   H69       1.0  0.98680  0.11710  0.56810  1.0000 0.1292155583
H   H70       1.0  0.01320  0.88290  0.06810  1.0000 0.1292155583
H   H71       1.0  0.61710  0.51320  0.81810  1.0000 0.1292155583
H   H72       1.0  0.38290  0.48680  0.31810  1.0000 0.1292155583
H   H73       1.0  0.66100  0.03590  0.11050  1.0000 0.0980851594
H   H74       1.0  0.33900  0.96410  0.61050  1.0000 0.0980851594
H   H75       1.0  0.46410  0.16100  0.86050  1.0000 0.0980851594
H   H76       1.0  0.53590  0.83900  0.36050  1.0000 0.0980851594
H   H77       1.0  0.83900  0.53590  0.63950  1.0000 0.0980851594
H   H78       1.0  0.16100  0.46410  0.13950  1.0000 0.0980851594
H   H79       1.0  0.03590  0.66100  0.88950  1.0000 0.0980851594
H   H80       1.0  0.96410  0.33900  0.38950  1.0000 0.0980851594
H   H81       1.0  0.67760  0.99620  0.03900  1.0000 0.1292155583
H   H82       1.0  0.32240  0.00380  0.53900  1.0000 0.1292155583
H   H83       1.0  0.50380  0.17760  0.78900  1.0000 0.1292155583
H   H84       1.0  0.49620  0.82240  0.28900  1.0000 0.1292155583
H   H85       1.0  0.82240  0.49620  0.71100  1.0000 0.1292155583
H   H86       1.0  0.17760  0.50380  0.21100  1.0000 0.1292155583
H   H87       1.0  0.99620  0.67760  0.96100  1.0000 0.1292155583
H   H88       1.0  0.00380  0.32240  0.46100  1.0000 0.1292155583
H   H89       1.0  0.78750  0.87420  0.05860  1.0000 0.1203833997
H   H90       1.0  0.21250  0.12580  0.55860  1.0000 0.1203833997
H   H91       1.0  0.62580  0.28750  0.80860  1.0000 0.1203833997
H   H92       1.0  0.37420  0.71250  0.30860  1.0000 0.1203833997
H   H93       1.0  0.71250  0.37420  0.69140  1.0000 0.1203833997
H   H94       1.0  0.28750  0.62580  0.19140  1.0000 0.1203833997
H   H95       1.0  0.87420  0.78750  0.94140  1.0000 0.1203833997
H   H96       1.0  0.12580  0.21250  0.44140  1.0000 0.1203833997
H   H97       1.0  0.64180  0.27750  0.11600  1.0000 0.0980851594
H   H98       1.0  0.35820  0.72250  0.61600  1.0000 0.0980851594
H   H99       1.0  0.22250  0.14180  0.86600  1.0000 0.0980851594
H   H100      1.0  0.77750  0.85820  0.36600  1.0000 0.0980851594
H   H101      1.0  0.85820  0.77750  0.63400  1.0000 0.0980851594
H   H102      1.0  0.14180  0.22250  0.13400  1.0000 0.0980851594
H   H103      1.0  0.27750  0.64180  0.88400  1.0000 0.0980851594
H   H104      1.0  0.72250  0.35820  0.38400  1.0000 0.0980851594
H   H105      1.0  0.64370  0.39080  0.04840  1.0000 0.1292155583
H   H106      1.0  0.35630  0.60920  0.54840  1.0000 0.1292155583
H   H107      1.0  0.10920  0.14370  0.79840  1.0000 0.1292155583
H   H108      1.0  0.89080  0.85630  0.29840  1.0000 0.1292155583
H   H109      1.0  0.85630  0.89080  0.70160  1.0000 0.1292155583
H   H110      1.0  0.14370  0.10920  0.20160  1.0000 0.1292155583
H   H111      1.0  0.39080  0.64370  0.95160  1.0000 0.1292155583
H   H112      1.0  0.60920  0.35630  0.45160  1.0000 0.1292155583
H   H113      1.0  0.73270  0.50820  0.07520  1.0000 0.1203833997
H   H114      1.0  0.26730  0.49180  0.57520  1.0000 0.1203833997
H   H115      1.0  0.99180  0.23270  0.82520  1.0000 0.1203833997
H   H116      1.0  0.00820  0.76730  0.32520  1.0000 0.1203833997
H   H117      1.0  0.76730  0.00820  0.67480  1.0000 0.1203833997
H   H118      1.0  0.23270  0.99180  0.17480  1.0000 0.1203833997
H   H119      1.0  0.50820  0.73270  0.92480  1.0000 0.1203833997
H   H120      1.0  0.49180  0.26730  0.42480  1.0000 0.1203833997
H   H121      1.0  0.64480  0.81310  0.19610  1.0000 0.1115610171
H   H122      1.0  0.35520  0.18690  0.69610  1.0000 0.1115610171
H   H123      1.0  0.68690  0.14480  0.94610  1.0000 0.1115610171
H   H124      1.0  0.31310  0.85520  0.44610  1.0000 0.1115610171
H   H125      1.0  0.85520  0.31310  0.55390  1.0000 0.1115610171
H   H126      1.0  0.14480  0.68690  0.05390  1.0000 0.1115610171
H   H127      1.0  0.81310  0.64480  0.80390  1.0000 0.1115610171
H   H128      1.0  0.18690  0.35520  0.30390  1.0000 0.1115610171
H   H129      1.0  0.63960  0.83910  0.23820  1.0000 0.1203833997
H   H130      1.0  0.36040  0.16090  0.73820  1.0000 0.1203833997
H   H131      1.0  0.66090  0.13960  0.98820  1.0000 0.1203833997
H   H132      1.0  0.33910  0.86040  0.48820  1.0000 0.1203833997
H   H133      1.0  0.86040  0.33910  0.51180  1.0000 0.1203833997
H   H134      1.0  0.13960  0.66090  0.01180  1.0000 0.1203833997
H   H135      1.0  0.83910  0.63960  0.76180  1.0000 0.1203833997
H   H136      1.0  0.16090  0.36040  0.26180  1.0000 0.1203833997
H   H137      1.0  0.86840  0.03780  0.23340  1.0000 0.1203833997
H   H138      1.0  0.13160  0.96220  0.73340  1.0000 0.1203833997
H   H139      1.0  0.46220  0.36840  0.98340  1.0000 0.1203833997
H   H140      1.0  0.53780  0.63160  0.48340  1.0000 0.1203833997
H   H141      1.0  0.63160  0.53780  0.51660  1.0000 0.1203833997
H   H142      1.0  0.36840  0.46220  0.01660  1.0000 0.1203833997
H   H143      1.0  0.03780  0.86840  0.76660  1.0000 0.1203833997
H   H144      1.0  0.96220  0.13160  0.26660  1.0000 0.1203833997
H   H145      1.0  0.87530  0.01500  0.18990  1.0000 0.1115610171
H   H146      1.0  0.12470  0.98500  0.68990  1.0000 0.1115610171
H   H147      1.0  0.48500  0.37530  0.93990  1.0000 0.1115610171
H   H148      1.0  0.51500  0.62470  0.43990  1.0000 0.1115610171
H   H149      1.0  0.62470  0.51500  0.56010  1.0000 0.1115610171
H   H150      1.0  0.37530  0.48500  0.06010  1.0000 0.1115610171
H   H151      1.0  0.01500  0.87530  0.81010  1.0000 0.1115610171
H   H152      1.0  0.98500  0.12470  0.31010  1.0000 0.1115610171
C   C1        1.0  0.89340  0.40900  0.15440  1.0000 0.1203833997
C   C2        1.0  0.10660  0.59100  0.65440  1.0000 0.1203833997
C   C3        1.0  0.09100  0.39340  0.90440  1.0000 0.1203833997
C   C4        1.0  0.90900  0.60660  0.40440  1.0000 0.1203833997
C   C5        1.0  0.60660  0.90900  0.59560  1.0000 0.1203833997
C   C6        1.0  0.39340  0.09100  0.09560  1.0000 0.1203833997
C   C7        1.0  0.40900  0.89340  0.84560  1.0000 0.1203833997
C   C8        1.0  0.59100  0.10660  0.34560  1.0000 0.1203833997
C   C9        1.0  0.75360  0.32100  0.16180  1.0000 -0.097833246
C   C10       1.0  0.24640  0.67900  0.66180  1.0000 -0.097833246
C   C11       1.0  0.17900  0.25360  0.91180  1.0000 -0.097833246
C   C12       1.0  0.82100  0.74640  0.41180  1.0000 -0.097833246
C   C13       1.0  0.74640  0.82100  0.58820  1.0000 -0.097833246
C   C14       1.0  0.25360  0.17900  0.08820  1.0000 -0.097833246
C   C15       1.0  0.32100  0.75360  0.83820  1.0000 -0.097833246
C   C16       1.0  0.67900  0.24640  0.33820  1.0000 -0.097833246
C   C17       1.0  0.83010  0.28410  0.17590  1.0000 -0.0180021036
C   C18       1.0  0.16990  0.71590  0.67590  1.0000 -0.0180021036
C   C19       1.0  0.21590  0.33010  0.92590  1.0000 -0.0180021036
C   C20       1.0  0.78410  0.66990  0.42590  1.0000 -0.0180021036
C   C21       1.0  0.66990  0.78410  0.57410  1.0000 -0.0180021036
C   C22       1.0  0.33010  0.21590  0.07410  1.0000 -0.0180021036
C   C23       1.0  0.28410  0.83010  0.82410  1.0000 -0.0180021036
C   C24       1.0  0.71590  0.16990  0.32410  1.0000 -0.0180021036
C   C25       1.0  0.78200  0.66060  0.12240  1.0000 0.1508606952
C   C26       1.0  0.21800  0.33940  0.62240  1.0000 0.1508606952
C   C27       1.0  0.83940  0.28200  0.87240  1.0000 0.1508606952
C   C28       1.0  0.16060  0.71800  0.37240  1.0000 0.1508606952
C   C29       1.0  0.71800  0.16060  0.62760  1.0000 0.1508606952
C   C30       1.0  0.28200  0.83940  0.12760  1.0000 0.1508606952
C   C31       1.0  0.66060  0.78200  0.87760  1.0000 0.1508606952
C   C32       1.0  0.33940  0.21800  0.37760  1.0000 0.1508606952
C   C33       1.0  0.92460  0.65760  0.10510  1.0000 -0.0180021036
C   C34       1.0  0.07540  0.34240  0.60510  1.0000 -0.0180021036
C   C35       1.0  0.84240  0.42460  0.85510  1.0000 -0.0180021036
C   C36       1.0  0.15760  0.57540  0.35510  1.0000 -0.0180021036
C   C37       1.0  0.57540  0.15760  0.64490  1.0000 -0.0180021036
C   C38       1.0  0.42460  0.84240  0.14490  1.0000 -0.0180021036
C   C39       1.0  0.65760  0.92460  0.89490  1.0000 -0.0180021036
C   C40       1.0  0.34240  0.07540  0.39490  1.0000 -0.0180021036
C   C41       1.0  0.90160  0.56250  0.10880  1.0000 -0.1100756033
C   C42       1.0  0.09840  0.43750  0.60880  1.0000 -0.1100756033
C   C43       1.0  0.93750  0.40160  0.85880  1.0000 -0.1100756033
C   C44       1.0  0.06250  0.59840  0.35880  1.0000 -0.1100756033
C   C45       1.0  0.59840  0.06250  0.64120  1.0000 -0.1100756033
C   C46       1.0  0.40160  0.93750  0.14120  1.0000 -0.1100756033
C   C47       1.0  0.56250  0.90160  0.89120  1.0000 -0.1100756033
C   C48       1.0  0.43750  0.09840  0.39120  1.0000 -0.1100756033
C   C49       1.0  0.55020  0.53510  0.12940  1.0000 0.1409760893
C   C50       1.0  0.44980  0.46490  0.62940  1.0000 0.1409760893
C   C51       1.0  0.96490  0.05020  0.87940  1.0000 0.1409760893
C   C52       1.0  0.03510  0.94980  0.37940  1.0000 0.1409760893
C   C53       1.0  0.94980  0.03510  0.62060  1.0000 0.1409760893
C   C54       1.0  0.05020  0.96490  0.12060  1.0000 0.1409760893
C   C55       1.0  0.53510  0.55020  0.87060  1.0000 0.1409760893
C   C56       1.0  0.46490  0.44980  0.37060  1.0000 0.1409760893
C   C57       1.0  0.62870  0.54700  0.16490  1.0000 -0.0697768235
C   C58       1.0  0.37130  0.45300  0.66490  1.0000 -0.0697768235
C   C59       1.0  0.95300  0.12870  0.91490  1.0000 -0.0697768235
C   C60       1.0  0.04700  0.87130  0.41490  1.0000 -0.0697768235
C   C61       1.0  0.87130  0.04700  0.58510  1.0000 -0.0697768235
C   C62       1.0  0.12870  0.95300  0.08510  1.0000 -0.0697768235
C   C63       1.0  0.54700  0.62870  0.83510  1.0000 -0.0697768235
C   C64       1.0  0.45300  0.37130  0.33510  1.0000 -0.0697768235
C   C65       1.0  0.53860  0.58790  0.16740  1.0000 -0.0697768235
C   C66       1.0  0.46140  0.41210  0.66740  1.0000 -0.0697768235
C   C67       1.0  0.91210  0.03860  0.91740  1.0000 -0.0697768235
C   C68       1.0  0.08790  0.96140  0.41740  1.0000 -0.0697768235
C   C69       1.0  0.96140  0.08790  0.58260  1.0000 -0.0697768235
C   C70       1.0  0.03860  0.91210  0.08260  1.0000 -0.0697768235
C   C71       1.0  0.58790  0.53860  0.83260  1.0000 -0.0697768235
C   C72       1.0  0.41210  0.46140  0.33260  1.0000 -0.0697768235
C   C73       1.0  0.67880  0.01150  0.09480  1.0000 0.1409760893
C   C74       1.0  0.32120  0.98850  0.59480  1.0000 0.1409760893
C   C75       1.0  0.48850  0.17880  0.84480  1.0000 0.1409760893
C   C76       1.0  0.51150  0.82120  0.34480  1.0000 0.1409760893
C   C77       1.0  0.82120  0.51150  0.65520  1.0000 0.1409760893
C   C78       1.0  0.17880  0.48850  0.15520  1.0000 0.1409760893
C   C79       1.0  0.01150  0.67880  0.90520  1.0000 0.1409760893
C   C80       1.0  0.98850  0.32120  0.40520  1.0000 0.1409760893
C   C81       1.0  0.68740  0.99000  0.05600  1.0000 -0.0697768235
C   C82       1.0  0.31260  0.01000  0.55600  1.0000 -0.0697768235
C   C83       1.0  0.51000  0.18740  0.80600  1.0000 -0.0697768235
C   C84       1.0  0.49000  0.81260  0.30600  1.0000 -0.0697768235
C   C85       1.0  0.81260  0.49000  0.69400  1.0000 -0.0697768235
C   C86       1.0  0.18740  0.51000  0.19400  1.0000 -0.0697768235
C   C87       1.0  0.99000  0.68740  0.94400  1.0000 -0.0697768235
C   C88       1.0  0.01000  0.31260  0.44400  1.0000 -0.0697768235
C   C89       1.0  0.74820  0.92300  0.06680  1.0000 -0.0632699337
C   C90       1.0  0.25180  0.07700  0.56680  1.0000 -0.0632699337
C   C91       1.0  0.57700  0.24820  0.81680  1.0000 -0.0632699337
C   C92       1.0  0.42300  0.75180  0.31680  1.0000 -0.0632699337
C   C93       1.0  0.75180  0.42300  0.68320  1.0000 -0.0632699337
C   C94       1.0  0.24820  0.57700  0.18320  1.0000 -0.0632699337
C   C95       1.0  0.92300  0.74820  0.93320  1.0000 -0.0632699337
C   C96       1.0  0.07700  0.25180  0.43320  1.0000 -0.0632699337
C   C97       1.0  0.65540  0.32040  0.10260  1.0000 0.1292155583
C   C98       1.0  0.34460  0.67960  0.60260  1.0000 0.1292155583
C   C99       1.0  0.17960  0.15540  0.85260  1.0000 0.1292155583
C   C100      1.0  0.82040  0.84460  0.35260  1.0000 0.1292155583
C   C101      1.0  0.84460  0.82040  0.64740  1.0000 0.1292155583
C   C102      1.0  0.15540  0.17960  0.14740  1.0000 0.1292155583
C   C103      1.0  0.32040  0.65540  0.89740  1.0000 0.1292155583
C   C104      1.0  0.67960  0.34460  0.39740  1.0000 0.1292155583
C   C105      1.0  0.65570  0.38220  0.06530  1.0000 -0.036614955
C   C106      1.0  0.34430  0.61780  0.56530  1.0000 -0.036614955
C   C107      1.0  0.11780  0.15570  0.81530  1.0000 -0.036614955
C   C108      1.0  0.88220  0.84430  0.31530  1.0000 -0.036614955
C   C109      1.0  0.84430  0.88220  0.68470  1.0000 -0.036614955
C   C110      1.0  0.15570  0.11780  0.18470  1.0000 -0.036614955
C   C111      1.0  0.38220  0.65570  0.93470  1.0000 -0.036614955
C   C112      1.0  0.61780  0.34430  0.43470  1.0000 -0.036614955
C   C113      1.0  0.70400  0.44630  0.08020  1.0000 -0.0808089003
C   C114      1.0  0.29600  0.55370  0.58020  1.0000 -0.0808089003
C   C115      1.0  0.05370  0.20400  0.83020  1.0000 -0.0808089003
C   C116      1.0  0.94630  0.79600  0.33020  1.0000 -0.0808089003
C   C117      1.0  0.79600  0.94630  0.66980  1.0000 -0.0808089003
C   C118      1.0  0.20400  0.05370  0.16980  1.0000 -0.0808089003
C   C119      1.0  0.44630  0.70400  0.91980  1.0000 -0.0808089003
C   C120      1.0  0.55370  0.29600  0.41980  1.0000 -0.0808089003
C   C121      1.0  0.76980  0.88910  0.16130  1.0000 0.5486190002
C   C122      1.0  0.23020  0.11090  0.66130  1.0000 0.5486190002
C   C123      1.0  0.61090  0.26980  0.91130  1.0000 0.5486190002
C   C124      1.0  0.38910  0.73020  0.41130  1.0000 0.5486190002
C   C125      1.0  0.73020  0.38910  0.58870  1.0000 0.5486190002
C   C126      1.0  0.26980  0.61090  0.08870  1.0000 0.5486190002
C   C127      1.0  0.88910  0.76980  0.83870  1.0000 0.5486190002
C   C128      1.0  0.11090  0.23020  0.33870  1.0000 0.5486190002
C   C129      1.0  0.76290  0.90650  0.18880  1.0000 -0.0180021036
C   C130      1.0  0.23710  0.09350  0.68880  1.0000 -0.0180021036
C   C131      1.0  0.59350  0.26290  0.93880  1.0000 -0.0180021036
C   C132      1.0  0.40650  0.73710  0.43880  1.0000 -0.0180021036
C   C133      1.0  0.73710  0.40650  0.56120  1.0000 -0.0180021036
C   C134      1.0  0.26290  0.59350  0.06120  1.0000 -0.0180021036
C   C135      1.0  0.90650  0.76290  0.81120  1.0000 -0.0180021036
C   C136      1.0  0.09350  0.23710  0.31120  1.0000 -0.0180021036
C   C137      1.0  0.69100  0.85810  0.20340  1.0000 -0.1100756033
C   C138      1.0  0.30900  0.14190  0.70340  1.0000 -0.1100756033
C   C139      1.0  0.64190  0.19100  0.95340  1.0000 -0.1100756033
C   C140      1.0  0.35810  0.80900  0.45340  1.0000 -0.1100756033
C   C141      1.0  0.80900  0.35810  0.54660  1.0000 -0.1100756033
C   C142      1.0  0.19100  0.64190  0.04660  1.0000 -0.1100756033
C   C143      1.0  0.85810  0.69100  0.79660  1.0000 -0.1100756033
C   C144      1.0  0.14190  0.30900  0.29660  1.0000 -0.1100756033
C   C145      1.0  0.68630  0.87530  0.22850  1.0000 -0.1100756033
C   C146      1.0  0.31370  0.12470  0.72850  1.0000 -0.1100756033
C   C147      1.0  0.62470  0.18630  0.97850  1.0000 -0.1100756033
C   C148      1.0  0.37530  0.81370  0.47850  1.0000 -0.1100756033
C   C149      1.0  0.81370  0.37530  0.52150  1.0000 -0.1100756033
C   C150      1.0  0.18630  0.62470  0.02150  1.0000 -0.1100756033
C   C151      1.0  0.87530  0.68630  0.77150  1.0000 -0.1100756033
C   C152      1.0  0.12470  0.31370  0.27150  1.0000 -0.1100756033
C   C153      1.0  0.75090  0.94670  0.23960  1.0000 -0.0094778519
C   C154      1.0  0.24910  0.05330  0.73960  1.0000 -0.0094778519
C   C155      1.0  0.55330  0.25090  0.98960  1.0000 -0.0094778519
C   C156      1.0  0.44670  0.74910  0.48960  1.0000 -0.0094778519
C   C157      1.0  0.74910  0.44670  0.51040  1.0000 -0.0094778519
C   C158      1.0  0.25090  0.55330  0.01040  1.0000 -0.0094778519
C   C159      1.0  0.94670  0.75090  0.76040  1.0000 -0.0094778519
C   C160      1.0  0.05330  0.24910  0.26040  1.0000 -0.0094778519
C   C161      1.0  0.82210  0.99380  0.22570  1.0000 -0.097833246
C   C162      1.0  0.17790  0.00620  0.72570  1.0000 -0.097833246
C   C163      1.0  0.50620  0.32210  0.97570  1.0000 -0.097833246
C   C164      1.0  0.49380  0.67790  0.47570  1.0000 -0.097833246
C   C165      1.0  0.67790  0.49380  0.52430  1.0000 -0.097833246
C   C166      1.0  0.32210  0.50620  0.02430  1.0000 -0.097833246
C   C167      1.0  0.99380  0.82210  0.77430  1.0000 -0.097833246
C   C168      1.0  0.00620  0.17790  0.27430  1.0000 -0.097833246
C   C169      1.0  0.82880  0.97840  0.19950  1.0000 -0.1100756033
C   C170      1.0  0.17120  0.02160  0.69950  1.0000 -0.1100756033
C   C171      1.0  0.52160  0.32880  0.94950  1.0000 -0.1100756033
C   C172      1.0  0.47840  0.67120  0.44950  1.0000 -0.1100756033
C   C173      1.0  0.67120  0.47840  0.55050  1.0000 -0.1100756033
C   C174      1.0  0.32880  0.52160  0.05050  1.0000 -0.1100756033
C   C175      1.0  0.97840  0.82880  0.80050  1.0000 -0.1100756033
C   C176      1.0  0.02160  0.17120  0.30050  1.0000 -0.1100756033
C   C177      1.0  0.74340  0.96890  0.26730  1.0000 0.5398725699
C   C178      1.0  0.25660  0.03110  0.76730  1.0000 0.5398725699
C   C179      1.0  0.53110  0.24340  0.01730  1.0000 0.5398725699
C   C180      1.0  0.46890  0.75660  0.51730  1.0000 0.5398725699
C   C181      1.0  0.75660  0.46890  0.48270  1.0000 0.5398725699
C   C182      1.0  0.24340  0.53110  0.98270  1.0000 0.5398725699
C   C183      1.0  0.96890  0.74340  0.73270  1.0000 0.5398725699
C   C184      1.0  0.03110  0.25660  0.23270  1.0000 0.5398725699
N   N1        1.0  0.79570  0.40150  0.14782  1.0000 -0.1947055478
N   N2        1.0  0.20430  0.59850  0.64782  1.0000 -0.1947055478
N   N3        1.0  0.09850  0.29570  0.89782  1.0000 -0.1947055478
N   N4        1.0  0.90150  0.70430  0.39782  1.0000 -0.1947055478
N   N5        1.0  0.70430  0.90150  0.60218  1.0000 -0.1947055478
N   N6        1.0  0.29570  0.09850  0.10218  1.0000 -0.1947055478
N   N7        1.0  0.40150  0.79570  0.85218  1.0000 -0.1947055478
N   N8        1.0  0.59850  0.20430  0.35218  1.0000 -0.1947055478
N   N9        1.0  0.91640  0.34010  0.17183  1.0000 -0.2723187786
N   N10       1.0  0.08360  0.65990  0.67183  1.0000 -0.2723187786
N   N11       1.0  0.15990  0.41640  0.92183  1.0000 -0.2723187786
N   N12       1.0  0.84010  0.58360  0.42183  1.0000 -0.2723187786
N   N13       1.0  0.58360  0.84010  0.57817  1.0000 -0.2723187786
N   N14       1.0  0.41640  0.15990  0.07817  1.0000 -0.2723187786
N   N15       1.0  0.34010  0.91640  0.82817  1.0000 -0.2723187786
N   N16       1.0  0.65990  0.08360  0.32817  1.0000 -0.2723187786
N   N17       1.0  0.80600  0.55970  0.12036  1.0000 -0.2590720995
N   N18       1.0  0.19400  0.44030  0.62036  1.0000 -0.2590720995
N   N19       1.0  0.94030  0.30600  0.87036  1.0000 -0.2590720995
N   N20       1.0  0.05970  0.69400  0.37036  1.0000 -0.2590720995
N   N21       1.0  0.69400  0.05970  0.62964  1.0000 -0.2590720995
N   N22       1.0  0.30600  0.94030  0.12964  1.0000 -0.2590720995
N   N23       1.0  0.55970  0.80600  0.87964  1.0000 -0.2590720995
N   N24       1.0  0.44030  0.19400  0.37964  1.0000 -0.2590720995
N   N25       1.0  0.85290  0.71880  0.11350  1.0000 -0.2590720995
N   N26       1.0  0.14710  0.28120  0.61350  1.0000 -0.2590720995
N   N27       1.0  0.78120  0.35290  0.86350  1.0000 -0.2590720995
N   N28       1.0  0.21880  0.64710  0.36350  1.0000 -0.2590720995
N   N29       1.0  0.64710  0.21880  0.63650  1.0000 -0.2590720995
N   N30       1.0  0.35290  0.78120  0.13650  1.0000 -0.2590720995
N   N31       1.0  0.71880  0.85290  0.88650  1.0000 -0.2590720995
N   N32       1.0  0.28120  0.14710  0.38650  1.0000 -0.2590720995
N   N33       1.0  0.63930  0.50950  0.14081  1.0000 -0.2590720995
N   N34       1.0  0.36070  0.49050  0.64081  1.0000 -0.2590720995
N   N35       1.0  0.99050  0.13930  0.89081  1.0000 -0.2590720995
N   N36       1.0  0.00950  0.86070  0.39081  1.0000 -0.2590720995
N   N37       1.0  0.86070  0.00950  0.60919  1.0000 -0.2590720995
N   N38       1.0  0.13930  0.99050  0.10919  1.0000 -0.2590720995
N   N39       1.0  0.50950  0.63930  0.85919  1.0000 -0.2590720995
N   N40       1.0  0.49050  0.36070  0.35919  1.0000 -0.2590720995
N   N41       1.0  0.48550  0.58110  0.14467  1.0000 -0.2820232157
N   N42       1.0  0.51450  0.41890  0.64467  1.0000 -0.2820232157
N   N43       1.0  0.91890  0.98550  0.89467  1.0000 -0.2820232157
N   N44       1.0  0.08110  0.01450  0.39467  1.0000 -0.2820232157
N   N45       1.0  0.01450  0.08110  0.60533  1.0000 -0.2820232157
N   N46       1.0  0.98550  0.91890  0.10533  1.0000 -0.2820232157
N   N47       1.0  0.58110  0.48550  0.85533  1.0000 -0.2820232157
N   N48       1.0  0.41890  0.51450  0.35533  1.0000 -0.2820232157
N   N49       1.0  0.64030  0.04970  0.07392  1.0000 -0.3080661614
N   N50       1.0  0.35970  0.95030  0.57392  1.0000 -0.3080661614
N   N51       1.0  0.45030  0.14030  0.82392  1.0000 -0.3080661614
N   N52       1.0  0.54970  0.85970  0.32392  1.0000 -0.3080661614
N   N53       1.0  0.85970  0.54970  0.67608  1.0000 -0.3080661614
N   N54       1.0  0.14030  0.45030  0.17608  1.0000 -0.3080661614
N   N55       1.0  0.04970  0.64030  0.92608  1.0000 -0.3080661614
N   N56       1.0  0.95030  0.35970  0.42608  1.0000 -0.3080661614
N   N57       1.0  0.74440  0.93620  0.09151  1.0000 -0.2820232157
N   N58       1.0  0.25560  0.06380  0.59151  1.0000 -0.2820232157
N   N59       1.0  0.56380  0.24440  0.84151  1.0000 -0.2820232157
N   N60       1.0  0.43620  0.75560  0.34151  1.0000 -0.2820232157
N   N61       1.0  0.75560  0.43620  0.65849  1.0000 -0.2820232157
N   N62       1.0  0.24440  0.56380  0.15849  1.0000 -0.2820232157
N   N63       1.0  0.93620  0.74440  0.90849  1.0000 -0.2820232157
N   N64       1.0  0.06380  0.25560  0.40849  1.0000 -0.2820232157
N   N65       1.0  0.70590  0.40890  0.10445  1.0000 -0.2273691614
N   N66       1.0  0.29410  0.59110  0.60445  1.0000 -0.2273691614
N   N67       1.0  0.09110  0.20590  0.85445  1.0000 -0.2273691614
N   N68       1.0  0.90890  0.79410  0.35445  1.0000 -0.2273691614
N   N69       1.0  0.79410  0.90890  0.64555  1.0000 -0.2273691614
N   N70       1.0  0.20590  0.09110  0.14555  1.0000 -0.2273691614
N   N71       1.0  0.40890  0.70590  0.89555  1.0000 -0.2273691614
N   N72       1.0  0.59110  0.29410  0.39555  1.0000 -0.2273691614
N   N73       1.0  0.62700  0.30080  0.07955  1.0000 -0.2723187786
N   N74       1.0  0.37300  0.69920  0.57955  1.0000 -0.2723187786
N   N75       1.0  0.19920  0.12700  0.82955  1.0000 -0.2723187786
N   N76       1.0  0.80080  0.87300  0.32955  1.0000 -0.2723187786
N   N77       1.0  0.87300  0.80080  0.67045  1.0000 -0.2723187786
N   N78       1.0  0.12700  0.19920  0.17045  1.0000 -0.2723187786
N   N79       1.0  0.30080  0.62700  0.92045  1.0000 -0.2723187786
N   N80       1.0  0.69920  0.37300  0.42045  1.0000 -0.2723187786
O   O1        1.0  0.67600  0.91780  0.27969  1.0000 -0.5426533614
O   O2        1.0  0.32400  0.08220  0.77969  1.0000 -0.5426533614
O   O3        1.0  0.58220  0.17600  0.02969  1.0000 -0.5426533614
O   O4        1.0  0.41780  0.82400  0.52969  1.0000 -0.5426533614
O   O5        1.0  0.82400  0.41780  0.47031  1.0000 -0.5426533614
O   O6        1.0  0.17600  0.58220  0.97031  1.0000 -0.5426533614
O   O7        1.0  0.91780  0.67600  0.72031  1.0000 -0.5426533614
O   O8        1.0  0.08220  0.32400  0.22031  1.0000 -0.5426533614
O   O9        1.0  0.79970  0.02970  0.27703  1.0000 -0.5123375449
O   O10       1.0  0.20030  0.97030  0.77703  1.0000 -0.5123375449
O   O11       1.0  0.47030  0.29970  0.02703  1.0000 -0.5123375449
O   O12       1.0  0.52970  0.70030  0.52703  1.0000 -0.5123375449
O   O13       1.0  0.70030  0.52970  0.47297  1.0000 -0.5123375449
O   O14       1.0  0.29970  0.47030  0.97297  1.0000 -0.5123375449
O   O15       1.0  0.02970  0.79970  0.72297  1.0000 -0.5123375449
O   O16       1.0  0.97030  0.20030  0.22297  1.0000 -0.5123375449
O   O17       1.0  0.84740  0.92610  0.14989  1.0000 -0.5564503912
O   O18       1.0  0.15260  0.07390  0.64989  1.0000 -0.5564503912
O   O19       1.0  0.57390  0.34740  0.89989  1.0000 -0.5564503912
O   O20       1.0  0.42610  0.65260  0.39989  1.0000 -0.5564503912
O   O21       1.0  0.65260  0.42610  0.60011  1.0000 -0.5564503912
O   O22       1.0  0.34740  0.57390  0.10011  1.0000 -0.5564503912
O   O23       1.0  0.92610  0.84740  0.85011  1.0000 -0.5564503912
O   O24       1.0  0.07390  0.15260  0.35011  1.0000 -0.5564503912
O   O25       1.0  0.69750  0.84040  0.15056  1.0000 -0.6095079501
O   O26       1.0  0.30250  0.15960  0.65056  1.0000 -0.6095079501
O   O27       1.0  0.65960  0.19750  0.90056  1.0000 -0.6095079501
O   O28       1.0  0.34040  0.80250  0.40056  1.0000 -0.6095079501
O   O29       1.0  0.80250  0.34040  0.59944  1.0000 -0.6095079501
O   O30       1.0  0.19750  0.65960  0.09944  1.0000 -0.6095079501
O   O31       1.0  0.84040  0.69750  0.84944  1.0000 -0.6095079501
O   O32       1.0  0.15960  0.30250  0.34944  1.0000 -0.6095079501
