# DDEC6 charges by PACMAN v1.1 (https://github.com/mtap-research/PACMAN-charge/)
data_2010[Co][pts]3[FSR]2
_chemical_formula_sum              "Co4 H104 C100 S8 N16 O16"
_cell_length_a       12.079
_cell_length_b       12.079
_cell_length_c       24.539
_cell_angle_alpha    90
_cell_angle_beta     90
_cell_angle_gamma    90

_symmetry_space_group_name_H-M    "P 1"
_symmetry_Int_Tables_number       1

loop_
  _symmetry_equiv_pos_as_xyz
  'x, y, z'

loop_
  _atom_site_type_symbol
  _atom_site_label
  _atom_site_symmetry_multiplicity
  _atom_site_fract_x
  _atom_site_fract_y
  _atom_site_fract_z
  _atom_site_occupancy
  _atom_site_charge
Co  Co1       1.0  0.50000  0.50000  0.67260  1.0000 0.4858735434
Co  Co2       1.0  0.00000  0.00000  0.17260  1.0000 0.4843744717
Co  Co3       1.0  0.00000  0.00000  0.82740  1.0000 0.4843744717
Co  Co4       1.0  0.50000  0.50000  0.32740  1.0000 0.4858735434
H   H1        1.0  0.33200  0.32450  0.62740  1.0000 0.1001680024
H   H2        1.0  0.66800  0.67550  0.62740  1.0000 0.1001680024
H   H3        1.0  0.17550  0.83200  0.12740  1.0000 0.1001680024
H   H4        1.0  0.82450  0.16800  0.12740  1.0000 0.1001680024
H   H5        1.0  0.31450  0.18600  0.56550  1.0000 0.1480503759
H   H6        1.0  0.68550  0.81400  0.56550  1.0000 0.1480503759
H   H7        1.0  0.31400  0.81450  0.06550  1.0000 0.1480503759
H   H8        1.0  0.68600  0.18550  0.06550  1.0000 0.1480503759
H   H9        1.0  0.61450  0.26670  0.50770  1.0000 0.1382678958
H   H10       1.0  0.38550  0.73330  0.50770  1.0000 0.1382678958
H   H11       1.0  0.23330  0.11450  0.00770  1.0000 0.1382678958
H   H12       1.0  0.76670  0.88550  0.00770  1.0000 0.1382678958
H   H13       1.0  0.62210  0.40040  0.57350  1.0000 0.1001680024
H   H14       1.0  0.37790  0.59960  0.57350  1.0000 0.1001680024
H   H15       1.0  0.09960  0.12210  0.07350  1.0000 0.1001680024
H   H16       1.0  0.90040  0.87790  0.07350  1.0000 0.1001680024
H   H17       1.0  0.55460  0.16100  0.43460  1.0000 0.1001680024
H   H18       1.0  0.44540  0.83900  0.43460  1.0000 0.1001680024
H   H19       1.0  0.33900  0.05460  0.93460  1.0000 0.1001680024
H   H20       1.0  0.66100  0.94540  0.93460  1.0000 0.1001680024
H   H21       1.0  0.60460  0.07890  0.47810  1.0000 0.1001680024
H   H22       1.0  0.39540  0.92110  0.47810  1.0000 0.1001680024
H   H23       1.0  0.42110  0.10460  0.97810  1.0000 0.1001680024
H   H24       1.0  0.57890  0.89540  0.97810  1.0000 0.1001680024
H   H25       1.0  0.56880  0.90620  0.36080  1.0000 0.1001680024
H   H26       1.0  0.43120  0.09380  0.36080  1.0000 0.1001680024
H   H27       1.0  0.59380  0.06880  0.86080  1.0000 0.1001680024
H   H28       1.0  0.40620  0.93120  0.86080  1.0000 0.1001680024
H   H29       1.0  0.65190  0.92310  0.40960  1.0000 0.1001680024
H   H30       1.0  0.34810  0.07690  0.40960  1.0000 0.1001680024
H   H31       1.0  0.57690  0.15190  0.90960  1.0000 0.1001680024
H   H32       1.0  0.42310  0.84810  0.90960  1.0000 0.1001680024
H   H33       1.0  0.84770  0.86240  0.24770  1.0000 0.1001680024
H   H34       1.0  0.15230  0.13760  0.24770  1.0000 0.1001680024
H   H35       1.0  0.63760  0.34770  0.74770  1.0000 0.1001680024
H   H36       1.0  0.36240  0.65230  0.74770  1.0000 0.1001680024
H   H37       1.0  0.71630  0.87250  0.31580  1.0000 0.1349245093
H   H38       1.0  0.28370  0.12750  0.31580  1.0000 0.1349245093
H   H39       1.0  0.62750  0.21630  0.81580  1.0000 0.1349245093
H   H40       1.0  0.37250  0.78370  0.81580  1.0000 0.1349245093
H   H41       1.0  0.76410  0.19360  0.31620  1.0000 0.1382678958
H   H42       1.0  0.23590  0.80640  0.31620  1.0000 0.1382678958
H   H43       1.0  0.30640  0.26410  0.81620  1.0000 0.1382678958
H   H44       1.0  0.69360  0.73590  0.81620  1.0000 0.1382678958
H   H45       1.0  0.87240  0.17470  0.24090  1.0000 0.1001680024
H   H46       1.0  0.12760  0.82530  0.24090  1.0000 0.1001680024
H   H47       1.0  0.32530  0.37240  0.74090  1.0000 0.1001680024
H   H48       1.0  0.67470  0.62760  0.74090  1.0000 0.1001680024
H   H49       1.0  0.27880  0.61590  0.65000  1.0000 0.1104314073
H   H50       1.0  0.72120  0.38410  0.65000  1.0000 0.1104314073
H   H51       1.0  0.88410  0.77880  0.15000  1.0000 0.1104314073
H   H52       1.0  0.11590  0.22120  0.15000  1.0000 0.1104314073
H   H53       1.0  0.16800  0.17550  0.87260  1.0000 0.1001680024
H   H54       1.0  0.83200  0.82450  0.87260  1.0000 0.1001680024
H   H55       1.0  0.32450  0.66800  0.37260  1.0000 0.1001680024
H   H56       1.0  0.67550  0.33200  0.37260  1.0000 0.1001680024
H   H57       1.0  0.18550  0.31400  0.93450  1.0000 0.1480503759
H   H58       1.0  0.81450  0.68600  0.93450  1.0000 0.1480503759
H   H59       1.0  0.18600  0.68550  0.43450  1.0000 0.1480503759
H   H60       1.0  0.81400  0.31450  0.43450  1.0000 0.1480503759
H   H61       1.0  0.88550  0.23330  0.99230  1.0000 0.1349245093
H   H62       1.0  0.11450  0.76670  0.99230  1.0000 0.1382678958
H   H63       1.0  0.26670  0.38550  0.49230  1.0000 0.1382678958
H   H64       1.0  0.73330  0.61450  0.49230  1.0000 0.1382678958
H   H65       1.0  0.87790  0.09960  0.92650  1.0000 0.1001680024
H   H66       1.0  0.12210  0.90040  0.92650  1.0000 0.1001680024
H   H67       1.0  0.40040  0.37790  0.42650  1.0000 0.1001680024
H   H68       1.0  0.59960  0.62210  0.42650  1.0000 0.1001680024
H   H69       1.0  0.94540  0.33900  0.06540  1.0000 0.1001680024
H   H70       1.0  0.05460  0.66100  0.06540  1.0000 0.1001680024
H   H71       1.0  0.16100  0.44540  0.56540  1.0000 0.1001680024
H   H72       1.0  0.83900  0.55460  0.56540  1.0000 0.1001680024
H   H73       1.0  0.89540  0.42110  0.02190  1.0000 0.1001680024
H   H74       1.0  0.10460  0.57890  0.02190  1.0000 0.1001680024
H   H75       1.0  0.07890  0.39540  0.52190  1.0000 0.1001680024
H   H76       1.0  0.92110  0.60460  0.52190  1.0000 0.1001680024
H   H77       1.0  0.93120  0.59380  0.13920  1.0000 0.1001680024
H   H78       1.0  0.06880  0.40620  0.13920  1.0000 0.1001680024
H   H79       1.0  0.90620  0.43120  0.63920  1.0000 0.1001680024
H   H80       1.0  0.09380  0.56880  0.63920  1.0000 0.1001680024
H   H81       1.0  0.84810  0.57690  0.09040  1.0000 0.1001680024
H   H82       1.0  0.15190  0.42310  0.09040  1.0000 0.1001680024
H   H83       1.0  0.92310  0.34810  0.59040  1.0000 0.1001680024
H   H84       1.0  0.07690  0.65190  0.59040  1.0000 0.1001680024
H   H85       1.0  0.65230  0.63760  0.25230  1.0000 0.1001680024
H   H86       1.0  0.34770  0.36240  0.25230  1.0000 0.1001680024
H   H87       1.0  0.86240  0.15230  0.75230  1.0000 0.1001680024
H   H88       1.0  0.13760  0.84770  0.75230  1.0000 0.1001680024
H   H89       1.0  0.78370  0.62750  0.18420  1.0000 0.1349245093
H   H90       1.0  0.21630  0.37250  0.18420  1.0000 0.1349245093
H   H91       1.0  0.87250  0.28370  0.68420  1.0000 0.1349245093
H   H92       1.0  0.12750  0.71630  0.68420  1.0000 0.1349245093
H   H93       1.0  0.73590  0.30640  0.18380  1.0000 0.1382678958
H   H94       1.0  0.26410  0.69360  0.18380  1.0000 0.1382678958
H   H95       1.0  0.19360  0.23590  0.68380  1.0000 0.1382678958
H   H96       1.0  0.80640  0.76410  0.68380  1.0000 0.1382678958
H   H97       1.0  0.62760  0.32530  0.25910  1.0000 0.1001680024
H   H98       1.0  0.37240  0.67470  0.25910  1.0000 0.1001680024
H   H99       1.0  0.17470  0.12760  0.75910  1.0000 0.1001680024
H   H100      1.0  0.82530  0.87240  0.75910  1.0000 0.1001680024
H   H101      1.0  0.22120  0.88410  0.85000  1.0000 0.1104314073
H   H102      1.0  0.77880  0.11590  0.85000  1.0000 0.1104314073
H   H103      1.0  0.61590  0.72120  0.35000  1.0000 0.1104314073
H   H104      1.0  0.38410  0.27880  0.35000  1.0000 0.1104314073
C   C1        1.0  0.39040  0.31140  0.60354  1.0000 0.0674498647
C   C2        1.0  0.60960  0.68860  0.60354  1.0000 0.0674498647
C   C3        1.0  0.18860  0.89040  0.10354  1.0000 0.0674498647
C   C4        1.0  0.81140  0.10960  0.10354  1.0000 0.0674498647
C   C5        1.0  0.37860  0.22860  0.56630  1.0000 -0.2592609965
C   C6        1.0  0.62140  0.77140  0.56630  1.0000 -0.2592609965
C   C7        1.0  0.27140  0.87860  0.06630  1.0000 -0.2592609965
C   C8        1.0  0.72860  0.12140  0.06630  1.0000 -0.2592609965
C   C9        1.0  0.46400  0.20870  0.52942  1.0000 0.2804985128
C   C10       1.0  0.53600  0.79130  0.52942  1.0000 0.2804985128
C   C11       1.0  0.29130  0.96400  0.02942  1.0000 0.2804985128
C   C12       1.0  0.70870  0.03600  0.02942  1.0000 0.2804985128
C   C13       1.0  0.55620  0.27550  0.53203  1.0000 -0.3036941693
C   C14       1.0  0.44380  0.72450  0.53203  1.0000 -0.3036941693
C   C15       1.0  0.22450  0.05620  0.03203  1.0000 -0.3036941693
C   C16       1.0  0.77550  0.94380  0.03203  1.0000 -0.3036941693
C   C17       1.0  0.55920  0.35600  0.57197  1.0000 0.1001680024
C   C18       1.0  0.44080  0.64400  0.57197  1.0000 0.1001680024
C   C19       1.0  0.14400  0.05920  0.07197  1.0000 0.1001680024
C   C20       1.0  0.85600  0.94080  0.07197  1.0000 0.1001680024
C   C21       1.0  0.53830  0.09800  0.45782  1.0000 -0.09414179
C   C22       1.0  0.46170  0.90200  0.45782  1.0000 -0.09414179
C   C23       1.0  0.40200  0.03830  0.95782  1.0000 -0.09414179
C   C24       1.0  0.59800  0.96170  0.95782  1.0000 -0.09414179
C   C25       1.0  0.50000  0.00000  0.42362  1.0000 0.0846399672
C   C26       1.0  0.50000  0.00000  0.92362  1.0000 0.0846399672
C   C27       1.0  0.59590  0.95900  0.38745  1.0000 -0.0970964379
C   C28       1.0  0.40410  0.04100  0.38745  1.0000 -0.0970964379
C   C29       1.0  0.54100  0.09590  0.88745  1.0000 -0.0970964379
C   C30       1.0  0.45900  0.90410  0.88745  1.0000 -0.0970964379
C   C31       1.0  0.82680  0.93200  0.26018  1.0000 0.1104314073
C   C32       1.0  0.17320  0.06800  0.26018  1.0000 0.1104314073
C   C33       1.0  0.56800  0.32680  0.76018  1.0000 0.1104314073
C   C34       1.0  0.43200  0.67320  0.76018  1.0000 0.1104314073
C   C35       1.0  0.74780  0.93680  0.30184  1.0000 -0.2740494677
C   C36       1.0  0.25220  0.06320  0.30184  1.0000 -0.2740494677
C   C37       1.0  0.56320  0.24780  0.80184  1.0000 -0.2740494677
C   C38       1.0  0.43680  0.75220  0.80184  1.0000 -0.2740494677
C   C39       1.0  0.71880  0.03650  0.32099  1.0000 0.2672219507
C   C40       1.0  0.28120  0.96350  0.32099  1.0000 0.2672219507
C   C41       1.0  0.46350  0.21880  0.82099  1.0000 0.2672219507
C   C42       1.0  0.53650  0.78120  0.82099  1.0000 0.2672219507
C   C43       1.0  0.77380  0.12400  0.30068  1.0000 -0.2798136243
C   C44       1.0  0.22620  0.87600  0.30068  1.0000 -0.2798136243
C   C45       1.0  0.37600  0.27380  0.80068  1.0000 -0.2798136243
C   C46       1.0  0.62400  0.72620  0.80068  1.0000 -0.2798136243
C   C47       1.0  0.84410  0.11110  0.25719  1.0000 0.1001680024
C   C48       1.0  0.15590  0.88890  0.25719  1.0000 0.1001680024
C   C49       1.0  0.38890  0.34410  0.75719  1.0000 0.1001680024
C   C50       1.0  0.61110  0.65590  0.75719  1.0000 0.1001680024
C   C51       1.0  0.10960  0.18860  0.89646  1.0000 0.0674498647
C   C52       1.0  0.89040  0.81140  0.89646  1.0000 0.0674498647
C   C53       1.0  0.31140  0.60960  0.39646  1.0000 0.0674498647
C   C54       1.0  0.68860  0.39040  0.39646  1.0000 0.0674498647
C   C55       1.0  0.12140  0.27140  0.93370  1.0000 -0.2592609965
C   C56       1.0  0.87860  0.72860  0.93370  1.0000 -0.2592609965
C   C57       1.0  0.22860  0.62140  0.43370  1.0000 -0.2592609965
C   C58       1.0  0.77140  0.37860  0.43370  1.0000 -0.2592609965
C   C59       1.0  0.03600  0.29130  0.97058  1.0000 0.2804985128
C   C60       1.0  0.96400  0.70870  0.97058  1.0000 0.2804985128
C   C61       1.0  0.20870  0.53600  0.47058  1.0000 0.2804985128
C   C62       1.0  0.79130  0.46400  0.47058  1.0000 0.2804985128
C   C63       1.0  0.94380  0.22450  0.96797  1.0000 -0.3036941693
C   C64       1.0  0.05620  0.77550  0.96797  1.0000 -0.3036941693
C   C65       1.0  0.27550  0.44380  0.46797  1.0000 -0.3036941693
C   C66       1.0  0.72450  0.55620  0.46797  1.0000 -0.3036941693
C   C67       1.0  0.94080  0.14400  0.92803  1.0000 0.1001680024
C   C68       1.0  0.05920  0.85600  0.92803  1.0000 0.1001680024
C   C69       1.0  0.35600  0.44080  0.42803  1.0000 0.1001680024
C   C70       1.0  0.64400  0.55920  0.42803  1.0000 0.1001680024
C   C71       1.0  0.96170  0.40200  0.04218  1.0000 -0.09414179
C   C72       1.0  0.03830  0.59800  0.04218  1.0000 -0.09414179
C   C73       1.0  0.09800  0.46170  0.54218  1.0000 -0.09414179
C   C74       1.0  0.90200  0.53830  0.54218  1.0000 -0.09414179
C   C75       1.0  0.00000  0.50000  0.07638  1.0000 0.0846399672
C   C76       1.0  0.00000  0.50000  0.57638  1.0000 0.0846399672
C   C77       1.0  0.90410  0.54100  0.11255  1.0000 -0.0970964379
C   C78       1.0  0.09590  0.45900  0.11255  1.0000 -0.0970964379
C   C79       1.0  0.95900  0.40410  0.61255  1.0000 -0.0970964379
C   C80       1.0  0.04100  0.59590  0.61255  1.0000 -0.0970964379
C   C81       1.0  0.67320  0.56800  0.23982  1.0000 0.1104314073
C   C82       1.0  0.32680  0.43200  0.23982  1.0000 0.1104314073
C   C83       1.0  0.93200  0.17320  0.73982  1.0000 0.1104314073
C   C84       1.0  0.06800  0.82680  0.73982  1.0000 0.1104314073
C   C85       1.0  0.75220  0.56320  0.19816  1.0000 -0.2740494677
C   C86       1.0  0.24780  0.43680  0.19816  1.0000 -0.2740494677
C   C87       1.0  0.93680  0.25220  0.69816  1.0000 -0.2740494677
C   C88       1.0  0.06320  0.74780  0.69816  1.0000 -0.2740494677
C   C89       1.0  0.78120  0.46350  0.17901  1.0000 0.2672219507
C   C90       1.0  0.21880  0.53650  0.17901  1.0000 0.2672219507
C   C91       1.0  0.03650  0.28120  0.67901  1.0000 0.2672219507
C   C92       1.0  0.96350  0.71880  0.67901  1.0000 0.2672219507
C   C93       1.0  0.72620  0.37600  0.19932  1.0000 -0.2798136243
C   C94       1.0  0.27380  0.62400  0.19932  1.0000 -0.2798136243
C   C95       1.0  0.12400  0.22620  0.69932  1.0000 -0.2798136243
C   C96       1.0  0.87600  0.77380  0.69932  1.0000 -0.2798136243
C   C97       1.0  0.65590  0.38890  0.24281  1.0000 0.1001680024
C   C98       1.0  0.34410  0.61110  0.24281  1.0000 0.1001680024
C   C99       1.0  0.11110  0.15590  0.74281  1.0000 0.1001680024
C   C100      1.0  0.88890  0.84410  0.74281  1.0000 0.1001680024
S   S1        1.0  0.29920  0.52878  0.67121  1.0000 -0.5826833167
S   S2        1.0  0.70080  0.47122  0.67121  1.0000 -0.5826833167
S   S3        1.0  0.97122  0.79920  0.17121  1.0000 -0.5826833167
S   S4        1.0  0.02878  0.20080  0.17121  1.0000 -0.5826833167
S   S5        1.0  0.20080  0.97122  0.82879  1.0000 -0.5826833167
S   S6        1.0  0.79920  0.02878  0.82879  1.0000 -0.5826833167
S   S7        1.0  0.52878  0.70080  0.32879  1.0000 -0.5826833167
S   S8        1.0  0.47122  0.29920  0.32879  1.0000 -0.5826833167
N   N1        1.0  0.48110  0.37560  0.60815  1.0000 -0.2228159451
N   N2        1.0  0.51890  0.62440  0.60815  1.0000 -0.2228159451
N   N3        1.0  0.12440  0.98110  0.10815  1.0000 -0.2228159451
N   N4        1.0  0.87560  0.01890  0.10815  1.0000 -0.2228159451
N   N5        1.0  0.87310  0.01770  0.23759  1.0000 -0.2228159451
N   N6        1.0  0.12690  0.98230  0.23759  1.0000 -0.2228159451
N   N7        1.0  0.48230  0.37310  0.73759  1.0000 -0.2228159451
N   N8        1.0  0.51770  0.62690  0.73759  1.0000 -0.2228159451
N   N9        1.0  0.01890  0.12440  0.89185  1.0000 -0.2228159451
N   N10       1.0  0.98110  0.87560  0.89185  1.0000 -0.2228159451
N   N11       1.0  0.37560  0.51890  0.39185  1.0000 -0.2228159451
N   N12       1.0  0.62440  0.48110  0.39185  1.0000 -0.2228159451
N   N13       1.0  0.62690  0.48230  0.26241  1.0000 -0.2228159451
N   N14       1.0  0.37310  0.51770  0.26241  1.0000 -0.2228159451
N   N15       1.0  0.01770  0.12690  0.76241  1.0000 -0.2228159451
N   N16       1.0  0.98230  0.87310  0.76241  1.0000 -0.2228159451
O   O1        1.0  0.44948  0.12395  0.49451  1.0000 -0.1726581075
O   O2        1.0  0.55052  0.87605  0.49451  1.0000 -0.1726581075
O   O3        1.0  0.37605  0.94948  0.99451  1.0000 -0.1726581075
O   O4        1.0  0.62395  0.05052  0.99451  1.0000 -0.1726581075
O   O5        1.0  0.64187  0.05430  0.36047  1.0000 -0.1726581075
O   O6        1.0  0.35813  0.94570  0.36047  1.0000 -0.1726581075
O   O7        1.0  0.44570  0.14187  0.86047  1.0000 -0.1726581075
O   O8        1.0  0.55430  0.85813  0.86047  1.0000 -0.1726581075
O   O9        1.0  0.05052  0.37605  0.00549  1.0000 -0.1726581075
O   O10       1.0  0.94948  0.62395  0.00549  1.0000 -0.1726581075
O   O11       1.0  0.12395  0.55052  0.50549  1.0000 -0.1726581075
O   O12       1.0  0.87605  0.44948  0.50549  1.0000 -0.1726581075
O   O13       1.0  0.85813  0.44570  0.13953  1.0000 -0.1726581075
O   O14       1.0  0.14187  0.55430  0.13953  1.0000 -0.1726581075
O   O15       1.0  0.05430  0.35813  0.63953  1.0000 -0.1726581075
O   O16       1.0  0.94570  0.64187  0.63953  1.0000 -0.1726581075
