# DDEC6 charges by PACMAN v1.1 (https://github.com/mtap-research/PACMAN-charge/)
data_2010[Mn][nan]3[FSR]9
_chemical_formula_sum              "Mn4 H100 C98 N12 O22"
_cell_length_a       11.3475
_cell_length_b       11.786
_cell_length_c       21.203
_cell_angle_alpha    96.259
_cell_angle_beta     90.978
_cell_angle_gamma    108.258

_symmetry_space_group_name_H-M    "P 1"
_symmetry_Int_Tables_number       1

loop_
  _symmetry_equiv_pos_as_xyz
  'x, y, z'

loop_
  _atom_site_type_symbol
  _atom_site_label
  _atom_site_symmetry_multiplicity
  _atom_site_fract_x
  _atom_site_fract_y
  _atom_site_fract_z
  _atom_site_occupancy
  _atom_site_charge
Mn  Mn1       1.0  0.00000  0.00000  0.50000  1.0000 0.9178628508
Mn  Mn2       1.0  0.86285  0.52230  0.75940  1.0000 0.8316922371
Mn  Mn3       1.0  0.13715  0.47770  0.24060  1.0000 0.8316922371
Mn  Mn4       1.0  0.50000  0.50000  0.00000  1.0000 0.875127453
H   H1        1.0  0.78510  0.70730  0.75870  1.0000 0.2979637269
H   H2        1.0  0.21490  0.29270  0.24130  1.0000 0.2979637269
H   H3        1.0  0.79290  0.67960  0.69690  1.0000 0.3201117102
H   H4        1.0  0.20710  0.32040  0.30310  1.0000 0.3201117102
H   H5        1.0  0.76390  0.91000  0.43810  1.0000 0.3426261876
H   H6        1.0  0.23610  0.09000  0.56190  1.0000 0.3426261876
H   H7        1.0  0.83310  0.03500  0.41370  1.0000 0.3704243485
H   H8        1.0  0.16690  0.96500  0.58630  1.0000 0.3704243485
H   H9        1.0  0.50950  0.72190  0.02850  1.0000 0.3907818381
H   H10       1.0  0.49050  0.27810  0.97150  1.0000 0.3907818381
H   H11       1.0  0.64160  0.72070  0.01500  1.0000 0.3959831182
H   H12       1.0  0.35840  0.27930  0.98500  1.0000 0.3959831182
H   H13       1.0  0.97070  0.33910  0.67920  1.0000 0.1095917323
H   H14       1.0  0.02930  0.66090  0.32080  1.0000 0.1095917323
H   H15       1.0  0.39850  0.39900  0.12940  1.0000 0.1095917323
H   H16       1.0  0.60150  0.60100  0.87060  1.0000 0.1095917323
H   H17       1.0  0.45430  0.39260  0.23310  1.0000 0.1294016574
H   H18       1.0  0.54570  0.60740  0.76690  1.0000 0.1294016574
H   H19       1.0  0.65860  0.35370  0.84190  1.0000 0.1095917323
H   H20       1.0  0.34140  0.64630  0.15810  1.0000 0.1095917323
H   H21       1.0  0.73680  0.58790  0.09800  1.0000 0.099057561
H   H22       1.0  0.26320  0.41210  0.90200  1.0000 0.099057561
H   H23       1.0  0.80180  0.58730  0.20020  1.0000 0.1193906366
H   H24       1.0  0.19820  0.41270  0.79980  1.0000 0.1193906366
H   H25       1.0  0.45550  0.23090  0.83780  1.0000 0.1294016574
H   H26       1.0  0.54450  0.76910  0.16220  1.0000 0.1294016574
H   H27       1.0  0.43760  0.25720  0.65140  1.0000 0.1294016574
H   H28       1.0  0.56240  0.74280  0.34860  1.0000 0.1294016574
H   H29       1.0  0.90460  0.87770  0.62290  1.0000 0.1095917323
H   H30       1.0  0.09540  0.12230  0.37710  1.0000 0.1095917323
H   H31       1.0  0.03630  0.17400  0.68240  1.0000 0.1402346674
H   H32       1.0  0.96370  0.82600  0.31760  1.0000 0.1402346674
H   H33       1.0  0.63860  0.37980  0.66050  1.0000 0.1095917323
H   H34       1.0  0.36140  0.62020  0.33950  1.0000 0.099057561
H   H35       1.0  0.23920  0.20790  0.71920  1.0000 0.1193906366
H   H36       1.0  0.76080  0.79210  0.28080  1.0000 0.1193906366
H   H37       1.0  0.27290  0.08920  0.70610  1.0000 0.1193906366
H   H38       1.0  0.72710  0.91080  0.29390  1.0000 0.1193906366
H   H39       1.0  0.11370  0.61560  0.84780  1.0000 0.099057561
H   H40       1.0  0.88630  0.38440  0.15220  1.0000 0.099057561
H   H41       1.0  0.31150  0.74900  0.86050  1.0000 0.1402346674
H   H42       1.0  0.68850  0.25100  0.13950  1.0000 0.1402346674
H   H43       1.0  0.25150  0.86320  0.69490  1.0000 0.1402346674
H   H44       1.0  0.74850  0.13680  0.30510  1.0000 0.1402346674
H   H45       1.0  0.98200  0.19050  0.86890  1.0000 0.1467781399
H   H46       1.0  0.01800  0.80950  0.13110  1.0000 0.1467781399
H   H47       1.0  0.23680  0.18080  0.82990  1.0000 0.0918842282
H   H48       1.0  0.76320  0.81920  0.17010  1.0000 0.0918842282
H   H49       1.0  0.24810  0.05270  0.80960  1.0000 0.099057561
H   H50       1.0  0.75190  0.94730  0.19040  1.0000 0.099057561
H   H51       1.0  0.79310  0.11740  0.54900  1.0000 0.099057561
H   H52       1.0  0.20690  0.88260  0.45100  1.0000 0.099057561
H   H53       1.0  0.67270  0.13410  0.63300  1.0000 0.1294016574
H   H54       1.0  0.32730  0.86590  0.36700  1.0000 0.1294016574
H   H55       1.0  0.71300  0.57430  0.31750  1.0000 0.1193906366
H   H56       1.0  0.28700  0.42570  0.68250  1.0000 0.1193906366
H   H57       1.0  0.75180  0.46030  0.29650  1.0000 0.1193906366
H   H58       1.0  0.24820  0.53970  0.70350  1.0000 0.1193906366
H   H59       1.0  0.55250  0.33800  0.32050  1.0000 0.0918842282
H   H60       1.0  0.44750  0.66200  0.67950  1.0000 0.0918842282
H   H61       1.0  0.52130  0.45480  0.34570  1.0000 0.0918842282
H   H62       1.0  0.47870  0.54520  0.65430  1.0000 0.0918842282
H   H63       1.0  0.91400  0.35250  0.86070  1.0000 0.1095917323
H   H64       1.0  0.08600  0.64750  0.13930  1.0000 0.1095917323
H   H65       1.0  0.78810  0.88780  0.70940  1.0000 0.1294016574
H   H66       1.0  0.21190  0.11220  0.29060  1.0000 0.1294016574
H   H67       1.0  0.68100  0.00610  0.77650  1.0000 0.1193906366
H   H68       1.0  0.31900  0.99390  0.22350  1.0000 0.1193906366
H   H69       1.0  0.63010  0.09860  0.74650  1.0000 0.1193906366
H   H70       1.0  0.36990  0.90140  0.25350  1.0000 0.1193906366
H   H71       1.0  0.05420  0.73050  0.68850  1.0000 0.099057561
H   H72       1.0  0.94580  0.26950  0.31150  1.0000 0.099057561
H   H73       1.0  0.42990  0.99320  0.80260  1.0000 0.1193906366
H   H74       1.0  0.57010  0.00680  0.19740  1.0000 0.1193906366
H   H75       1.0  0.48180  0.89210  0.82070  1.0000 0.1193906366
H   H76       1.0  0.51820  0.10790  0.17930  1.0000 0.1193906366
H   H77       1.0  0.65890  0.24050  0.47250  1.0000 0.1402346674
H   H78       1.0  0.34110  0.75950  0.52750  1.0000 0.1402346674
H   H79       1.0  0.40740  0.40160  0.43620  1.0000 0.1402346674
H   H80       1.0  0.59260  0.59840  0.56380  1.0000 0.1402346674
H   H81       1.0  0.09980  0.64470  0.43670  1.0000 0.1095917323
H   H82       1.0  0.90020  0.35530  0.56330  1.0000 0.1095917323
H   H83       1.0  0.05600  0.00830  0.74380  1.0000 0.1193906366
H   H84       1.0  0.94400  0.99170  0.25620  1.0000 0.1193906366
H   H85       1.0  0.03780  0.01870  0.81720  1.0000 0.1294016574
H   H86       1.0  0.96220  0.98130  0.18280  1.0000 0.1294016574
H   H87       1.0  0.67300  0.49890  0.42800  1.0000 0.1193906366
H   H88       1.0  0.32700  0.50110  0.57200  1.0000 0.1193906366
H   H89       1.0  0.71480  0.38910  0.40130  1.0000 0.1294016574
H   H90       1.0  0.28520  0.61090  0.59870  1.0000 0.1294016574
H   H91       1.0  0.12280  0.67390  0.96330  1.0000 0.1193906366
H   H92       1.0  0.87720  0.32610  0.03670  1.0000 0.1193906366
H   H93       1.0  0.46430  0.94600  0.69590  1.0000 0.099057561
H   H94       1.0  0.53570  0.05400  0.30410  1.0000 0.099057561
H   H95       1.0  0.51970  0.84780  0.71520  1.0000 0.099057561
H   H96       1.0  0.48030  0.15220  0.28480  1.0000 0.099057561
H   H97       1.0  0.27270  0.27600  0.49700  1.0000 0.1095917323
H   H98       1.0  0.72730  0.72400  0.50300  1.0000 0.1095917323
H   H99       1.0  0.51630  0.12050  0.53280  1.0000 0.099057561
H   H100      1.0  0.48370  0.87950  0.46720  1.0000 0.099057561
C   C1        1.0  0.03210  0.75687  0.53514  1.0000 0.5825367305
C   C2        1.0  0.96790  0.24313  0.46486  1.0000 0.5825367305
C   C3        1.0  0.88460  0.56290  0.61487  1.0000 0.5607667152
C   C4        1.0  0.11540  0.43710  0.38513  1.0000 0.5607667152
C   C5        1.0  0.00770  0.62213  0.51734  1.0000 -0.026507568
C   C6        1.0  0.99230  0.37787  0.48266  1.0000 -0.026507568
C   C7        1.0  0.97310  0.30910  0.71782  1.0000 0.0727507189
C   C8        1.0  0.02690  0.69090  0.28218  1.0000 0.0727507189
C   C9        1.0  0.48080  0.43720  0.14377  1.0000 0.099057561
C   C10       1.0  0.51920  0.56280  0.85623  1.0000 0.099057561
C   C11       1.0  0.51370  0.43330  0.20672  1.0000 -0.21978961
C   C12       1.0  0.48630  0.56670  0.79328  1.0000 -0.21978961
C   C13       1.0  0.94610  0.53331  0.55547  1.0000 -0.0483579471
C   C14       1.0  0.05390  0.46669  0.44453  1.0000 -0.0483579471
C   C15       1.0  0.61310  0.33490  0.80314  1.0000 0.099057561
C   C16       1.0  0.38690  0.66510  0.19686  1.0000 0.099057561
C   C17       1.0  0.67920  0.54810  0.12535  1.0000 0.0727507189
C   C18       1.0  0.32080  0.45190  0.87465  1.0000 0.0727507189
C   C19       1.0  0.71900  0.54830  0.18712  1.0000 -0.21978961
C   C20       1.0  0.28100  0.45170  0.81288  1.0000 -0.21978961
C   C21       1.0  0.49030  0.26060  0.80121  1.0000 -0.21978961
C   C22       1.0  0.50970  0.73940  0.19879  1.0000 -0.21978961
C   C23       1.0  0.42050  0.23140  0.74407  1.0000 0.1729603116
C   C24       1.0  0.57950  0.76860  0.25593  1.0000 0.1729603116
C   C25       1.0  0.48020  0.27670  0.69093  1.0000 -0.21978961
C   C26       1.0  0.51980  0.72330  0.30907  1.0000 -0.21978961
C   C27       1.0  0.85850  0.93070  0.62524  1.0000 0.0918842282
C   C28       1.0  0.14150  0.06930  0.37476  1.0000 0.0918842282
C   C29       1.0  0.89640  0.62210  0.91149  1.0000 0.5825367305
C   C30       1.0  0.10360  0.37790  0.08851  1.0000 0.5825367305
C   C31       1.0  0.01360  0.20970  0.71948  1.0000 -0.21978961
C   C32       1.0  0.98640  0.79030  0.28052  1.0000 -0.21978961
C   C33       1.0  0.02040  0.16330  0.77699  1.0000 0.1729603116
C   C34       1.0  0.97960  0.83670  0.22301  1.0000 0.1729603116
C   C35       1.0  0.63580  0.49040  0.23033  1.0000 0.1729603116
C   C36       1.0  0.36420  0.50960  0.76967  1.0000 0.1729603116
C   C37       1.0  0.60160  0.35000  0.69668  1.0000 0.0633947436
C   C38       1.0  0.39840  0.65000  0.30332  1.0000 0.0633947436
C   C39       1.0  0.28280  0.15890  0.73701  1.0000 -0.2691484805
C   C40       1.0  0.71720  0.84110  0.26299  1.0000 -0.2691484805
C   C41       1.0  0.14120  0.66710  0.81701  1.0000 0.0918842282
C   C42       1.0  0.85880  0.33290  0.18299  1.0000 0.0918842282
C   C43       1.0  0.26130  0.74720  0.82500  1.0000 -0.2082151201
C   C44       1.0  0.73870  0.25280  0.17500  1.0000 -0.2082151201
C   C45       1.0  0.30630  0.82500  0.77936  1.0000 0.1729603116
C   C46       1.0  0.69370  0.17500  0.22064  1.0000 0.1729603116
C   C47       1.0  0.22540  0.81510  0.72723  1.0000 -0.2008313056
C   C48       1.0  0.77460  0.18490  0.27277  1.0000 -0.2082151201
C   C49       1.0  0.98100  0.21910  0.82976  1.0000 -0.2082151201
C   C50       1.0  0.01900  0.78090  0.17024  1.0000 -0.2082151201
C   C51       1.0  0.21750  0.11470  0.79584  1.0000 -0.1319916811
C   C52       1.0  0.78250  0.88530  0.20416  1.0000 -0.1319916811
C   C53       1.0  0.79280  0.07140  0.58202  1.0000 0.0803078819
C   C54       1.0  0.20720  0.92860  0.41798  1.0000 0.0803078819
C   C55       1.0  0.71940  0.08170  0.63241  1.0000 -0.21978961
C   C56       1.0  0.28060  0.91830  0.36759  1.0000 -0.2255869772
C   C57       1.0  0.71600  0.01260  0.68240  1.0000 0.1780360599
C   C58       1.0  0.28400  0.98740  0.31760  1.0000 0.1780360599
C   C59       1.0  0.68200  0.49130  0.29802  1.0000 -0.2608299427
C   C60       1.0  0.31800  0.50870  0.70198  1.0000 -0.2608299427
C   C61       1.0  0.58810  0.42000  0.34079  1.0000 -0.1319916811
C   C62       1.0  0.41190  0.58000  0.65921  1.0000 -0.1319916811
C   C63       1.0  0.94030  0.31730  0.82454  1.0000 0.0727507189
C   C64       1.0  0.05970  0.68270  0.17546  1.0000 0.0727507189
C   C65       1.0  0.78770  0.93590  0.67746  1.0000 -0.2255869772
C   C66       1.0  0.21230  0.06410  0.32254  1.0000 -0.2255869772
C   C67       1.0  0.63870  0.01900  0.73913  1.0000 -0.2608299427
C   C68       1.0  0.36130  0.98100  0.26087  1.0000 -0.2608299427
C   C69       1.0  0.10650  0.73390  0.72338  1.0000 0.0727507189
C   C70       1.0  0.89350  0.26610  0.27662  1.0000 0.0727507189
C   C71       1.0  0.43620  0.91460  0.78771  1.0000 -0.2608299427
C   C72       1.0  0.56380  0.08540  0.21229  1.0000 -0.2608299427
C   C73       1.0  0.73090  0.41520  0.97221  1.0000 0.5729215924
C   C74       1.0  0.26910  0.58480  0.02779  1.0000 0.5729215924
C   C75       1.0  0.58120  0.25050  0.47674  1.0000 -0.2008313056
C   C76       1.0  0.41880  0.74950  0.52326  1.0000 -0.2008313056
C   C77       1.0  0.43260  0.34510  0.45541  1.0000 -0.2008313056
C   C78       1.0  0.56740  0.65490  0.54459  1.0000 -0.2008313056
C   C79       1.0  0.05980  0.58670  0.46234  1.0000 -0.1604107286
C   C80       1.0  0.94020  0.41330  0.53766  1.0000 -0.1604107286
C   C81       1.0  0.07490  0.06330  0.78277  1.0000 -0.2608299427
C   C82       1.0  0.92510  0.93670  0.21723  1.0000 -0.2608299427
C   C83       1.0  0.64370  0.41760  0.40619  1.0000 -0.2608299427
C   C84       1.0  0.35630  0.58240  0.59381  1.0000 -0.2608299427
C   C85       1.0  0.07340  0.60360  0.97787  1.0000 -0.1692190956
C   C86       1.0  0.92660  0.39640  0.02213  1.0000 -0.1692190956
C   C87       1.0  0.51040  0.92550  0.72938  1.0000 -0.1377353337
C   C88       1.0  0.48960  0.07450  0.27062  1.0000 -0.1377353337
C   C89       1.0  0.35150  0.26880  0.49249  1.0000 0.0803078819
C   C90       1.0  0.64850  0.73120  0.50751  1.0000 0.0803078819
C   C91       1.0  0.49410  0.17820  0.51318  1.0000 0.0454922352
C   C92       1.0  0.50590  0.82180  0.48682  1.0000 0.0454922352
C   C93       1.0  0.55110  0.33720  0.44698  1.0000 0.1729603116
C   C94       1.0  0.44890  0.66280  0.55302  1.0000 0.1729603116
C   C95       1.0  0.87170  0.45690  0.98388  1.0000 -0.0483579471
C   C96       1.0  0.12830  0.54310  0.01612  1.0000 -0.0483579471
C   C97       1.0  0.94630  0.56180  0.96074  1.0000 -0.0353372864
C   C98       1.0  0.05370  0.43820  0.03926  1.0000 -0.0353372864
N   N1        1.0  0.56090  0.49300  0.10259  1.0000 -0.2691484805
N   N2        1.0  0.43910  0.50700  0.89741  1.0000 -0.2691484805
N   N3        1.0  0.86352  0.99874  0.57802  1.0000 -0.2513693388
N   N4        1.0  0.13648  0.00126  0.42198  1.0000 -0.2513693388
N   N5        1.0  0.93710  0.36387  0.76941  1.0000 -0.2608299427
N   N6        1.0  0.06290  0.63613  0.23059  1.0000 -0.2608299427
N   N7        1.0  0.06221  0.65930  0.76763  1.0000 -0.2691484805
N   N8        1.0  0.93779  0.34070  0.23237  1.0000 -0.2691484805
N   N9        1.0  0.38000  0.18670  0.52171  1.0000 -0.2608299427
N   N10       1.0  0.62000  0.81330  0.47829  1.0000 -0.2608299427
N   N11       1.0  0.66978  0.38101  0.75252  1.0000 -0.2608299427
N   N12       1.0  0.33022  0.61899  0.24748  1.0000 -0.2608299427
O   O1        1.0  0.87632  0.49345  0.65786  1.0000 -0.5891570862
O   O2        1.0  0.12368  0.50655  0.34214  1.0000 -0.5891570862
O   O3        1.0  0.97440  0.80809  0.50203  1.0000 -0.5891570862
O   O4        1.0  0.02560  0.19191  0.49797  1.0000 -0.5891570862
O   O5        1.0  0.84678  0.65204  0.61862  1.0000 -0.5484298285
O   O6        1.0  0.15322  0.34796  0.38138  1.0000 -0.5484298285
O   O7        1.0  0.11369  0.80813  0.57841  1.0000 -0.5891570862
O   O8        1.0  0.88631  0.19187  0.42159  1.0000 -0.5891570862
O   O9        1.0  0.77501  0.65651  0.73814  1.0000 -0.572564837
O   O10       1.0  0.22499  0.34349  0.26186  1.0000 -0.572564837
O   O11       1.0  0.84956  0.55604  0.86046  1.0000 -0.5988944586
O   O12       1.0  0.15044  0.44396  0.13954  1.0000 -0.5988944586
O   O13       1.0  0.84342  0.95533  0.42602  1.0000 -0.7589819249
O   O14       1.0  0.15658  0.04467  0.57398  1.0000 -0.7589819249
O   O15       1.0  0.91040  0.73260  0.92279  1.0000 -0.5819218572
O   O16       1.0  0.08960  0.26740  0.07721  1.0000 -0.5819218572
O   O17       1.0  0.56520  0.69950  0.01229  1.0000 -0.668143731
O   O18       1.0  0.43480  0.30050  0.98771  1.0000 -0.668143731
O   O19       1.0  0.68113  0.49651  0.97235  1.0000 -0.5819218572
O   O20       1.0  0.31887  0.50349  0.02765  1.0000 -0.5819218572
O   O21       1.0  0.67448  0.30470  0.96500  1.0000 -0.572564837
O   O22       1.0  0.32552  0.69530  0.03500  1.0000 -0.572564837
