# DDEC6 charges by PACMAN v1.1 (https://github.com/mtap-research/PACMAN-charge/)
data_2010[U][pts]3[FSR]1
_chemical_formula_sum              "U2 H68 C36 N8 O22"
_cell_length_a       13.528
_cell_length_b       13.528
_cell_length_c       10.1919
_cell_angle_alpha    83.819
_cell_angle_beta     96.181
_cell_angle_gamma    104.002

_symmetry_space_group_name_H-M    "P 1"
_symmetry_Int_Tables_number       1

loop_
  _symmetry_equiv_pos_as_xyz
  'x, y, z'

loop_
  _atom_site_type_symbol
  _atom_site_label
  _atom_site_symmetry_multiplicity
  _atom_site_fract_x
  _atom_site_fract_y
  _atom_site_fract_z
  _atom_site_occupancy
  _atom_site_charge
U   U1        1.0  0.35110  0.35110  0.75000  1.0000 2.4504990209
U   U2        1.0  0.64890  0.64890  0.25000  1.0000 2.4504990209
H   H1        1.0  0.18340  0.16500  0.68780  1.0000 0.3231297959
H   H2        1.0  0.16500  0.18340  0.81220  1.0000 0.3231297959
H   H3        1.0  0.81660  0.83500  0.31220  1.0000 0.3250272502
H   H4        1.0  0.83500  0.81660  0.18780  1.0000 0.3250272502
H   H5        1.0  0.68910  0.25050  0.39910  1.0000 0.2277377773
H   H6        1.0  0.25050  0.68910  0.10090  1.0000 0.2277377773
H   H7        1.0  0.31090  0.74950  0.60090  1.0000 0.2277377773
H   H8        1.0  0.74950  0.31090  0.89910  1.0000 0.2277377773
H   H9        1.0  0.57300  0.10620  0.80750  1.0000 0.1194234569
H   H10       1.0  0.10620  0.57300  0.69250  1.0000 0.1194234569
H   H11       1.0  0.42700  0.89380  0.19250  1.0000 0.1194234569
H   H12       1.0  0.89380  0.42700  0.30750  1.0000 0.1194234569
H   H13       1.0  0.58000  0.00920  0.74070  1.0000 0.103155057
H   H14       1.0  0.00920  0.58000  0.75930  1.0000 0.103155057
H   H15       1.0  0.42000  0.99080  0.25930  1.0000 0.103155057
H   H16       1.0  0.99080  0.42000  0.24070  1.0000 0.103155057
H   H17       1.0  0.48960  0.16720  0.61280  1.0000 0.1297784874
H   H18       1.0  0.16720  0.48960  0.88720  1.0000 0.1297784874
H   H19       1.0  0.51040  0.83280  0.38720  1.0000 0.1297784874
H   H20       1.0  0.83280  0.51040  0.11280  1.0000 0.1297784874
H   H21       1.0  0.48680  0.06700  0.54590  1.0000 0.0929274824
H   H22       1.0  0.06700  0.48680  0.95410  1.0000 0.0929274824
H   H23       1.0  0.51320  0.93300  0.45410  1.0000 0.0929274824
H   H24       1.0  0.93300  0.51320  0.04590  1.0000 0.0929274824
H   H25       1.0  0.67050  0.20610  0.62670  1.0000 0.1129738749
H   H26       1.0  0.20610  0.67050  0.87330  1.0000 0.1129738749
H   H27       1.0  0.32950  0.79390  0.37330  1.0000 0.1129738749
H   H28       1.0  0.79390  0.32950  0.12670  1.0000 0.1129738749
H   H29       1.0  0.66610  0.10770  0.55560  1.0000 0.0929274824
H   H30       1.0  0.10770  0.66610  0.94440  1.0000 0.0929274824
H   H31       1.0  0.33390  0.89230  0.44440  1.0000 0.0929274824
H   H32       1.0  0.89230  0.33390  0.05560  1.0000 0.0929274824
H   H33       1.0  0.50080  0.12720  0.33750  1.0000 0.103155057
H   H34       1.0  0.12720  0.50080  0.16250  1.0000 0.103155057
H   H35       1.0  0.49920  0.87280  0.66250  1.0000 0.103155057
H   H36       1.0  0.87280  0.49920  0.83750  1.0000 0.103155057
H   H37       1.0  0.56550  0.20510  0.23590  1.0000 0.1297784874
H   H38       1.0  0.20510  0.56550  0.26410  1.0000 0.1297784874
H   H39       1.0  0.43450  0.79490  0.76410  1.0000 0.1297784874
H   H40       1.0  0.79490  0.43450  0.73590  1.0000 0.1297784874
H   H41       1.0  0.35550  0.95450  0.62300  1.0000 0.103155057
H   H42       1.0  0.95450  0.35550  0.87700  1.0000 0.103155057
H   H43       1.0  0.64450  0.04550  0.37700  1.0000 0.103155057
H   H44       1.0  0.04550  0.64450  0.12300  1.0000 0.103155057
H   H45       1.0  0.31180  0.88760  0.74830  1.0000 0.1194234569
H   H46       1.0  0.88760  0.31180  0.75170  1.0000 0.1194234569
H   H47       1.0  0.68820  0.11240  0.25170  1.0000 0.1194234569
H   H48       1.0  0.11240  0.68820  0.24830  1.0000 0.1194234569
H   H49       1.0  0.36370  0.11430  0.73170  1.0000 0.1194234569
H   H50       1.0  0.11430  0.36370  0.76830  1.0000 0.1194234569
H   H51       1.0  0.63630  0.88570  0.26830  1.0000 0.1194234569
H   H52       1.0  0.88570  0.63630  0.23170  1.0000 0.1194234569
H   H53       1.0  0.30490  0.03390  0.83600  1.0000 0.1297784874
H   H54       1.0  0.03390  0.30490  0.66400  1.0000 0.1297784874
H   H55       1.0  0.69510  0.96610  0.16400  1.0000 0.1297784874
H   H56       1.0  0.96610  0.69510  0.33600  1.0000 0.1297784874
H   H57       1.0  0.58980  0.33240  0.52660  1.0000 0.1593584348
H   H58       1.0  0.33240  0.58980  0.97340  1.0000 0.1593584348
H   H59       1.0  0.41020  0.66760  0.47340  1.0000 0.1593584348
H   H60       1.0  0.66760  0.41020  0.02660  1.0000 0.1593584348
H   H61       1.0  0.50560  0.29240  0.41360  1.0000 0.1546263177
H   H62       1.0  0.29240  0.50560  0.08640  1.0000 0.1546263177
H   H63       1.0  0.49440  0.70760  0.58640  1.0000 0.1546263177
H   H64       1.0  0.70760  0.49440  0.91360  1.0000 0.1546263177
H   H65       1.0  0.44390  0.96790  0.87330  1.0000 0.2570094992
H   H66       1.0  0.96790  0.44390  0.62670  1.0000 0.2570094992
H   H67       1.0  0.55610  0.03210  0.12670  1.0000 0.2570094992
H   H68       1.0  0.03210  0.55610  0.37330  1.0000 0.2570094992
C   C1        1.0  0.53790  0.05750  0.74490  1.0000 -0.1225273382
C   C2        1.0  0.05750  0.53790  0.75510  1.0000 -0.1225273382
C   C3        1.0  0.46210  0.94250  0.25510  1.0000 -0.1225273382
C   C4        1.0  0.94250  0.46210  0.24490  1.0000 -0.1225273382
C   C5        1.0  0.52600  0.11420  0.60810  1.0000 -0.2588089775
C   C6        1.0  0.11420  0.52600  0.89190  1.0000 -0.2588089775
C   C7        1.0  0.47400  0.88580  0.39190  1.0000 -0.2588089775
C   C8        1.0  0.88580  0.47400  0.10810  1.0000 -0.2588089775
C   C9        1.0  0.63110  0.16150  0.56180  1.0000 -0.1382305953
C   C10       1.0  0.16150  0.63110  0.93820  1.0000 -0.1382305953
C   C11       1.0  0.36890  0.83850  0.43820  1.0000 -0.1382305953
C   C12       1.0  0.83850  0.36890  0.06180  1.0000 -0.1382305953
C   C13       1.0  0.56980  0.16000  0.31600  1.0000 -0.1664284426
C   C14       1.0  0.16000  0.56980  0.18400  1.0000 -0.1664284426
C   C15       1.0  0.43020  0.84000  0.68400  1.0000 -0.1664284426
C   C16       1.0  0.84000  0.43020  0.81600  1.0000 -0.1664284426
C   C17       1.0  0.37430  0.92090  0.70780  1.0000 -0.1664284426
C   C18       1.0  0.92090  0.37430  0.79220  1.0000 -0.1664284426
C   C19       1.0  0.62570  0.07910  0.29220  1.0000 -0.1664284426
C   C20       1.0  0.07910  0.62570  0.20780  1.0000 -0.1664284426
C   C21       1.0  0.37210  0.07270  0.81400  1.0000 -0.3279360901
C   C22       1.0  0.07270  0.37210  0.68600  1.0000 -0.3279360901
C   C23       1.0  0.62790  0.92730  0.18600  1.0000 -0.3279360901
C   C24       1.0  0.92730  0.62790  0.31400  1.0000 -0.3279360901
C   C25       1.0  0.41950  0.14250  0.92340  1.0000 0.6396411885
C   C26       1.0  0.14250  0.41950  0.57660  1.0000 0.6396411885
C   C27       1.0  0.58050  0.85750  0.07660  1.0000 0.6396411885
C   C28       1.0  0.85750  0.58050  0.42340  1.0000 0.6396411885
C   C29       1.0  0.57880  0.31220  0.43670  1.0000 -0.2925435673
C   C30       1.0  0.31220  0.57880  0.06330  1.0000 -0.2925435673
C   C31       1.0  0.42120  0.68780  0.56330  1.0000 -0.2925435673
C   C32       1.0  0.68780  0.42120  0.93670  1.0000 -0.2925435673
C   C33       1.0  0.62610  0.40170  0.34320  1.0000 0.6236285795
C   C34       1.0  0.40170  0.62610  0.15680  1.0000 0.6236285795
C   C35       1.0  0.37390  0.59830  0.65680  1.0000 0.6236285795
C   C36       1.0  0.59830  0.37390  0.84320  1.0000 0.6236285795
N   N1        1.0  0.43610  0.00030  0.79430  1.0000 0.0202895216
N   N2        1.0  0.00030  0.43610  0.70570  1.0000 0.0202895216
N   N3        1.0  0.56390  0.99970  0.20570  1.0000 0.0202895216
N   N4        1.0  0.99970  0.56390  0.29430  1.0000 0.0202895216
N   N5        1.0  0.62590  0.22210  0.42890  1.0000 0.0202895216
N   N6        1.0  0.22210  0.62590  0.07110  1.0000 0.0202895216
N   N7        1.0  0.37410  0.77790  0.57110  1.0000 0.0202895216
N   N8        1.0  0.77790  0.37410  0.92890  1.0000 0.0202895216
O   O1        1.0  0.30030  0.39630  0.87790  1.0000 -0.7118689041
O   O2        1.0  0.39630  0.30030  0.62210  1.0000 -0.7118689041
O   O3        1.0  0.69970  0.60370  0.12210  1.0000 -0.7118689041
O   O4        1.0  0.60370  0.69970  0.37790  1.0000 -0.7118689041
O   O5        1.0  0.39090  0.22570  0.91510  1.0000 -0.6539988588
O   O6        1.0  0.22570  0.39090  0.58490  1.0000 -0.6539988588
O   O7        1.0  0.60910  0.77430  0.08490  1.0000 -0.6539988588
O   O8        1.0  0.77430  0.60910  0.41510  1.0000 -0.6539988588
O   O9        1.0  0.47590  0.11370  0.01420  1.0000 -0.5781166326
O   O10       1.0  0.11370  0.47590  0.48580  1.0000 -0.5781166326
O   O11       1.0  0.52410  0.88630  0.98580  1.0000 -0.5781166326
O   O12       1.0  0.88630  0.52410  0.51420  1.0000 -0.5781166326
O   O13       1.0  0.58672  0.47888  0.34380  1.0000 -0.637534536
O   O14       1.0  0.47888  0.58672  0.15620  1.0000 -0.637534536
O   O15       1.0  0.41328  0.52112  0.65620  1.0000 -0.637534536
O   O16       1.0  0.52112  0.41328  0.84380  1.0000 -0.637534536
O   O17       1.0  0.69590  0.39490  0.28060  1.0000 -0.5749963294
O   O18       1.0  0.39490  0.69590  0.21940  1.0000 -0.5749963294
O   O19       1.0  0.30410  0.60510  0.71940  1.0000 -0.5781166326
O   O20       1.0  0.60510  0.30410  0.78060  1.0000 -0.5781166326
O   O21       1.0  0.20570  0.20570  0.75000  1.0000 -0.7536597024
O   O22       1.0  0.79430  0.79430  0.25000  1.0000 -0.7536597024
