# DDEC6 charges by PACMAN v1.1 (https://github.com/mtap-research/PACMAN-charge/)
data_2010[Zn][acs]3[FSR]1
_chemical_formula_sum              "Zn2 H6 C6 O12"
_cell_length_a       7.3084
_cell_length_b       7.3084
_cell_length_c       8.1705
_cell_angle_alpha    90
_cell_angle_beta     90
_cell_angle_gamma    120

_symmetry_space_group_name_H-M    "P 1"
_symmetry_Int_Tables_number       1

loop_
  _symmetry_equiv_pos_as_xyz
  'x, y, z'

loop_
  _atom_site_type_symbol
  _atom_site_label
  _atom_site_symmetry_multiplicity
  _atom_site_fract_x
  _atom_site_fract_y
  _atom_site_fract_z
  _atom_site_occupancy
  _atom_site_charge
Zn  Zn1       1.0  0.33333  0.66667  0.25000  1.0000 0.9470412496
Zn  Zn2       1.0  0.66667  0.33333  0.75000  1.0000 0.9470412496
H   H1        1.0  0.00000  0.43000  0.50000  1.0000 0.105087674
H   H2        1.0  0.57000  0.57000  0.50000  1.0000 0.105087674
H   H3        1.0  0.43000  0.00000  0.50000  1.0000 0.105087674
H   H4        1.0  0.00000  0.57000  0.00000  1.0000 0.1047558475
H   H5        1.0  0.43000  0.43000  0.00000  1.0000 0.1047558475
H   H6        1.0  0.57000  0.00000  0.00000  1.0000 0.105087674
C   C1        1.0  0.00000  0.56230  0.50000  1.0000 0.4927322977
C   C2        1.0  0.43770  0.43770  0.50000  1.0000 0.4927322977
C   C3        1.0  0.56230  0.00000  0.50000  1.0000 0.4927322977
C   C4        1.0  0.00000  0.43770  0.00000  1.0000 0.4927322977
C   C5        1.0  0.56230  0.56230  0.00000  1.0000 0.4927322977
C   C6        1.0  0.43770  0.00000  0.00000  1.0000 0.4927322977
O   O1        1.0  0.11017  0.69445  0.39488  1.0000 -0.4566948897
O   O2        1.0  0.30555  0.41572  0.39488  1.0000 -0.4566948897
O   O3        1.0  0.58428  0.88983  0.39488  1.0000 -0.4566948897
O   O4        1.0  0.88983  0.30555  0.89488  1.0000 -0.4566948897
O   O5        1.0  0.69445  0.58428  0.89488  1.0000 -0.4566948897
O   O6        1.0  0.41572  0.11017  0.89488  1.0000 -0.4566948897
O   O7        1.0  0.69445  0.11017  0.60512  1.0000 -0.4566948897
O   O8        1.0  0.41572  0.30555  0.60512  1.0000 -0.4566948897
O   O9        1.0  0.88983  0.58428  0.60512  1.0000 -0.4566948897
O   O10       1.0  0.30555  0.88983  0.10512  1.0000 -0.4566948897
O   O11       1.0  0.58428  0.69445  0.10512  1.0000 -0.4566948897
O   O12       1.0  0.11017  0.41572  0.10512  1.0000 -0.4566948897
