# DDEC6 charges by PACMAN v1.1 (https://github.com/mtap-research/PACMAN-charge/)
data_2010[Mo][nan]3[FSR]1
_chemical_formula_sum              "Mo8 H72 C56 N24 O24"
_cell_length_a       12.4209
_cell_length_b       12.4471
_cell_length_c       15.1155
_cell_angle_alpha    90
_cell_angle_beta     90
_cell_angle_gamma    90

_symmetry_space_group_name_H-M    "P 1"
_symmetry_Int_Tables_number       1

loop_
  _symmetry_equiv_pos_as_xyz
  'x, y, z'

loop_
  _atom_site_type_symbol
  _atom_site_label
  _atom_site_symmetry_multiplicity
  _atom_site_fract_x
  _atom_site_fract_y
  _atom_site_fract_z
  _atom_site_occupancy
  _atom_site_charge
Mo  Mo1       1.0  0.08607  0.39716  0.93931  1.0000 2.0032660259
Mo  Mo2       1.0  0.58607  0.60284  0.56069  1.0000 2.0032660259
Mo  Mo3       1.0  0.41393  0.10284  0.43931  1.0000 2.0032660259
Mo  Mo4       1.0  0.91393  0.89716  0.06069  1.0000 2.0032660259
Mo  Mo5       1.0  0.91393  0.60284  0.06069  1.0000 2.0032660259
Mo  Mo6       1.0  0.41393  0.39716  0.43931  1.0000 2.0032660259
Mo  Mo7       1.0  0.58607  0.89716  0.56069  1.0000 2.0032660259
Mo  Mo8       1.0  0.08607  0.10284  0.93931  1.0000 2.0032660259
H   H1        1.0  0.04670  0.40870  0.17700  1.0000 0.1403434077
H   H2        1.0  0.54670  0.59130  0.32300  1.0000 0.1403434077
H   H3        1.0  0.45330  0.09130  0.67700  1.0000 0.1403434077
H   H4        1.0  0.95330  0.90870  0.82300  1.0000 0.1403434077
H   H5        1.0  0.95330  0.59130  0.82300  1.0000 0.1403434077
H   H6        1.0  0.45330  0.40870  0.67700  1.0000 0.1403434077
H   H7        1.0  0.54670  0.90870  0.32300  1.0000 0.1403434077
H   H8        1.0  0.04670  0.09130  0.17700  1.0000 0.1403434077
H   H9        1.0  0.70450  0.40840  0.42940  1.0000 0.1403434077
H   H10       1.0  0.20450  0.59160  0.07060  1.0000 0.1403434077
H   H11       1.0  0.79550  0.09160  0.92940  1.0000 0.1403434077
H   H12       1.0  0.29550  0.90840  0.57060  1.0000 0.1403434077
H   H13       1.0  0.29550  0.59160  0.57060  1.0000 0.1403434077
H   H14       1.0  0.79550  0.40840  0.92940  1.0000 0.1403434077
H   H15       1.0  0.20450  0.90840  0.07060  1.0000 0.1403434077
H   H16       1.0  0.70450  0.09160  0.42940  1.0000 0.1403434077
H   H17       1.0  0.86140  0.31300  0.29170  1.0000 0.13070992
H   H18       1.0  0.36140  0.68700  0.20830  1.0000 0.13070992
H   H19       1.0  0.63860  0.18700  0.79170  1.0000 0.13070992
H   H20       1.0  0.13860  0.81300  0.70830  1.0000 0.13070992
H   H21       1.0  0.13860  0.68700  0.70830  1.0000 0.13070992
H   H22       1.0  0.63860  0.31300  0.79170  1.0000 0.13070992
H   H23       1.0  0.36140  0.81300  0.20830  1.0000 0.13070992
H   H24       1.0  0.86140  0.18700  0.29170  1.0000 0.13070992
H   H25       1.0  0.88290  0.08470  0.43520  1.0000 0.1220941564
H   H26       1.0  0.38290  0.91530  0.06480  1.0000 0.1220941564
H   H27       1.0  0.61710  0.41530  0.93520  1.0000 0.1220941564
H   H28       1.0  0.11710  0.58470  0.56480  1.0000 0.1220941564
H   H29       1.0  0.11710  0.91530  0.56480  1.0000 0.1220941564
H   H30       1.0  0.61710  0.08470  0.93520  1.0000 0.1220941564
H   H31       1.0  0.38290  0.58470  0.06480  1.0000 0.1220941564
H   H32       1.0  0.88290  0.41530  0.43520  1.0000 0.1220941564
H   H33       1.0  0.89630  0.14850  0.52560  1.0000 0.1220941564
H   H34       1.0  0.39630  0.85150  0.97440  1.0000 0.1220941564
H   H35       1.0  0.60370  0.35150  0.02560  1.0000 0.1220941564
H   H36       1.0  0.10370  0.64850  0.47440  1.0000 0.1220941564
H   H37       1.0  0.10370  0.85150  0.47440  1.0000 0.1220941564
H   H38       1.0  0.60370  0.14850  0.02560  1.0000 0.1220941564
H   H39       1.0  0.39630  0.64850  0.97440  1.0000 0.1220941564
H   H40       1.0  0.89630  0.35150  0.52560  1.0000 0.1220941564
H   H41       1.0  0.06700  0.08490  0.47800  1.0000 0.0956049977
H   H42       1.0  0.56700  0.91510  0.02200  1.0000 0.0956049977
H   H43       1.0  0.43300  0.41510  0.97800  1.0000 0.0956049977
H   H44       1.0  0.93300  0.58490  0.52200  1.0000 0.0956049977
H   H45       1.0  0.93300  0.91510  0.52200  1.0000 0.0956049977
H   H46       1.0  0.43300  0.08490  0.97800  1.0000 0.0956049977
H   H47       1.0  0.56700  0.58490  0.02200  1.0000 0.0956049977
H   H48       1.0  0.06700  0.41510  0.47800  1.0000 0.0956049977
H   H49       1.0  0.03240  0.08440  0.32240  1.0000 0.1220941564
H   H50       1.0  0.53240  0.91560  0.17760  1.0000 0.1220941564
H   H51       1.0  0.46760  0.41560  0.82240  1.0000 0.1220941564
H   H52       1.0  0.96760  0.58440  0.67760  1.0000 0.1220941564
H   H53       1.0  0.96760  0.91560  0.67760  1.0000 0.1220941564
H   H54       1.0  0.46760  0.08440  0.82240  1.0000 0.1220941564
H   H55       1.0  0.53240  0.58440  0.17760  1.0000 0.1220941564
H   H56       1.0  0.03240  0.41560  0.32240  1.0000 0.1220941564
H   H57       1.0  0.14100  0.14780  0.34170  1.0000 0.13070992
H   H58       1.0  0.64100  0.85220  0.15830  1.0000 0.13070992
H   H59       1.0  0.35900  0.35220  0.84170  1.0000 0.13070992
H   H60       1.0  0.85900  0.64780  0.65830  1.0000 0.13070992
H   H61       1.0  0.85900  0.85220  0.65830  1.0000 0.13070992
H   H62       1.0  0.35900  0.14780  0.84170  1.0000 0.13070992
H   H63       1.0  0.64100  0.64780  0.15830  1.0000 0.13070992
H   H64       1.0  0.14100  0.35220  0.34170  1.0000 0.13070992
H   H65       1.0  0.06970  0.25000  0.55620  1.0000 0.1129447563
H   H66       1.0  0.56970  0.75000  0.94380  1.0000 0.1129447563
H   H67       1.0  0.43030  0.25000  0.05620  1.0000 0.1129447563
H   H68       1.0  0.93030  0.75000  0.44380  1.0000 0.1129447563
H   H69       1.0  0.16300  0.25000  0.48440  1.0000 0.13070992
H   H70       1.0  0.66300  0.75000  0.01560  1.0000 0.13070992
H   H71       1.0  0.33700  0.25000  0.98440  1.0000 0.13070992
H   H72       1.0  0.83700  0.75000  0.51560  1.0000 0.13070992
C   C1        1.0  0.05091  0.33677  0.15825  1.0000 0.1220941564
C   C2        1.0  0.55091  0.66323  0.34175  1.0000 0.1220941564
C   C3        1.0  0.44909  0.16323  0.65825  1.0000 0.1220941564
C   C4        1.0  0.94909  0.83677  0.84175  1.0000 0.1220941564
C   C5        1.0  0.94909  0.66323  0.84175  1.0000 0.1220941564
C   C6        1.0  0.44909  0.33677  0.65825  1.0000 0.1220941564
C   C7        1.0  0.55091  0.83677  0.34175  1.0000 0.1220941564
C   C8        1.0  0.05091  0.16323  0.15825  1.0000 0.1220941564
C   C9        1.0  0.68136  0.33648  0.42996  1.0000 0.1220941564
C   C10       1.0  0.18136  0.66352  0.07004  1.0000 0.13070992
C   C11       1.0  0.81864  0.16352  0.92996  1.0000 0.1220941564
C   C12       1.0  0.31864  0.83648  0.57004  1.0000 0.1220941564
C   C13       1.0  0.31864  0.66352  0.57004  1.0000 0.1220941564
C   C14       1.0  0.81864  0.33648  0.92996  1.0000 0.1220941564
C   C15       1.0  0.18136  0.83648  0.07004  1.0000 0.1220941564
C   C16       1.0  0.68136  0.16352  0.42996  1.0000 0.1220941564
C   C17       1.0  0.01450  0.25000  0.30823  1.0000 0.2494988261
C   C18       1.0  0.51450  0.75000  0.19177  1.0000 0.2494988261
C   C19       1.0  0.48550  0.25000  0.80823  1.0000 0.2494988261
C   C20       1.0  0.98550  0.75000  0.69177  1.0000 0.2494988261
C   C21       1.0  0.89210  0.25000  0.31950  1.0000 -0.3532343315
C   C22       1.0  0.39210  0.75000  0.18050  1.0000 -0.3532343315
C   C23       1.0  0.60790  0.25000  0.81950  1.0000 -0.3532343315
C   C24       1.0  0.10790  0.75000  0.68050  1.0000 -0.3532343315
C   C25       1.0  0.86650  0.25000  0.41880  1.0000 0.2494988261
C   C26       1.0  0.36650  0.75000  0.08120  1.0000 0.2494988261
C   C27       1.0  0.63350  0.25000  0.91880  1.0000 0.2494988261
C   C28       1.0  0.13350  0.75000  0.58120  1.0000 0.2494988261
C   C29       1.0  0.91383  0.14920  0.46238  1.0000 -0.3224821048
C   C30       1.0  0.41383  0.85080  0.03762  1.0000 -0.3224821048
C   C31       1.0  0.58617  0.35080  0.96238  1.0000 -0.3224821048
C   C32       1.0  0.08617  0.64920  0.53762  1.0000 -0.3224821048
C   C33       1.0  0.08617  0.85080  0.53762  1.0000 -0.3224821048
C   C34       1.0  0.58617  0.14920  0.96238  1.0000 -0.3224821048
C   C35       1.0  0.41383  0.64920  0.03762  1.0000 -0.3224821048
C   C36       1.0  0.91383  0.35080  0.46238  1.0000 -0.3224821048
C   C37       1.0  0.03604  0.14970  0.44985  1.0000 0.0803907557
C   C38       1.0  0.53604  0.85030  0.05015  1.0000 0.0803907557
C   C39       1.0  0.46396  0.35030  0.94985  1.0000 0.0803907557
C   C40       1.0  0.96396  0.64970  0.55015  1.0000 0.0803907557
C   C41       1.0  0.96396  0.85030  0.55015  1.0000 0.0803907557
C   C42       1.0  0.46396  0.14970  0.94985  1.0000 0.0803907557
C   C43       1.0  0.53604  0.64970  0.05015  1.0000 0.0803907557
C   C44       1.0  0.03604  0.35030  0.44985  1.0000 0.0803907557
C   C45       1.0  0.06282  0.14870  0.35027  1.0000 -0.3073660539
C   C46       1.0  0.56282  0.85130  0.14973  1.0000 -0.3073660539
C   C47       1.0  0.43718  0.35130  0.85027  1.0000 -0.3073660539
C   C48       1.0  0.93718  0.64870  0.64973  1.0000 -0.3073660539
C   C49       1.0  0.93718  0.85130  0.64973  1.0000 -0.3073660539
C   C50       1.0  0.43718  0.14870  0.85027  1.0000 -0.3073660539
C   C51       1.0  0.56282  0.64870  0.14973  1.0000 -0.3073660539
C   C52       1.0  0.06282  0.35130  0.35027  1.0000 -0.3073660539
C   C53       1.0  0.08480  0.25000  0.49260  1.0000 -0.2604993539
C   C54       1.0  0.58480  0.75000  0.00740  1.0000 -0.2604993539
C   C55       1.0  0.41520  0.25000  0.99260  1.0000 -0.2604993539
C   C56       1.0  0.91520  0.75000  0.50740  1.0000 -0.2604993539
N   N1        1.0  0.03950  0.25000  0.21165  1.0000 -0.0496371457
N   N2        1.0  0.53950  0.75000  0.28835  1.0000 -0.0496371457
N   N3        1.0  0.46050  0.25000  0.71165  1.0000 -0.0496371457
N   N4        1.0  0.96050  0.75000  0.78835  1.0000 -0.0496371457
N   N5        1.0  0.06862  0.30574  0.07644  1.0000 -0.2467170315
N   N6        1.0  0.56862  0.69426  0.42356  1.0000 -0.2467170315
N   N7        1.0  0.43138  0.19426  0.57644  1.0000 -0.2467170315
N   N8        1.0  0.93138  0.80574  0.92356  1.0000 -0.2467170315
N   N9        1.0  0.93138  0.69426  0.92356  1.0000 -0.2467170315
N   N10       1.0  0.43138  0.30574  0.57644  1.0000 -0.2467170315
N   N11       1.0  0.56862  0.80574  0.42356  1.0000 -0.2467170315
N   N12       1.0  0.06862  0.19426  0.07644  1.0000 -0.2467170315
N   N13       1.0  0.74700  0.25000  0.42830  1.0000 -0.0496371457
N   N14       1.0  0.24700  0.75000  0.07170  1.0000 -0.0496371457
N   N15       1.0  0.75300  0.25000  0.92830  1.0000 -0.0496371457
N   N16       1.0  0.25300  0.75000  0.57170  1.0000 -0.0496371457
N   N17       1.0  0.58054  0.30533  0.43252  1.0000 -0.2394000994
N   N18       1.0  0.08054  0.69467  0.06748  1.0000 -0.2394000994
N   N19       1.0  0.91946  0.19467  0.93252  1.0000 -0.2394000994
N   N20       1.0  0.41946  0.80533  0.56748  1.0000 -0.2394000994
N   N21       1.0  0.41946  0.69467  0.56748  1.0000 -0.2394000994
N   N22       1.0  0.91946  0.30533  0.93252  1.0000 -0.2394000994
N   N23       1.0  0.08054  0.80533  0.06748  1.0000 -0.2394000994
N   N24       1.0  0.58054  0.19467  0.43252  1.0000 -0.2394000994
O   O1        1.0  0.12276  0.25000  0.91198  1.0000 -0.8608762579
O   O2        1.0  0.62276  0.75000  0.58802  1.0000 -0.8608762579
O   O3        1.0  0.37724  0.25000  0.41198  1.0000 -0.8608762579
O   O4        1.0  0.87724  0.75000  0.08802  1.0000 -0.8608762579
O   O5        1.0  0.21130  0.44287  0.96941  1.0000 -0.6836511599
O   O6        1.0  0.71130  0.55713  0.53059  1.0000 -0.6836511599
O   O7        1.0  0.28870  0.05713  0.46941  1.0000 -0.6836511599
O   O8        1.0  0.78870  0.94287  0.03059  1.0000 -0.6836511599
O   O9        1.0  0.78870  0.55713  0.03059  1.0000 -0.6836511599
O   O10       1.0  0.28870  0.44287  0.46941  1.0000 -0.6836511599
O   O11       1.0  0.71130  0.94287  0.53059  1.0000 -0.6836511599
O   O12       1.0  0.21130  0.05713  0.96941  1.0000 -0.6836511599
O   O13       1.0  0.00000  0.50000  0.00000  1.0000 -0.9066608058
O   O14       1.0  0.50000  0.50000  0.50000  1.0000 -0.9066608058
O   O15       1.0  0.50000  0.00000  0.50000  1.0000 -0.9066608058
O   O16       1.0  0.00000  0.00000  0.00000  1.0000 -0.9066608058
O   O17       1.0  0.06935  0.44338  0.83423  1.0000 -0.6643533813
O   O18       1.0  0.56935  0.55662  0.66577  1.0000 -0.6643533813
O   O19       1.0  0.43065  0.05662  0.33423  1.0000 -0.6643533813
O   O20       1.0  0.93065  0.94338  0.16577  1.0000 -0.6643533813
O   O21       1.0  0.93065  0.55662  0.16577  1.0000 -0.6643533813
O   O22       1.0  0.43065  0.44338  0.33423  1.0000 -0.6643533813
O   O23       1.0  0.56935  0.94338  0.66577  1.0000 -0.6643533813
O   O24       1.0  0.06935  0.05662  0.83423  1.0000 -0.6643533813
