# DDEC6 charges by PACMAN v1.1 (https://github.com/mtap-research/PACMAN-charge/)
data_2010[Zn][nan]3[FSR]16
_chemical_formula_sum              "Zn16 H48 C48 N64 O32"
_cell_length_a       12.9591
_cell_length_b       13.7971
_cell_length_c       16.8153
_cell_angle_alpha    90
_cell_angle_beta     90
_cell_angle_gamma    90

_symmetry_space_group_name_H-M    "P 1"
_symmetry_Int_Tables_number       1

loop_
  _symmetry_equiv_pos_as_xyz
  'x, y, z'

loop_
  _atom_site_type_symbol
  _atom_site_label
  _atom_site_symmetry_multiplicity
  _atom_site_fract_x
  _atom_site_fract_y
  _atom_site_fract_z
  _atom_site_occupancy
  _atom_site_charge
Zn  Zn1       1.0  0.42665  0.97754  0.59608  1.0000 0.7054912132
Zn  Zn2       1.0  0.57335  0.52246  0.09608  1.0000 0.7054912132
Zn  Zn3       1.0  0.92665  0.02246  0.90392  1.0000 0.7054912132
Zn  Zn4       1.0  0.07335  0.47754  0.40392  1.0000 0.7054912132
Zn  Zn5       1.0  0.57335  0.02246  0.40392  1.0000 0.7054912132
Zn  Zn6       1.0  0.42665  0.47754  0.90392  1.0000 0.7054912132
Zn  Zn7       1.0  0.07335  0.97754  0.09608  1.0000 0.7054912132
Zn  Zn8       1.0  0.92665  0.52246  0.59608  1.0000 0.7054912132
Zn  Zn9       1.0  0.47660  0.90714  0.92390  1.0000 0.7054912132
Zn  Zn10      1.0  0.52340  0.59286  0.42390  1.0000 0.7054912132
Zn  Zn11      1.0  0.97660  0.09286  0.57610  1.0000 0.7054912132
Zn  Zn12      1.0  0.02340  0.40714  0.07610  1.0000 0.7054912132
Zn  Zn13      1.0  0.52340  0.09286  0.07610  1.0000 0.7054912132
Zn  Zn14      1.0  0.47660  0.40714  0.57610  1.0000 0.7054912132
Zn  Zn15      1.0  0.02340  0.90714  0.42390  1.0000 0.7054912132
Zn  Zn16      1.0  0.97660  0.59286  0.92390  1.0000 0.7054912132
H   H1        1.0  0.25180  0.86340  0.49840  1.0000 0.1134716497
H   H2        1.0  0.74820  0.63660  0.99840  1.0000 0.1134716497
H   H3        1.0  0.75180  0.13660  0.00160  1.0000 0.1134716497
H   H4        1.0  0.24820  0.36340  0.50160  1.0000 0.1134716497
H   H5        1.0  0.74820  0.13660  0.50160  1.0000 0.1134716497
H   H6        1.0  0.25180  0.36340  0.00160  1.0000 0.1134716497
H   H7        1.0  0.24820  0.86340  0.99840  1.0000 0.1134716497
H   H8        1.0  0.75180  0.63660  0.49840  1.0000 0.1134716497
H   H9        1.0  0.44660  0.19500  0.64710  1.0000 0.1190149096
H   H10       1.0  0.55340  0.30500  0.14710  1.0000 0.1190149096
H   H11       1.0  0.94660  0.80500  0.85290  1.0000 0.1190149096
H   H12       1.0  0.05340  0.69500  0.35290  1.0000 0.1190149096
H   H13       1.0  0.55340  0.80500  0.35290  1.0000 0.1190149096
H   H14       1.0  0.44660  0.69500  0.85290  1.0000 0.1190149096
H   H15       1.0  0.05340  0.19500  0.14710  1.0000 0.1190149096
H   H16       1.0  0.94660  0.30500  0.64710  1.0000 0.1190149096
H   H17       1.0  0.17250  0.16930  0.64370  1.0000 0.3192614696
H   H18       1.0  0.82750  0.33070  0.14370  1.0000 0.3192614696
H   H19       1.0  0.67250  0.83070  0.85630  1.0000 0.3192614696
H   H20       1.0  0.32750  0.66930  0.35630  1.0000 0.3192614696
H   H21       1.0  0.82750  0.83070  0.35630  1.0000 0.3192614696
H   H22       1.0  0.17250  0.66930  0.85630  1.0000 0.3192614696
H   H23       1.0  0.32750  0.16930  0.14370  1.0000 0.3192614696
H   H24       1.0  0.67250  0.33070  0.64370  1.0000 0.3192614696
H   H25       1.0  0.28170  0.13250  0.65900  1.0000 0.3192614696
H   H26       1.0  0.71830  0.36750  0.15900  1.0000 0.3192614696
H   H27       1.0  0.78170  0.86750  0.84100  1.0000 0.3192614696
H   H28       1.0  0.21830  0.63250  0.34100  1.0000 0.3192614696
H   H29       1.0  0.71830  0.86750  0.34100  1.0000 0.3192614696
H   H30       1.0  0.28170  0.63250  0.84100  1.0000 0.3192614696
H   H31       1.0  0.21830  0.13250  0.15900  1.0000 0.3192614696
H   H32       1.0  0.78170  0.36750  0.65900  1.0000 0.3192614696
H   H33       1.0  0.58710  0.23780  0.37470  1.0000 0.3260166851
H   H34       1.0  0.41290  0.26220  0.87470  1.0000 0.3260166851
H   H35       1.0  0.08710  0.76220  0.12530  1.0000 0.3260166851
H   H36       1.0  0.91290  0.73780  0.62530  1.0000 0.3260166851
H   H37       1.0  0.41290  0.76220  0.62530  1.0000 0.3260166851
H   H38       1.0  0.58710  0.73780  0.12530  1.0000 0.3260166851
H   H39       1.0  0.91290  0.23780  0.87470  1.0000 0.3260166851
H   H40       1.0  0.08710  0.26220  0.37470  1.0000 0.3260166851
H   H41       1.0  0.56420  0.33333  0.41650  1.0000 0.3192614696
H   H42       1.0  0.43580  0.16667  0.91650  1.0000 0.3192614696
H   H43       1.0  0.06420  0.66667  0.08350  1.0000 0.3192614696
H   H44       1.0  0.93580  0.83333  0.58350  1.0000 0.3192614696
H   H45       1.0  0.43580  0.66667  0.58350  1.0000 0.3192614696
H   H46       1.0  0.56420  0.83333  0.08350  1.0000 0.3192614696
H   H47       1.0  0.93580  0.33333  0.91650  1.0000 0.3192614696
H   H48       1.0  0.06420  0.16667  0.41650  1.0000 0.3192614696
C   C1        1.0  0.42350  0.00600  0.77695  1.0000 0.4673583825
C   C2        1.0  0.57650  0.49400  0.27695  1.0000 0.4673583825
C   C3        1.0  0.92350  0.99400  0.72305  1.0000 0.4673583825
C   C4        1.0  0.07650  0.50600  0.22305  1.0000 0.4673583825
C   C5        1.0  0.57650  0.99400  0.22305  1.0000 0.4673583825
C   C6        1.0  0.42350  0.50600  0.72305  1.0000 0.4673583825
C   C7        1.0  0.07650  0.00600  0.27695  1.0000 0.4673583825
C   C8        1.0  0.92350  0.49400  0.77695  1.0000 0.4673583825
C   C9        1.0  0.47240  0.90910  0.75358  1.0000 0.4673583825
C   C10       1.0  0.52760  0.59090  0.25358  1.0000 0.4673583825
C   C11       1.0  0.97240  0.09090  0.74642  1.0000 0.4673583825
C   C12       1.0  0.02760  0.40910  0.24642  1.0000 0.4673583825
C   C13       1.0  0.52760  0.09090  0.24642  1.0000 0.4673583825
C   C14       1.0  0.47240  0.40910  0.74642  1.0000 0.4673583825
C   C15       1.0  0.02760  0.90910  0.25358  1.0000 0.4673583825
C   C16       1.0  0.97240  0.59090  0.75358  1.0000 0.4673583825
C   C17       1.0  0.20230  0.04750  0.58901  1.0000 0.5078680348
C   C18       1.0  0.79770  0.45250  0.08901  1.0000 0.5078680348
C   C19       1.0  0.70230  0.95250  0.91099  1.0000 0.5078680348
C   C20       1.0  0.29770  0.54750  0.41099  1.0000 0.5078680348
C   C21       1.0  0.79770  0.95250  0.41099  1.0000 0.5078680348
C   C22       1.0  0.20230  0.54750  0.91099  1.0000 0.5078680348
C   C23       1.0  0.29770  0.04750  0.08901  1.0000 0.5078680348
C   C24       1.0  0.70230  0.45250  0.58901  1.0000 0.5078680348
C   C25       1.0  0.22210  0.91950  0.52182  1.0000 0.1407829803
C   C26       1.0  0.77790  0.58050  0.02182  1.0000 0.1407829803
C   C27       1.0  0.72210  0.08050  0.97818  1.0000 0.1407829803
C   C28       1.0  0.27790  0.41950  0.47818  1.0000 0.1407829803
C   C29       1.0  0.77790  0.08050  0.47818  1.0000 0.1407829803
C   C30       1.0  0.22210  0.41950  0.97818  1.0000 0.1407829803
C   C31       1.0  0.27790  0.91950  0.02182  1.0000 0.1407829803
C   C32       1.0  0.72210  0.58050  0.52182  1.0000 0.1407829803
C   C33       1.0  0.52690  0.22040  0.48008  1.0000 0.4987159279
C   C34       1.0  0.47310  0.27960  0.98008  1.0000 0.4987159279
C   C35       1.0  0.02690  0.77960  0.01992  1.0000 0.4987159279
C   C36       1.0  0.97310  0.72040  0.51992  1.0000 0.4987159279
C   C37       1.0  0.47310  0.77960  0.51992  1.0000 0.4987159279
C   C38       1.0  0.52690  0.72040  0.01992  1.0000 0.4987159279
C   C39       1.0  0.97310  0.22040  0.98008  1.0000 0.4987159279
C   C40       1.0  0.02690  0.27960  0.48008  1.0000 0.4987159279
C   C41       1.0  0.47160  0.18800  0.59431  1.0000 0.1498927531
C   C42       1.0  0.52840  0.31200  0.09431  1.0000 0.1498927531
C   C43       1.0  0.97160  0.81200  0.90569  1.0000 0.1498927531
C   C44       1.0  0.02840  0.68800  0.40569  1.0000 0.1498927531
C   C45       1.0  0.52840  0.81200  0.40569  1.0000 0.1498927531
C   C46       1.0  0.47160  0.68800  0.90569  1.0000 0.1498927531
C   C47       1.0  0.02840  0.18800  0.09431  1.0000 0.1498927531
C   C48       1.0  0.97160  0.31200  0.59431  1.0000 0.1498927531
N   N1        1.0  0.27370  0.97853  0.57200  1.0000 -0.4228464644
N   N2        1.0  0.72630  0.52147  0.07200  1.0000 -0.4228464644
N   N3        1.0  0.77370  0.02147  0.92800  1.0000 -0.4228464644
N   N4        1.0  0.22630  0.47853  0.42800  1.0000 -0.4228464644
N   N5        1.0  0.72630  0.02147  0.42800  1.0000 -0.4228464644
N   N6        1.0  0.27370  0.47853  0.92800  1.0000 -0.4228464644
N   N7        1.0  0.22630  0.97853  0.07200  1.0000 -0.4228464644
N   N8        1.0  0.77370  0.52147  0.57200  1.0000 -0.4228464644
N   N9        1.0  0.12710  0.94717  0.50860  1.0000 -0.2015531714
N   N10       1.0  0.87290  0.55283  0.00860  1.0000 -0.2015531714
N   N11       1.0  0.62710  0.05283  0.99140  1.0000 -0.2015531714
N   N12       1.0  0.37290  0.44717  0.49140  1.0000 -0.2015531714
N   N13       1.0  0.87290  0.05283  0.49140  1.0000 -0.2015531714
N   N14       1.0  0.12710  0.44717  0.99140  1.0000 -0.2015531714
N   N15       1.0  0.37290  0.94717  0.00860  1.0000 -0.2015531714
N   N16       1.0  0.62710  0.55283  0.50860  1.0000 -0.2015531714
N   N17       1.0  0.11360  0.03140  0.55236  1.0000 -0.3184473421
N   N18       1.0  0.88640  0.46860  0.05236  1.0000 -0.3184473421
N   N19       1.0  0.61360  0.96860  0.94764  1.0000 -0.3184473421
N   N20       1.0  0.38640  0.53140  0.44764  1.0000 -0.3184473421
N   N21       1.0  0.88640  0.96860  0.44764  1.0000 -0.3184473421
N   N22       1.0  0.11360  0.53140  0.94764  1.0000 -0.3184473421
N   N23       1.0  0.38640  0.03140  0.05236  1.0000 -0.3184473421
N   N24       1.0  0.61360  0.46860  0.55236  1.0000 -0.3184473421
N   N25       1.0  0.22100  0.12560  0.63610  1.0000 -0.6392478812
N   N26       1.0  0.77900  0.37440  0.13610  1.0000 -0.6392478812
N   N27       1.0  0.72100  0.87440  0.86390  1.0000 -0.6392478812
N   N28       1.0  0.27900  0.62560  0.36390  1.0000 -0.6392478812
N   N29       1.0  0.77900  0.87440  0.36390  1.0000 -0.6392478812
N   N30       1.0  0.22100  0.62560  0.86390  1.0000 -0.6392478812
N   N31       1.0  0.27900  0.12560  0.13610  1.0000 -0.6392478812
N   N32       1.0  0.72100  0.37440  0.63610  1.0000 -0.6392478812
N   N33       1.0  0.52330  0.12399  0.48463  1.0000 -0.3184473421
N   N34       1.0  0.47670  0.37601  0.98463  1.0000 -0.3184473421
N   N35       1.0  0.02330  0.87601  0.01537  1.0000 -0.3184473421
N   N36       1.0  0.97670  0.62399  0.51537  1.0000 -0.3184473421
N   N37       1.0  0.47670  0.87601  0.51537  1.0000 -0.3184473421
N   N38       1.0  0.52330  0.62399  0.01537  1.0000 -0.3184473421
N   N39       1.0  0.97670  0.12399  0.98463  1.0000 -0.3184473421
N   N40       1.0  0.02330  0.37601  0.48463  1.0000 -0.3184473421
N   N41       1.0  0.48670  0.10408  0.56040  1.0000 -0.2160575929
N   N42       1.0  0.51330  0.39592  0.06040  1.0000 -0.2160575929
N   N43       1.0  0.98670  0.89592  0.93960  1.0000 -0.2160575929
N   N44       1.0  0.01330  0.60408  0.43960  1.0000 -0.2160575929
N   N45       1.0  0.51330  0.89592  0.43960  1.0000 -0.2160575929
N   N46       1.0  0.48670  0.60408  0.93960  1.0000 -0.2160575929
N   N47       1.0  0.01330  0.10408  0.06040  1.0000 -0.2160575929
N   N48       1.0  0.98670  0.39592  0.56040  1.0000 -0.2160575929
N   N49       1.0  0.49480  0.26318  0.54724  1.0000 -0.4348660204
N   N50       1.0  0.50520  0.23682  0.04724  1.0000 -0.4348660204
N   N51       1.0  0.99480  0.73682  0.95276  1.0000 -0.4348660204
N   N52       1.0  0.00520  0.76318  0.45276  1.0000 -0.4348660204
N   N53       1.0  0.50520  0.73682  0.45276  1.0000 -0.4348660204
N   N54       1.0  0.49480  0.76318  0.95276  1.0000 -0.4348660204
N   N55       1.0  0.00520  0.26318  0.04724  1.0000 -0.4348660204
N   N56       1.0  0.99480  0.23682  0.54724  1.0000 -0.4348660204
N   N57       1.0  0.56370  0.26960  0.41629  1.0000 -0.6392478812
N   N58       1.0  0.43630  0.23040  0.91629  1.0000 -0.6392478812
N   N59       1.0  0.06370  0.73040  0.08371  1.0000 -0.6392478812
N   N60       1.0  0.93630  0.76960  0.58371  1.0000 -0.6392478812
N   N61       1.0  0.43630  0.73040  0.58371  1.0000 -0.6392478812
N   N62       1.0  0.56370  0.76960  0.08371  1.0000 -0.6392478812
N   N63       1.0  0.93630  0.26960  0.91629  1.0000 -0.6392478812
N   N64       1.0  0.06370  0.23040  0.41629  1.0000 -0.6392478812
O   O1        1.0  0.39470  0.05825  0.72076  1.0000 -0.5097669455
O   O2        1.0  0.60530  0.44175  0.22076  1.0000 -0.5097669455
O   O3        1.0  0.89470  0.94175  0.77924  1.0000 -0.5097669455
O   O4        1.0  0.10530  0.55825  0.27924  1.0000 -0.5097669455
O   O5        1.0  0.60530  0.94175  0.27924  1.0000 -0.5097669455
O   O6        1.0  0.39470  0.55825  0.77924  1.0000 -0.5097669455
O   O7        1.0  0.10530  0.05825  0.22076  1.0000 -0.5097669455
O   O8        1.0  0.89470  0.44175  0.72076  1.0000 -0.5097669455
O   O9        1.0  0.48250  0.89053  0.68131  1.0000 -0.4739833045
O   O10       1.0  0.51750  0.60947  0.18131  1.0000 -0.4739833045
O   O11       1.0  0.98250  0.10947  0.81869  1.0000 -0.4739833045
O   O12       1.0  0.01750  0.39053  0.31869  1.0000 -0.4739833045
O   O13       1.0  0.51750  0.10947  0.31869  1.0000 -0.4739833045
O   O14       1.0  0.48250  0.39053  0.81869  1.0000 -0.4739833045
O   O15       1.0  0.01750  0.89053  0.18131  1.0000 -0.4739833045
O   O16       1.0  0.98250  0.60947  0.68131  1.0000 -0.4739833045
O   O17       1.0  0.41720  0.02290  0.85011  1.0000 -0.4964085761
O   O18       1.0  0.58280  0.47710  0.35011  1.0000 -0.4964085761
O   O19       1.0  0.91720  0.97710  0.64989  1.0000 -0.4964085761
O   O20       1.0  0.08280  0.52290  0.14989  1.0000 -0.4964085761
O   O21       1.0  0.58280  0.97710  0.14989  1.0000 -0.4964085761
O   O22       1.0  0.41720  0.52290  0.64989  1.0000 -0.4964085761
O   O23       1.0  0.08280  0.02290  0.35011  1.0000 -0.4964085761
O   O24       1.0  0.91720  0.47710  0.85011  1.0000 -0.4964085761
O   O25       1.0  0.50250  0.85484  0.80829  1.0000 -0.4883740189
O   O26       1.0  0.49750  0.64516  0.30829  1.0000 -0.4883740189
O   O27       1.0  0.00250  0.14516  0.69171  1.0000 -0.4883740189
O   O28       1.0  0.99750  0.35484  0.19171  1.0000 -0.4883740189
O   O29       1.0  0.49750  0.14516  0.19171  1.0000 -0.4883740189
O   O30       1.0  0.50250  0.35484  0.69171  1.0000 -0.4883740189
O   O31       1.0  0.99750  0.85484  0.30829  1.0000 -0.4883740189
O   O32       1.0  0.00250  0.64516  0.80829  1.0000 -0.4883740189
