# DDEC6 charges by PACMAN v1.1 (https://github.com/mtap-research/PACMAN-charge/)
data_2010[Eu][llj]3[FSR]1
_chemical_formula_sum              "Eu8 H56 C56 S8 O56"
_cell_length_a       17.2009
_cell_length_b       17.2009
_cell_length_c       8.5389
_cell_angle_alpha    90
_cell_angle_beta     90
_cell_angle_gamma    90

_symmetry_space_group_name_H-M    "P 1"
_symmetry_Int_Tables_number       1

loop_
  _symmetry_equiv_pos_as_xyz
  'x, y, z'

loop_
  _atom_site_type_symbol
  _atom_site_label
  _atom_site_symmetry_multiplicity
  _atom_site_fract_x
  _atom_site_fract_y
  _atom_site_fract_z
  _atom_site_occupancy
  _atom_site_charge
Eu  Eu1       1.0  0.88939  0.03696  0.84953  1.0000 2.2308635128
Eu  Eu2       1.0  0.11061  0.96304  0.84953  1.0000 2.2308635128
Eu  Eu3       1.0  0.96304  0.88939  0.15047  1.0000 2.2308635128
Eu  Eu4       1.0  0.03696  0.11061  0.15047  1.0000 2.2308635128
Eu  Eu5       1.0  0.38939  0.46304  0.65047  1.0000 2.2308635128
Eu  Eu6       1.0  0.61061  0.53696  0.65047  1.0000 2.2308635128
Eu  Eu7       1.0  0.46304  0.61061  0.34953  1.0000 2.2308635128
Eu  Eu8       1.0  0.53696  0.38939  0.34953  1.0000 2.2308635128
H   H1        1.0  0.75200  0.76380  0.55600  1.0000 0.1291355286
H   H2        1.0  0.24800  0.23620  0.55600  1.0000 0.1291355286
H   H3        1.0  0.23620  0.75200  0.44400  1.0000 0.1291355286
H   H4        1.0  0.76380  0.24800  0.44400  1.0000 0.1291355286
H   H5        1.0  0.25200  0.73620  0.94400  1.0000 0.1291355286
H   H6        1.0  0.74800  0.26380  0.94400  1.0000 0.1291355286
H   H7        1.0  0.73620  0.74800  0.05600  1.0000 0.1291355286
H   H8        1.0  0.26380  0.25200  0.05600  1.0000 0.1291355286
H   H9        1.0  0.56170  0.83260  0.32350  1.0000 0.1291355286
H   H10       1.0  0.43830  0.16740  0.32350  1.0000 0.1291355286
H   H11       1.0  0.16740  0.56170  0.67650  1.0000 0.1291355286
H   H12       1.0  0.83260  0.43830  0.67650  1.0000 0.1291355286
H   H13       1.0  0.06170  0.66740  0.17650  1.0000 0.1291355286
H   H14       1.0  0.93830  0.33260  0.17650  1.0000 0.1291355286
H   H15       1.0  0.66740  0.93830  0.82350  1.0000 0.1291355286
H   H16       1.0  0.33260  0.06170  0.82350  1.0000 0.1291355286
H   H17       1.0  0.62280  0.94780  0.25770  1.0000 0.1143591268
H   H18       1.0  0.37720  0.05220  0.25770  1.0000 0.1143591268
H   H19       1.0  0.05220  0.62280  0.74230  1.0000 0.1143591268
H   H20       1.0  0.94780  0.37720  0.74230  1.0000 0.1143591268
H   H21       1.0  0.12280  0.55220  0.24230  1.0000 0.1143591268
H   H22       1.0  0.87720  0.44780  0.24230  1.0000 0.1143591268
H   H23       1.0  0.55220  0.87720  0.75770  1.0000 0.1143591268
H   H24       1.0  0.44780  0.12280  0.75770  1.0000 0.1143591268
H   H25       1.0  0.74740  0.97330  0.34830  1.0000 0.1291355286
H   H26       1.0  0.25260  0.02670  0.34830  1.0000 0.1291355286
H   H27       1.0  0.02670  0.74740  0.65170  1.0000 0.1291355286
H   H28       1.0  0.97330  0.25260  0.65170  1.0000 0.1291355286
H   H29       1.0  0.24740  0.52670  0.15170  1.0000 0.1291355286
H   H30       1.0  0.75260  0.47330  0.15170  1.0000 0.1291355286
H   H31       1.0  0.52670  0.75260  0.84830  1.0000 0.1291355286
H   H32       1.0  0.47330  0.24740  0.84830  1.0000 0.1291355286
H   H33       1.0  0.96000  0.89100  0.79900  1.0000 0.4052040888
H   H34       1.0  0.04000  0.10900  0.79900  1.0000 0.4052040888
H   H35       1.0  0.10900  0.96000  0.20100  1.0000 0.4052040888
H   H36       1.0  0.89100  0.04000  0.20100  1.0000 0.4052040888
H   H37       1.0  0.46000  0.60900  0.70100  1.0000 0.4052040888
H   H38       1.0  0.54000  0.39100  0.70100  1.0000 0.4052040888
H   H39       1.0  0.60900  0.54000  0.29900  1.0000 0.4052040888
H   H40       1.0  0.39100  0.46000  0.29900  1.0000 0.4052040888
H   H41       1.0  0.72500  0.11400  0.75900  1.0000 0.4291720105
H   H42       1.0  0.27500  0.88600  0.75900  1.0000 0.4291720105
H   H43       1.0  0.88600  0.72500  0.24100  1.0000 0.4291720105
H   H44       1.0  0.11400  0.27500  0.24100  1.0000 0.4291720105
H   H45       1.0  0.22500  0.38600  0.74100  1.0000 0.4291720105
H   H46       1.0  0.77500  0.61400  0.74100  1.0000 0.4291720105
H   H47       1.0  0.38600  0.77500  0.25900  1.0000 0.4291720105
H   H48       1.0  0.61400  0.22500  0.25900  1.0000 0.4291720105
H   H49       1.0  0.76900  0.07900  0.62200  1.0000 0.3958179368
H   H50       1.0  0.23100  0.92100  0.62200  1.0000 0.3958179368
H   H51       1.0  0.92100  0.76900  0.37800  1.0000 0.3958179368
H   H52       1.0  0.07900  0.23100  0.37800  1.0000 0.3958179368
H   H53       1.0  0.26900  0.42100  0.87800  1.0000 0.3958179368
H   H54       1.0  0.73100  0.57900  0.87800  1.0000 0.3958179368
H   H55       1.0  0.42100  0.73100  0.12200  1.0000 0.3958179368
H   H56       1.0  0.57900  0.26900  0.12200  1.0000 0.3958179368
C   C1        1.0  0.76149  0.87095  0.45860  1.0000 -0.1033149982
C   C2        1.0  0.23851  0.12905  0.45860  1.0000 -0.1033149982
C   C3        1.0  0.12905  0.76149  0.54140  1.0000 -0.1033149982
C   C4        1.0  0.87095  0.23851  0.54140  1.0000 -0.1137986509
C   C5        1.0  0.26149  0.62905  0.04140  1.0000 -0.1033149982
C   C6        1.0  0.73851  0.37095  0.04140  1.0000 -0.1033149982
C   C7        1.0  0.62905  0.73851  0.95860  1.0000 -0.1033149982
C   C8        1.0  0.37095  0.26149  0.95860  1.0000 -0.1033149982
C   C9        1.0  0.72570  0.80093  0.49700  1.0000 -0.1137986509
C   C10       1.0  0.27430  0.19907  0.49700  1.0000 -0.1137986509
C   C11       1.0  0.19907  0.72570  0.50300  1.0000 -0.1137986509
C   C12       1.0  0.80093  0.27430  0.50300  1.0000 -0.1137986509
C   C13       1.0  0.22570  0.69907  0.00300  1.0000 -0.1137986509
C   C14       1.0  0.77430  0.30093  0.00300  1.0000 -0.1137986509
C   C15       1.0  0.69907  0.77430  0.99700  1.0000 -0.1137986509
C   C16       1.0  0.30093  0.22570  0.99700  1.0000 -0.1137986509
C   C17       1.0  0.65050  0.78730  0.44630  1.0000 -0.0231577851
C   C18       1.0  0.34950  0.21270  0.44630  1.0000 -0.0231577851
C   C19       1.0  0.21270  0.65050  0.55370  1.0000 -0.0231577851
C   C20       1.0  0.78730  0.34950  0.55370  1.0000 -0.0231577851
C   C21       1.0  0.15050  0.71270  0.05370  1.0000 -0.0231577851
C   C22       1.0  0.84950  0.28730  0.05370  1.0000 -0.0231577851
C   C23       1.0  0.71270  0.84950  0.94630  1.0000 -0.0231577851
C   C24       1.0  0.28730  0.15050  0.94630  1.0000 -0.0231577851
C   C25       1.0  0.60990  0.71313  0.49030  1.0000 0.6246417029
C   C26       1.0  0.39010  0.28687  0.49030  1.0000 0.6246417029
C   C27       1.0  0.28687  0.60990  0.50970  1.0000 0.6246417029
C   C28       1.0  0.71313  0.39010  0.50970  1.0000 0.6246417029
C   C29       1.0  0.10990  0.78687  0.00970  1.0000 0.6246417029
C   C30       1.0  0.89010  0.21313  0.00970  1.0000 0.6246417029
C   C31       1.0  0.78687  0.89010  0.99030  1.0000 0.6246417029
C   C32       1.0  0.21313  0.10990  0.99030  1.0000 0.6246417029
C   C33       1.0  0.61210  0.84210  0.35760  1.0000 -0.0931347402
C   C34       1.0  0.38790  0.15790  0.35760  1.0000 -0.0931347402
C   C35       1.0  0.15790  0.61210  0.64240  1.0000 -0.0931347402
C   C36       1.0  0.84210  0.38790  0.64240  1.0000 -0.0931347402
C   C37       1.0  0.11210  0.65790  0.14240  1.0000 -0.0931347402
C   C38       1.0  0.88790  0.34210  0.14240  1.0000 -0.0931347402
C   C39       1.0  0.65790  0.88790  0.85760  1.0000 -0.0931347402
C   C40       1.0  0.34210  0.11210  0.85760  1.0000 -0.0931347402
C   C41       1.0  0.64850  0.91130  0.31900  1.0000 -0.0931347402
C   C42       1.0  0.35150  0.08870  0.31900  1.0000 -0.0931347402
C   C43       1.0  0.08870  0.64850  0.68100  1.0000 -0.0931347402
C   C44       1.0  0.91130  0.35150  0.68100  1.0000 -0.0931347402
C   C45       1.0  0.14850  0.58870  0.18100  1.0000 -0.0931347402
C   C46       1.0  0.85150  0.41130  0.18100  1.0000 -0.0931347402
C   C47       1.0  0.58870  0.85150  0.81900  1.0000 -0.1033149982
C   C48       1.0  0.41130  0.14850  0.81900  1.0000 -0.0931347402
C   C49       1.0  0.72330  0.92633  0.37160  1.0000 -0.080830461
C   C50       1.0  0.27670  0.07367  0.37160  1.0000 -0.080830461
C   C51       1.0  0.07367  0.72330  0.62840  1.0000 -0.080830461
C   C52       1.0  0.92633  0.27670  0.62840  1.0000 -0.080830461
C   C53       1.0  0.22330  0.57367  0.12840  1.0000 -0.080830461
C   C54       1.0  0.77670  0.42633  0.12840  1.0000 -0.080830461
C   C55       1.0  0.57367  0.77670  0.87160  1.0000 -0.080830461
C   C56       1.0  0.42633  0.22330  0.87160  1.0000 -0.080830461
S   S1        1.0  0.85677  0.89171  0.52381  1.0000 1.2499442858
S   S2        1.0  0.14323  0.10829  0.52381  1.0000 1.2499442858
S   S3        1.0  0.10829  0.85677  0.47619  1.0000 1.2499442858
S   S4        1.0  0.89171  0.14323  0.47619  1.0000 1.2499442858
S   S5        1.0  0.35677  0.60829  0.97619  1.0000 1.2499442858
S   S6        1.0  0.64323  0.39171  0.97619  1.0000 1.2499442858
S   S7        1.0  0.60829  0.64323  0.02381  1.0000 1.2499442858
S   S8        1.0  0.39171  0.35677  0.02381  1.0000 1.2499442858
O   O1        1.0  0.84851  0.94929  0.64660  1.0000 -0.6928952025
O   O2        1.0  0.15149  0.05071  0.64660  1.0000 -0.6928952025
O   O3        1.0  0.05071  0.84851  0.35340  1.0000 -0.6928952025
O   O4        1.0  0.94929  0.15149  0.35340  1.0000 -0.6928952025
O   O5        1.0  0.34851  0.55071  0.85340  1.0000 -0.6928952025
O   O6        1.0  0.65149  0.44929  0.85340  1.0000 -0.6928952025
O   O7        1.0  0.55071  0.65149  0.14660  1.0000 -0.6928952025
O   O8        1.0  0.44929  0.34851  0.14660  1.0000 -0.6928952025
O   O9        1.0  0.89631  0.92437  0.38760  1.0000 -0.7081277656
O   O10       1.0  0.10369  0.07563  0.38760  1.0000 -0.7081277656
O   O11       1.0  0.07563  0.89631  0.61240  1.0000 -0.7081277656
O   O12       1.0  0.92437  0.10369  0.61240  1.0000 -0.7081277656
O   O13       1.0  0.39631  0.57563  0.11240  1.0000 -0.7081277656
O   O14       1.0  0.60369  0.42437  0.11240  1.0000 -0.7081277656
O   O15       1.0  0.57563  0.60369  0.88760  1.0000 -0.7081277656
O   O16       1.0  0.42437  0.39631  0.88760  1.0000 -0.7081277656
O   O17       1.0  0.89135  0.82046  0.58090  1.0000 -0.5975848125
O   O18       1.0  0.10865  0.17954  0.58090  1.0000 -0.5975848125
O   O19       1.0  0.17954  0.89135  0.41910  1.0000 -0.5975848125
O   O20       1.0  0.82046  0.10865  0.41910  1.0000 -0.5975848125
O   O21       1.0  0.39135  0.67954  0.91910  1.0000 -0.5975848125
O   O22       1.0  0.60865  0.32046  0.91910  1.0000 -0.5975848125
O   O23       1.0  0.67954  0.60865  0.08090  1.0000 -0.5975848125
O   O24       1.0  0.32046  0.39135  0.08090  1.0000 -0.5975848125
O   O25       1.0  0.64928  0.65847  0.54300  1.0000 -0.6510315078
O   O26       1.0  0.35072  0.34153  0.54300  1.0000 -0.6510315078
O   O27       1.0  0.34153  0.64928  0.45700  1.0000 -0.6510315078
O   O28       1.0  0.65847  0.35072  0.45700  1.0000 -0.6510315078
O   O29       1.0  0.14928  0.84153  0.95700  1.0000 -0.6510315078
O   O30       1.0  0.85072  0.15847  0.95700  1.0000 -0.6510315078
O   O31       1.0  0.84153  0.85072  0.04300  1.0000 -0.6510315078
O   O32       1.0  0.15847  0.14928  0.04300  1.0000 -0.6510315078
O   O33       1.0  0.53672  0.71065  0.46950  1.0000 -0.6784019606
O   O34       1.0  0.46328  0.28935  0.46950  1.0000 -0.6784019606
O   O35       1.0  0.28935  0.53672  0.53050  1.0000 -0.6784019606
O   O36       1.0  0.71065  0.46328  0.53050  1.0000 -0.6784019606
O   O37       1.0  0.03672  0.78935  0.03050  1.0000 -0.6784019606
O   O38       1.0  0.96328  0.21065  0.03050  1.0000 -0.6784019606
O   O39       1.0  0.78935  0.96328  0.96950  1.0000 -0.6784019606
O   O40       1.0  0.21065  0.03672  0.96950  1.0000 -0.6784019606
O   O41       1.0  0.97420  0.92634  0.87860  1.0000 -1.1742700266
O   O42       1.0  0.02580  0.07366  0.87860  1.0000 -1.1742700266
O   O43       1.0  0.07366  0.97420  0.12140  1.0000 -1.1742700266
O   O44       1.0  0.92634  0.02580  0.12140  1.0000 -1.1776628581
O   O45       1.0  0.47420  0.57366  0.62140  1.0000 -1.1742700266
O   O46       1.0  0.52580  0.42634  0.62140  1.0000 -1.1776628581
O   O47       1.0  0.57366  0.52580  0.37860  1.0000 -1.1742700266
O   O48       1.0  0.42634  0.47420  0.37860  1.0000 -1.1776628581
O   O49       1.0  0.76304  0.07890  0.73240  1.0000 -0.8238712983
O   O50       1.0  0.23696  0.92110  0.73240  1.0000 -0.8238712983
O   O51       1.0  0.92110  0.76304  0.26760  1.0000 -0.8238712983
O   O52       1.0  0.07890  0.23696  0.26760  1.0000 -0.8238712983
O   O53       1.0  0.26304  0.42110  0.76760  1.0000 -0.8238712983
O   O54       1.0  0.73696  0.57890  0.76760  1.0000 -0.8238712983
O   O55       1.0  0.42110  0.73696  0.23240  1.0000 -0.8238712983
O   O56       1.0  0.57890  0.26304  0.23240  1.0000 -0.8238712983
