# DDEC6 charges by PACMAN v1.1 (https://github.com/mtap-research/PACMAN-charge/)
data_2010[Pr][rtl]3[FSR]1
_chemical_formula_sum              "Pr4 P4 H60 C28 N4 O28"
_cell_length_a       5.6068
_cell_length_b       13.382
_cell_length_c       21.192
_cell_angle_alpha    90
_cell_angle_beta     95.892
_cell_angle_gamma    90

_symmetry_space_group_name_H-M    "P 1"
_symmetry_Int_Tables_number       1

loop_
  _symmetry_equiv_pos_as_xyz
  'x, y, z'

loop_
  _atom_site_type_symbol
  _atom_site_label
  _atom_site_symmetry_multiplicity
  _atom_site_fract_x
  _atom_site_fract_y
  _atom_site_fract_z
  _atom_site_occupancy
  _atom_site_charge
Pr  Pr1       1.0  0.62969  0.13596  0.97105  1.0000 2.1036036635
Pr  Pr2       1.0  0.37031  0.63596  0.52895  1.0000 2.1036036635
Pr  Pr3       1.0  0.37031  0.86404  0.02895  1.0000 2.1036036635
Pr  Pr4       1.0  0.62969  0.36404  0.47105  1.0000 2.1036036635
P   P1        1.0  0.91040  0.02303  0.08661  1.0000 1.3399655248
P   P2        1.0  0.08960  0.52303  0.41339  1.0000 1.3399655248
P   P3        1.0  0.08960  0.97697  0.91339  1.0000 1.3399655248
P   P4        1.0  0.91040  0.47697  0.58661  1.0000 1.3399655248
H   H1        1.0  0.36070  0.24690  0.05570  1.0000 0.3634304131
H   H2        1.0  0.63930  0.74690  0.44430  1.0000 0.3634304131
H   H3        1.0  0.63930  0.75310  0.94430  1.0000 0.3634304131
H   H4        1.0  0.36070  0.25310  0.55570  1.0000 0.3634304131
H   H5        1.0  0.51690  0.18910  0.09580  1.0000 0.3303373332
H   H6        1.0  0.48310  0.68910  0.40420  1.0000 0.3303373332
H   H7        1.0  0.48310  0.81090  0.90420  1.0000 0.3303373332
H   H8        1.0  0.51690  0.31090  0.59580  1.0000 0.3303373332
H   H9        1.0  0.79490  0.32700  0.93510  1.0000 0.3303373332
H   H10       1.0  0.20510  0.82700  0.56490  1.0000 0.3303373332
H   H11       1.0  0.20510  0.67300  0.06490  1.0000 0.3303373332
H   H12       1.0  0.79490  0.17300  0.43510  1.0000 0.3303373332
H   H13       1.0  0.00380  0.27760  0.95870  1.0000 0.3650316025
H   H14       1.0  0.99620  0.77760  0.54130  1.0000 0.3650316025
H   H15       1.0  0.99620  0.72240  0.04130  1.0000 0.3650316025
H   H16       1.0  0.00380  0.22240  0.45870  1.0000 0.3650316025
H   H17       1.0  0.75690  0.97600  0.17960  1.0000 0.1538726116
H   H18       1.0  0.24310  0.47600  0.32040  1.0000 0.1538726116
H   H19       1.0  0.24310  0.02400  0.82040  1.0000 0.1538726116
H   H20       1.0  0.75690  0.52400  0.67960  1.0000 0.1538726116
H   H21       1.0  0.67270  0.08440  0.16100  1.0000 0.1279852415
H   H22       1.0  0.32730  0.58440  0.33900  1.0000 0.1279852415
H   H23       1.0  0.32730  0.91560  0.83900  1.0000 0.1279852415
H   H24       1.0  0.67270  0.41560  0.66100  1.0000 0.1279852415
H   H25       1.0  0.75800  0.10440  0.27960  1.0000 0.1018853883
H   H26       1.0  0.24200  0.60440  0.22040  1.0000 0.1018853883
H   H27       1.0  0.24200  0.89560  0.72040  1.0000 0.1018853883
H   H28       1.0  0.75800  0.39560  0.77960  1.0000 0.1018853883
H   H29       1.0  0.88030  0.99900  0.28580  1.0000 0.110572892
H   H30       1.0  0.11970  0.49900  0.21420  1.0000 0.110572892
H   H31       1.0  0.11970  0.00100  0.71420  1.0000 0.110572892
H   H32       1.0  0.88030  0.50100  0.78580  1.0000 0.110572892
H   H33       1.0  0.02630  0.10060  0.37060  1.0000 0.1018853883
H   H34       1.0  0.97370  0.60060  0.12940  1.0000 0.1018853883
H   H35       1.0  0.97370  0.89940  0.62940  1.0000 0.1018853883
H   H36       1.0  0.02630  0.39940  0.87060  1.0000 0.1018853883
H   H37       1.0  0.23570  0.07020  0.33070  1.0000 0.1186389352
H   H38       1.0  0.76430  0.57020  0.16930  1.0000 0.1186389352
H   H39       1.0  0.76430  0.92980  0.66930  1.0000 0.1186389352
H   H40       1.0  0.23570  0.42980  0.83070  1.0000 0.1186389352
H   H41       1.0  0.99480  0.25680  0.32140  1.0000 0.1186389352
H   H42       1.0  0.00520  0.75680  0.17860  1.0000 0.1186389352
H   H43       1.0  0.00520  0.74320  0.67860  1.0000 0.1186389352
H   H44       1.0  0.99480  0.24320  0.82140  1.0000 0.1186389352
H   H45       1.0  0.24250  0.30220  0.24570  1.0000 0.110572892
H   H46       1.0  0.75750  0.80220  0.25430  1.0000 0.110572892
H   H47       1.0  0.75750  0.69780  0.75430  1.0000 0.110572892
H   H48       1.0  0.24250  0.19780  0.74570  1.0000 0.110572892
H   H49       1.0  0.37040  0.19790  0.25140  1.0000 0.1018853883
H   H50       1.0  0.62960  0.69790  0.24860  1.0000 0.1018853883
H   H51       1.0  0.62960  0.80210  0.74860  1.0000 0.1018853883
H   H52       1.0  0.37040  0.30210  0.75140  1.0000 0.1018853883
H   H53       1.0  0.08550  0.19770  0.16130  1.0000 0.110572892
H   H54       1.0  0.91450  0.69770  0.33870  1.0000 0.110572892
H   H55       1.0  0.91450  0.80230  0.83870  1.0000 0.110572892
H   H56       1.0  0.08550  0.30230  0.66130  1.0000 0.110572892
H   H57       1.0  0.88090  0.22550  0.20350  1.0000 0.0933508488
H   H58       1.0  0.11910  0.72550  0.29650  1.0000 0.0933508488
H   H59       1.0  0.11910  0.77450  0.79650  1.0000 0.0933508488
H   H60       1.0  0.88090  0.27450  0.70350  1.0000 0.0933508488
C   C1        1.0  0.81050  0.04020  0.16510  1.0000 -0.4398743411
C   C2        1.0  0.18950  0.54020  0.33490  1.0000 -0.4398743411
C   C3        1.0  0.18950  0.95980  0.83490  1.0000 -0.4398743411
C   C4        1.0  0.81050  0.45980  0.66510  1.0000 -0.4398743411
C   C5        1.0  0.90860  0.06930  0.27820  1.0000 -0.1042882365
C   C6        1.0  0.09140  0.56930  0.22180  1.0000 -0.1042882365
C   C7        1.0  0.09140  0.93070  0.72180  1.0000 -0.1042882365
C   C8        1.0  0.90860  0.43070  0.77820  1.0000 -0.1042882365
C   C9        1.0  0.08880  0.10870  0.32990  1.0000 -0.206676873
C   C10       1.0  0.91120  0.60870  0.17010  1.0000 -0.2045532887
C   C11       1.0  0.91120  0.89130  0.67010  1.0000 -0.2045532887
C   C12       1.0  0.08880  0.39130  0.82990  1.0000 -0.206676873
C   C13       1.0  0.14450  0.21950  0.31970  1.0000 -0.1121895158
C   C14       1.0  0.85550  0.71950  0.18030  1.0000 -0.1121895158
C   C15       1.0  0.85550  0.78050  0.68030  1.0000 -0.1121895158
C   C16       1.0  0.14450  0.28050  0.81970  1.0000 -0.1121895158
C   C17       1.0  0.21900  0.23180  0.25390  1.0000 -0.206676873
C   C18       1.0  0.78100  0.73180  0.24610  1.0000 -0.206676873
C   C19       1.0  0.78100  0.76820  0.74610  1.0000 -0.206676873
C   C20       1.0  0.21900  0.26820  0.75390  1.0000 -0.206676873
C   C21       1.0  0.03000  0.18920  0.20280  1.0000 -0.1042882365
C   C22       1.0  0.97000  0.68920  0.29720  1.0000 -0.1042882365
C   C23       1.0  0.97000  0.81080  0.79720  1.0000 -0.1042882365
C   C24       1.0  0.03000  0.31080  0.70280  1.0000 -0.1042882365
C   C25       1.0  0.32570  0.26170  0.37040  1.0000 0.5633938338
C   C26       1.0  0.67430  0.76170  0.12960  1.0000 0.5633938338
C   C27       1.0  0.67430  0.73830  0.62960  1.0000 0.5633938338
C   C28       1.0  0.32570  0.23830  0.87040  1.0000 0.5633938338
N   N1        1.0  0.98970  0.08130  0.21470  1.0000 -0.0262449508
N   N2        1.0  0.01030  0.58130  0.28530  1.0000 -0.0262449508
N   N3        1.0  0.01030  0.91870  0.78530  1.0000 -0.0262449508
N   N4        1.0  0.98970  0.41870  0.71470  1.0000 -0.0262449508
O   O1        1.0  0.68570  0.98260  0.04700  1.0000 -0.9614877825
O   O2        1.0  0.31430  0.48260  0.45300  1.0000 -0.9614877825
O   O3        1.0  0.31430  0.01740  0.95300  1.0000 -0.9614877825
O   O4        1.0  0.68570  0.51740  0.54700  1.0000 -0.9614877825
O   O5        1.0  0.96160  0.12310  0.05740  1.0000 -0.8630978738
O   O6        1.0  0.03840  0.62310  0.44260  1.0000 -0.8630978738
O   O7        1.0  0.03840  0.87690  0.94260  1.0000 -0.8630978738
O   O8        1.0  0.96160  0.37690  0.55740  1.0000 -0.8630978738
O   O9        1.0  0.12010  0.95250  0.09260  1.0000 -0.8521205907
O   O10       1.0  0.87990  0.45250  0.40740  1.0000 -0.8521205907
O   O11       1.0  0.87990  0.04750  0.90740  1.0000 -0.8521205907
O   O12       1.0  0.12010  0.54750  0.59260  1.0000 -0.8521205907
O   O13       1.0  0.30190  0.24300  0.42820  1.0000 -0.6534304445
O   O14       1.0  0.69810  0.74300  0.07180  1.0000 -0.6534304445
O   O15       1.0  0.69810  0.75700  0.57180  1.0000 -0.6534304445
O   O16       1.0  0.30190  0.25700  0.92820  1.0000 -0.6534304445
O   O17       1.0  0.49490  0.31480  0.35680  1.0000 -0.5983597909
O   O18       1.0  0.50510  0.81480  0.14320  1.0000 -0.5983597909
O   O19       1.0  0.50510  0.68520  0.64320  1.0000 -0.5983597909
O   O20       1.0  0.49490  0.18520  0.85680  1.0000 -0.5983597909
O   O21       1.0  0.41710  0.18860  0.06260  1.0000 -0.7404303526
O   O22       1.0  0.58290  0.68860  0.43740  1.0000 -0.7404303526
O   O23       1.0  0.58290  0.81140  0.93740  1.0000 -0.7404303526
O   O24       1.0  0.41710  0.31140  0.56260  1.0000 -0.7404303526
O   O25       1.0  0.86010  0.29130  0.96540  1.0000 -0.7778570478
O   O26       1.0  0.13990  0.79130  0.53460  1.0000 -0.7778570478
O   O27       1.0  0.13990  0.70870  0.03460  1.0000 -0.7778570478
O   O28       1.0  0.86010  0.20870  0.46540  1.0000 -0.7778570478
