# DDEC6 charges by PACMAN v1.1 (https://github.com/mtap-research/PACMAN-charge/)
data_2010[CoDy][nan]3[FSR]1
_chemical_formula_sum              "Dy4 Co6 H60 C84 N12 O60"
_cell_length_a       15.1473
_cell_length_b       15.1473
_cell_length_c       15.4766
_cell_angle_alpha    90
_cell_angle_beta     90
_cell_angle_gamma    120

_symmetry_space_group_name_H-M    "P 1"
_symmetry_Int_Tables_number       1

loop_
  _symmetry_equiv_pos_as_xyz
  'x, y, z'

loop_
  _atom_site_type_symbol
  _atom_site_label
  _atom_site_symmetry_multiplicity
  _atom_site_fract_x
  _atom_site_fract_y
  _atom_site_fract_z
  _atom_site_occupancy
  _atom_site_charge
Dy  Dy1       1.0  0.33333  0.66667  0.25000  1.0000 1.8313491761
Dy  Dy2       1.0  0.66667  0.33333  0.25000  1.0000 1.8313491761
Dy  Dy3       1.0  0.66667  0.33333  0.75000  1.0000 1.8313491761
Dy  Dy4       1.0  0.33333  0.66667  0.75000  1.0000 1.8313491761
Co  Co1       1.0  0.50000  0.00000  0.50000  1.0000 1.0567310272
Co  Co2       1.0  0.00000  0.50000  0.50000  1.0000 1.0546398579
Co  Co3       1.0  0.50000  0.50000  0.50000  1.0000 1.0567310272
Co  Co4       1.0  0.00000  0.50000  0.00000  1.0000 1.0546398579
Co  Co5       1.0  0.50000  0.00000  0.00000  1.0000 1.0567310272
Co  Co6       1.0  0.50000  0.50000  0.00000  1.0000 1.0567310272
H   H1        1.0  0.71330  0.94640  0.34500  1.0000 0.1373756546
H   H2        1.0  0.05360  0.76690  0.34500  1.0000 0.1373756546
H   H3        1.0  0.23310  0.28670  0.34500  1.0000 0.1373756546
H   H4        1.0  0.28670  0.05360  0.34500  1.0000 0.1373756546
H   H5        1.0  0.94640  0.23310  0.34500  1.0000 0.1373756546
H   H6        1.0  0.76690  0.71330  0.34500  1.0000 0.1373756546
H   H7        1.0  0.94640  0.71330  0.15500  1.0000 0.1373756546
H   H8        1.0  0.76690  0.05360  0.15500  1.0000 0.1373756546
H   H9        1.0  0.28670  0.23310  0.15500  1.0000 0.1373756546
H   H10       1.0  0.05360  0.28670  0.15500  1.0000 0.1373756546
H   H11       1.0  0.23310  0.94640  0.15500  1.0000 0.1373756546
H   H12       1.0  0.71330  0.76690  0.15500  1.0000 0.1373756546
H   H13       1.0  0.28670  0.05360  0.65500  1.0000 0.1373756546
H   H14       1.0  0.94640  0.23310  0.65500  1.0000 0.1373756546
H   H15       1.0  0.76690  0.71330  0.65500  1.0000 0.1373756546
H   H16       1.0  0.71330  0.94640  0.65500  1.0000 0.1373756546
H   H17       1.0  0.05360  0.76690  0.65500  1.0000 0.1373756546
H   H18       1.0  0.23310  0.28670  0.65500  1.0000 0.1373756546
H   H19       1.0  0.05360  0.28670  0.84500  1.0000 0.1373756546
H   H20       1.0  0.23310  0.94640  0.84500  1.0000 0.1373756546
H   H21       1.0  0.71330  0.76690  0.84500  1.0000 0.1373756546
H   H22       1.0  0.94640  0.71330  0.84500  1.0000 0.1373756546
H   H23       1.0  0.76690  0.05360  0.84500  1.0000 0.1373756546
H   H24       1.0  0.28670  0.23310  0.84500  1.0000 0.1373756546
H   H25       1.0  0.80070  0.90035  0.25000  1.0000 0.1061769842
H   H26       1.0  0.09965  0.90035  0.25000  1.0000 0.1061769842
H   H27       1.0  0.09965  0.19930  0.25000  1.0000 0.1061769842
H   H28       1.0  0.19930  0.09965  0.25000  1.0000 0.1061769842
H   H29       1.0  0.90035  0.09965  0.25000  1.0000 0.1061769842
H   H30       1.0  0.90035  0.80070  0.25000  1.0000 0.1061769842
H   H31       1.0  0.19930  0.09965  0.75000  1.0000 0.1061769842
H   H32       1.0  0.90035  0.09965  0.75000  1.0000 0.1061769842
H   H33       1.0  0.90035  0.80070  0.75000  1.0000 0.1061769842
H   H34       1.0  0.80070  0.90035  0.75000  1.0000 0.1061769842
H   H35       1.0  0.09965  0.90035  0.75000  1.0000 0.1061769842
H   H36       1.0  0.09965  0.19930  0.75000  1.0000 0.1061769842
H   H37       1.0  0.65270  0.16560  0.45530  1.0000 0.3588384682
H   H38       1.0  0.83440  0.48710  0.45530  1.0000 0.3588384682
H   H39       1.0  0.51290  0.34730  0.45530  1.0000 0.3588384682
H   H40       1.0  0.34730  0.83440  0.45530  1.0000 0.3588384682
H   H41       1.0  0.16560  0.51290  0.45530  1.0000 0.3588384682
H   H42       1.0  0.48710  0.65270  0.45530  1.0000 0.3588384682
H   H43       1.0  0.16560  0.65270  0.04470  1.0000 0.3588384682
H   H44       1.0  0.48710  0.83440  0.04470  1.0000 0.3588384682
H   H45       1.0  0.34730  0.51290  0.04470  1.0000 0.3588384682
H   H46       1.0  0.83440  0.34730  0.04470  1.0000 0.3588384682
H   H47       1.0  0.51290  0.16560  0.04470  1.0000 0.3588384682
H   H48       1.0  0.65270  0.48710  0.04470  1.0000 0.3588384682
H   H49       1.0  0.34730  0.83440  0.54470  1.0000 0.3588384682
H   H50       1.0  0.16560  0.51290  0.54470  1.0000 0.3588384682
H   H51       1.0  0.48710  0.65270  0.54470  1.0000 0.3588384682
H   H52       1.0  0.65270  0.16560  0.54470  1.0000 0.3588384682
H   H53       1.0  0.83440  0.48710  0.54470  1.0000 0.3588384682
H   H54       1.0  0.51290  0.34730  0.54470  1.0000 0.3588384682
H   H55       1.0  0.83440  0.34730  0.95530  1.0000 0.3588384682
H   H56       1.0  0.51290  0.16560  0.95530  1.0000 0.3588384682
H   H57       1.0  0.65270  0.48710  0.95530  1.0000 0.3588384682
H   H58       1.0  0.16560  0.65270  0.95530  1.0000 0.3588384682
H   H59       1.0  0.48710  0.83440  0.95530  1.0000 0.3588384682
H   H60       1.0  0.34730  0.51290  0.95530  1.0000 0.3588384682
C   C1        1.0  0.50760  0.86200  0.36080  1.0000 0.5646367091
C   C2        1.0  0.13800  0.64560  0.36080  1.0000 0.5646367091
C   C3        1.0  0.35440  0.49240  0.36080  1.0000 0.5646367091
C   C4        1.0  0.49240  0.13800  0.36080  1.0000 0.5646367091
C   C5        1.0  0.86200  0.35440  0.36080  1.0000 0.5646367091
C   C6        1.0  0.64560  0.50760  0.36080  1.0000 0.5646367091
C   C7        1.0  0.86200  0.50760  0.13920  1.0000 0.5646367091
C   C8        1.0  0.64560  0.13800  0.13920  1.0000 0.5646367091
C   C9        1.0  0.49240  0.35440  0.13920  1.0000 0.5646367091
C   C10       1.0  0.13800  0.49240  0.13920  1.0000 0.5646367091
C   C11       1.0  0.35440  0.86200  0.13920  1.0000 0.5646367091
C   C12       1.0  0.50760  0.64560  0.13920  1.0000 0.5646367091
C   C13       1.0  0.49240  0.13800  0.63920  1.0000 0.5646367091
C   C14       1.0  0.86200  0.35440  0.63920  1.0000 0.5646367091
C   C15       1.0  0.64560  0.50760  0.63920  1.0000 0.5646367091
C   C16       1.0  0.50760  0.86200  0.63920  1.0000 0.5646367091
C   C17       1.0  0.13800  0.64560  0.63920  1.0000 0.5646367091
C   C18       1.0  0.35440  0.49240  0.63920  1.0000 0.5646367091
C   C19       1.0  0.13800  0.49240  0.86080  1.0000 0.5646367091
C   C20       1.0  0.35440  0.86200  0.86080  1.0000 0.5646367091
C   C21       1.0  0.50760  0.64560  0.86080  1.0000 0.5646367091
C   C22       1.0  0.86200  0.50760  0.86080  1.0000 0.5646367091
C   C23       1.0  0.64560  0.13800  0.86080  1.0000 0.5646367091
C   C24       1.0  0.49240  0.35440  0.86080  1.0000 0.5646367091
C   C25       1.0  0.57340  0.83850  0.30390  1.0000 0.1275617257
C   C26       1.0  0.16150  0.73490  0.30390  1.0000 0.1275617257
C   C27       1.0  0.26510  0.42660  0.30390  1.0000 0.1275617257
C   C28       1.0  0.42660  0.16150  0.30390  1.0000 0.1275617257
C   C29       1.0  0.83850  0.26510  0.30390  1.0000 0.1275617257
C   C30       1.0  0.73490  0.57340  0.30390  1.0000 0.1275617257
C   C31       1.0  0.83850  0.57340  0.19610  1.0000 0.1275617257
C   C32       1.0  0.73490  0.16150  0.19610  1.0000 0.1275617257
C   C33       1.0  0.42660  0.26510  0.19610  1.0000 0.1275617257
C   C34       1.0  0.16150  0.42660  0.19610  1.0000 0.1275617257
C   C35       1.0  0.26510  0.83850  0.19610  1.0000 0.1275617257
C   C36       1.0  0.57340  0.73490  0.19610  1.0000 0.1275617257
C   C37       1.0  0.42660  0.16150  0.69610  1.0000 0.1275617257
C   C38       1.0  0.83850  0.26510  0.69610  1.0000 0.1275617257
C   C39       1.0  0.73490  0.57340  0.69610  1.0000 0.1275617257
C   C40       1.0  0.57340  0.83850  0.69610  1.0000 0.1275617257
C   C41       1.0  0.16150  0.73490  0.69610  1.0000 0.1275617257
C   C42       1.0  0.26510  0.42660  0.69610  1.0000 0.1275617257
C   C43       1.0  0.16150  0.42660  0.80390  1.0000 0.1275617257
C   C44       1.0  0.26510  0.83850  0.80390  1.0000 0.1275617257
C   C45       1.0  0.57340  0.73490  0.80390  1.0000 0.1275617257
C   C46       1.0  0.83850  0.57340  0.80390  1.0000 0.1275617257
C   C47       1.0  0.73490  0.16150  0.80390  1.0000 0.1275617257
C   C48       1.0  0.42660  0.26510  0.80390  1.0000 0.1275617257
C   C49       1.0  0.67860  0.89280  0.30640  1.0000 -0.1350510449
C   C50       1.0  0.10720  0.78580  0.30640  1.0000 -0.1350510449
C   C51       1.0  0.21420  0.32140  0.30640  1.0000 -0.1344154657
C   C52       1.0  0.32140  0.10720  0.30640  1.0000 -0.1344154657
C   C53       1.0  0.89280  0.21420  0.30640  1.0000 -0.1344154657
C   C54       1.0  0.78580  0.67860  0.30640  1.0000 -0.1344154657
C   C55       1.0  0.89280  0.67860  0.19360  1.0000 -0.1344154657
C   C56       1.0  0.78580  0.10720  0.19360  1.0000 -0.1344154657
C   C57       1.0  0.32140  0.21420  0.19360  1.0000 -0.1344154657
C   C58       1.0  0.10720  0.32140  0.19360  1.0000 -0.1344154657
C   C59       1.0  0.21420  0.89280  0.19360  1.0000 -0.1350510449
C   C60       1.0  0.67860  0.78580  0.19360  1.0000 -0.1350510449
C   C61       1.0  0.32140  0.10720  0.69360  1.0000 -0.1344154657
C   C62       1.0  0.89280  0.21420  0.69360  1.0000 -0.1344154657
C   C63       1.0  0.78580  0.67860  0.69360  1.0000 -0.1344154657
C   C64       1.0  0.67860  0.89280  0.69360  1.0000 -0.1350510449
C   C65       1.0  0.10720  0.78580  0.69360  1.0000 -0.1344154657
C   C66       1.0  0.21420  0.32140  0.69360  1.0000 -0.1344154657
C   C67       1.0  0.10720  0.32140  0.80640  1.0000 -0.1344154657
C   C68       1.0  0.21420  0.89280  0.80640  1.0000 -0.1350510449
C   C69       1.0  0.67860  0.78580  0.80640  1.0000 -0.1350510449
C   C70       1.0  0.89280  0.67860  0.80640  1.0000 -0.1344154657
C   C71       1.0  0.78580  0.10720  0.80640  1.0000 -0.1344154657
C   C72       1.0  0.32140  0.21420  0.80640  1.0000 -0.1344154657
C   C73       1.0  0.72980  0.86490  0.25000  1.0000 -0.0577354872
C   C74       1.0  0.13510  0.86490  0.25000  1.0000 -0.0577354872
C   C75       1.0  0.13510  0.27020  0.25000  1.0000 -0.0577354872
C   C76       1.0  0.27020  0.13510  0.25000  1.0000 -0.0577354872
C   C77       1.0  0.86490  0.13510  0.25000  1.0000 -0.0577354872
C   C78       1.0  0.86490  0.72980  0.25000  1.0000 -0.0577354872
C   C79       1.0  0.27020  0.13510  0.75000  1.0000 -0.0577354872
C   C80       1.0  0.86490  0.13510  0.75000  1.0000 -0.0577354872
C   C81       1.0  0.86490  0.72980  0.75000  1.0000 -0.0577354872
C   C82       1.0  0.72980  0.86490  0.75000  1.0000 -0.0577354872
C   C83       1.0  0.13510  0.86490  0.75000  1.0000 -0.0577354872
C   C84       1.0  0.13510  0.27020  0.75000  1.0000 -0.0577354872
N   N1        1.0  0.52190  0.76095  0.25000  1.0000 -0.3409652294
N   N2        1.0  0.23905  0.76095  0.25000  1.0000 -0.3409652294
N   N3        1.0  0.23905  0.47810  0.25000  1.0000 -0.3409652294
N   N4        1.0  0.47810  0.23905  0.25000  1.0000 -0.3409652294
N   N5        1.0  0.76095  0.23905  0.25000  1.0000 -0.3409652294
N   N6        1.0  0.76095  0.52190  0.25000  1.0000 -0.3409652294
N   N7        1.0  0.47810  0.23905  0.75000  1.0000 -0.3409652294
N   N8        1.0  0.76095  0.23905  0.75000  1.0000 -0.3409652294
N   N9        1.0  0.76095  0.52190  0.75000  1.0000 -0.3409652294
N   N10       1.0  0.52190  0.76095  0.75000  1.0000 -0.3409652294
N   N11       1.0  0.23905  0.76095  0.75000  1.0000 -0.3409652294
N   N12       1.0  0.23905  0.47810  0.75000  1.0000 -0.3409652294
O   O1        1.0  0.41230  0.80120  0.35640  1.0000 -0.6170393806
O   O2        1.0  0.19880  0.61110  0.35640  1.0000 -0.6170393806
O   O3        1.0  0.38890  0.58770  0.35640  1.0000 -0.6170393806
O   O4        1.0  0.58770  0.19880  0.35640  1.0000 -0.6170393806
O   O5        1.0  0.80120  0.38890  0.35640  1.0000 -0.6170393806
O   O6        1.0  0.61110  0.41230  0.35640  1.0000 -0.6170393806
O   O7        1.0  0.80120  0.41230  0.14360  1.0000 -0.6170393806
O   O8        1.0  0.61110  0.19880  0.14360  1.0000 -0.6170393806
O   O9        1.0  0.58770  0.38890  0.14360  1.0000 -0.6170393806
O   O10       1.0  0.19880  0.58770  0.14360  1.0000 -0.6170393806
O   O11       1.0  0.38890  0.80120  0.14360  1.0000 -0.6170393806
O   O12       1.0  0.41230  0.61110  0.14360  1.0000 -0.6170393806
O   O13       1.0  0.58770  0.19880  0.64360  1.0000 -0.6170393806
O   O14       1.0  0.80120  0.38890  0.64360  1.0000 -0.6170393806
O   O15       1.0  0.61110  0.41230  0.64360  1.0000 -0.6170393806
O   O16       1.0  0.41230  0.80120  0.64360  1.0000 -0.6170393806
O   O17       1.0  0.19880  0.61110  0.64360  1.0000 -0.6170393806
O   O18       1.0  0.38890  0.58770  0.64360  1.0000 -0.6170393806
O   O19       1.0  0.19880  0.58770  0.85640  1.0000 -0.6170393806
O   O20       1.0  0.38890  0.80120  0.85640  1.0000 -0.6170393806
O   O21       1.0  0.41230  0.61110  0.85640  1.0000 -0.6170393806
O   O22       1.0  0.80120  0.41230  0.85640  1.0000 -0.6170393806
O   O23       1.0  0.61110  0.19880  0.85640  1.0000 -0.6170393806
O   O24       1.0  0.58770  0.38890  0.85640  1.0000 -0.6170393806
O   O25       1.0  0.55160  0.93850  0.40800  1.0000 -0.5389751972
O   O26       1.0  0.06150  0.61310  0.40800  1.0000 -0.5389751972
O   O27       1.0  0.38690  0.44840  0.40800  1.0000 -0.5389751972
O   O28       1.0  0.44840  0.06150  0.40800  1.0000 -0.5389751972
O   O29       1.0  0.93850  0.38690  0.40800  1.0000 -0.5389751972
O   O30       1.0  0.61310  0.55160  0.40800  1.0000 -0.5389751972
O   O31       1.0  0.93850  0.55160  0.09200  1.0000 -0.5389751972
O   O32       1.0  0.61310  0.06150  0.09200  1.0000 -0.5389751972
O   O33       1.0  0.44840  0.38690  0.09200  1.0000 -0.5389751972
O   O34       1.0  0.06150  0.44840  0.09200  1.0000 -0.5389751972
O   O35       1.0  0.38690  0.93850  0.09200  1.0000 -0.5389751972
O   O36       1.0  0.55160  0.61310  0.09200  1.0000 -0.5389751972
O   O37       1.0  0.44840  0.06150  0.59200  1.0000 -0.5389751972
O   O38       1.0  0.93850  0.38690  0.59200  1.0000 -0.5389751972
O   O39       1.0  0.61310  0.55160  0.59200  1.0000 -0.5389751972
O   O40       1.0  0.55160  0.93850  0.59200  1.0000 -0.5389751972
O   O41       1.0  0.06150  0.61310  0.59200  1.0000 -0.5389751972
O   O42       1.0  0.38690  0.44840  0.59200  1.0000 -0.5389751972
O   O43       1.0  0.06150  0.44840  0.90800  1.0000 -0.5389751972
O   O44       1.0  0.38690  0.93850  0.90800  1.0000 -0.5389751972
O   O45       1.0  0.55160  0.61310  0.90800  1.0000 -0.5389751972
O   O46       1.0  0.93850  0.55160  0.90800  1.0000 -0.5389751972
O   O47       1.0  0.61310  0.06150  0.90800  1.0000 -0.5389751972
O   O48       1.0  0.44840  0.38690  0.90800  1.0000 -0.5389751972
O   O49       1.0  0.64880  0.13460  0.50000  1.0000 -0.6415372521
O   O50       1.0  0.86540  0.51420  0.50000  1.0000 -0.6415372521
O   O51       1.0  0.48580  0.35120  0.50000  1.0000 -0.6415372521
O   O52       1.0  0.35120  0.86540  0.50000  1.0000 -0.6415372521
O   O53       1.0  0.13460  0.48580  0.50000  1.0000 -0.6415372521
O   O54       1.0  0.51420  0.64880  0.50000  1.0000 -0.6415372521
O   O55       1.0  0.13460  0.64880  0.00000  1.0000 -0.6415372521
O   O56       1.0  0.51420  0.86540  0.00000  1.0000 -0.6415372521
O   O57       1.0  0.35120  0.48580  0.00000  1.0000 -0.6415372521
O   O58       1.0  0.86540  0.35120  0.00000  1.0000 -0.6415372521
O   O59       1.0  0.48580  0.13460  0.00000  1.0000 -0.6415372521
O   O60       1.0  0.64880  0.51420  0.00000  1.0000 -0.6415372521
