# DDEC6 charges by PACMAN v1.1 (https://github.com/mtap-research/PACMAN-charge/)
data_2010[TbAg][nan]3[FSR]2
_chemical_formula_sum              "Tb4 Ag4 H52 C56 N8 O28"
_cell_length_a       7.9573
_cell_length_b       14.9781
_cell_length_c       16.2107
_cell_angle_alpha    90
_cell_angle_beta     92.069
_cell_angle_gamma    90

_symmetry_space_group_name_H-M    "P 1"
_symmetry_Int_Tables_number       1

loop_
  _symmetry_equiv_pos_as_xyz
  'x, y, z'

loop_
  _atom_site_type_symbol
  _atom_site_label
  _atom_site_symmetry_multiplicity
  _atom_site_fract_x
  _atom_site_fract_y
  _atom_site_fract_z
  _atom_site_occupancy
  _atom_site_charge
Tb  Tb1       1.0  0.04891  0.61636  0.45384  1.0000 2.0740877342
Tb  Tb2       1.0  0.45109  0.11636  0.54616  1.0000 2.0740877342
Tb  Tb3       1.0  0.95109  0.38364  0.54616  1.0000 2.0740877342
Tb  Tb4       1.0  0.54891  0.88364  0.45384  1.0000 2.0740877342
Ag  Ag1       1.0  0.60058  0.73947  0.97275  1.0000 0.1929753972
Ag  Ag2       1.0  0.89942  0.23947  0.02725  1.0000 0.1929753972
Ag  Ag3       1.0  0.39942  0.26053  0.02725  1.0000 0.1929753972
Ag  Ag4       1.0  0.10058  0.76053  0.97275  1.0000 0.1929753972
H   H1        1.0  0.47680  0.61730  0.10590  1.0000 0.089311988
H   H2        1.0  0.02320  0.11730  0.89410  1.0000 0.089311988
H   H3        1.0  0.52320  0.38270  0.89410  1.0000 0.089311988
H   H4        1.0  0.97680  0.88270  0.10590  1.0000 0.089311988
H   H5        1.0  0.36540  0.61710  0.23500  1.0000 0.1321105164
H   H6        1.0  0.13460  0.11710  0.76500  1.0000 0.1321105164
H   H7        1.0  0.63460  0.38290  0.76500  1.0000 0.1321105164
H   H8        1.0  0.86540  0.88290  0.23500  1.0000 0.1321105164
H   H9        1.0  0.39700  0.88370  0.23710  1.0000 0.1403159266
H   H10       1.0  0.10300  0.38370  0.76290  1.0000 0.1403159266
H   H11       1.0  0.60300  0.11630  0.76290  1.0000 0.1403159266
H   H12       1.0  0.89700  0.61630  0.23710  1.0000 0.1403159266
H   H13       1.0  0.50300  0.87770  0.10660  1.0000 0.089311988
H   H14       1.0  0.99700  0.37770  0.89340  1.0000 0.089311988
H   H15       1.0  0.49700  0.12230  0.89340  1.0000 0.089311988
H   H16       1.0  0.00300  0.62230  0.10660  1.0000 0.089311988
H   H17       1.0  0.67560  0.80700  0.79110  1.0000 0.1018279744
H   H18       1.0  0.82440  0.30700  0.20890  1.0000 0.1018279744
H   H19       1.0  0.32440  0.19300  0.20890  1.0000 0.1018279744
H   H20       1.0  0.17560  0.69300  0.79110  1.0000 0.1018279744
H   H21       1.0  0.76220  0.74910  0.66830  1.0000 0.1541079347
H   H22       1.0  0.73780  0.24910  0.33170  1.0000 0.1541079347
H   H23       1.0  0.23780  0.25090  0.33170  1.0000 0.1541079347
H   H24       1.0  0.26220  0.75090  0.66830  1.0000 0.1541079347
H   H25       1.0  0.82570  0.51300  0.77930  1.0000 0.1321105164
H   H26       1.0  0.67430  0.01300  0.22070  1.0000 0.1321105164
H   H27       1.0  0.17430  0.48700  0.22070  1.0000 0.1321105164
H   H28       1.0  0.32570  0.98700  0.77930  1.0000 0.1321105164
H   H29       1.0  0.74190  0.57650  0.90000  1.0000 0.0846041841
H   H30       1.0  0.75810  0.07650  0.10000  1.0000 0.0846041841
H   H31       1.0  0.25810  0.42350  0.10000  1.0000 0.0846041841
H   H32       1.0  0.24190  0.92350  0.90000  1.0000 0.0846041841
H   H33       1.0  0.41810  0.55050  0.67980  1.0000 0.1403159266
H   H34       1.0  0.08190  0.05050  0.32020  1.0000 0.1403159266
H   H35       1.0  0.58190  0.44950  0.32020  1.0000 0.1403159266
H   H36       1.0  0.91810  0.94950  0.67980  1.0000 0.1403159266
H   H37       1.0  0.36010  0.45290  0.65850  1.0000 0.1602317643
H   H38       1.0  0.13990  0.95290  0.34150  1.0000 0.1602317643
H   H39       1.0  0.63990  0.54710  0.34150  1.0000 0.1602317643
H   H40       1.0  0.86010  0.04710  0.65850  1.0000 0.1602317643
H   H41       1.0  0.51260  0.49510  0.61380  1.0000 0.1712948633
H   H42       1.0  0.98740  0.99510  0.38620  1.0000 0.1712948633
H   H43       1.0  0.48740  0.50490  0.38620  1.0000 0.1712948633
H   H44       1.0  0.01260  0.00490  0.61380  1.0000 0.1712948633
H   H45       1.0  0.00000  0.80030  0.51500  1.0000 0.3358849836
H   H46       1.0  0.50000  0.30030  0.48500  1.0000 0.3358849836
H   H47       1.0  0.00000  0.19970  0.48500  1.0000 0.3358849836
H   H48       1.0  0.50000  0.69970  0.51500  1.0000 0.3358849836
H   H49       1.0  0.14200  0.80290  0.47800  1.0000 0.323745991
H   H50       1.0  0.35800  0.30290  0.52200  1.0000 0.323745991
H   H51       1.0  0.85800  0.19710  0.52200  1.0000 0.323745991
H   H52       1.0  0.64200  0.69710  0.47800  1.0000 0.323745991
C   C1        1.0  0.45940  0.67140  0.13240  1.0000 0.0308158196
C   C2        1.0  0.04060  0.17140  0.86760  1.0000 0.0308158196
C   C3        1.0  0.54060  0.32860  0.86760  1.0000 0.0308158196
C   C4        1.0  0.95940  0.82860  0.13240  1.0000 0.0308158196
C   C5        1.0  0.39340  0.67080  0.21015  1.0000 -0.163197686
C   C6        1.0  0.10660  0.17080  0.78985  1.0000 -0.163197686
C   C7        1.0  0.60660  0.32920  0.78985  1.0000 -0.163197686
C   C8        1.0  0.89340  0.82920  0.21015  1.0000 -0.163197686
C   C9        1.0  0.36940  0.75089  0.25063  1.0000 0.0191517012
C   C10       1.0  0.13060  0.25089  0.74937  1.0000 0.0191517012
C   C11       1.0  0.63060  0.24911  0.74937  1.0000 0.0191517012
C   C12       1.0  0.86940  0.74911  0.25063  1.0000 0.0191517012
C   C13       1.0  0.41140  0.82890  0.21139  1.0000 -0.1692389893
C   C14       1.0  0.08860  0.32890  0.78861  1.0000 -0.1692389893
C   C15       1.0  0.58860  0.17110  0.78861  1.0000 -0.1692389893
C   C16       1.0  0.91140  0.67110  0.21139  1.0000 -0.1692389893
C   C17       1.0  0.47550  0.82480  0.13298  1.0000 0.0308158196
C   C18       1.0  0.02450  0.32480  0.86702  1.0000 0.0308158196
C   C19       1.0  0.52450  0.17520  0.86702  1.0000 0.0308158196
C   C20       1.0  0.97550  0.67520  0.13298  1.0000 0.0308158196
C   C21       1.0  0.29990  0.75092  0.33574  1.0000 0.6207314086
C   C22       1.0  0.20010  0.25092  0.66426  1.0000 0.6207314086
C   C23       1.0  0.70010  0.24908  0.66426  1.0000 0.6207314086
C   C24       1.0  0.79990  0.74908  0.33574  1.0000 0.6207314086
C   C25       1.0  0.70610  0.74710  0.78860  1.0000 0.0308158196
C   C26       1.0  0.79390  0.24710  0.21140  1.0000 0.0308158196
C   C27       1.0  0.29390  0.25290  0.21140  1.0000 0.0308158196
C   C28       1.0  0.20610  0.75290  0.78860  1.0000 0.0308158196
C   C29       1.0  0.75780  0.71270  0.71464  1.0000 -0.1478318769
C   C30       1.0  0.74220  0.21270  0.28536  1.0000 -0.1478318769
C   C31       1.0  0.24220  0.28730  0.28536  1.0000 -0.1478318769
C   C32       1.0  0.25780  0.78730  0.71464  1.0000 -0.1478318769
C   C33       1.0  0.80260  0.62430  0.71005  1.0000 0.0191517012
C   C34       1.0  0.69740  0.12430  0.28995  1.0000 0.0191517012
C   C35       1.0  0.19740  0.37570  0.28995  1.0000 0.0191517012
C   C36       1.0  0.30260  0.87570  0.71005  1.0000 0.0191517012
C   C37       1.0  0.79590  0.57300  0.78042  1.0000 -0.1692389893
C   C38       1.0  0.70410  0.07300  0.21958  1.0000 -0.1692389893
C   C39       1.0  0.20410  0.42700  0.21958  1.0000 -0.1692389893
C   C40       1.0  0.29590  0.92700  0.78042  1.0000 -0.1692389893
C   C41       1.0  0.74460  0.61150  0.85260  1.0000 0.0191517012
C   C42       1.0  0.75540  0.11150  0.14740  1.0000 0.0191517012
C   C43       1.0  0.25540  0.38850  0.14740  1.0000 0.0191517012
C   C44       1.0  0.24460  0.88850  0.85260  1.0000 0.0191517012
C   C45       1.0  0.85900  0.58150  0.63182  1.0000 0.6144678545
C   C46       1.0  0.64100  0.08150  0.36818  1.0000 0.6144678545
C   C47       1.0  0.14100  0.41850  0.36818  1.0000 0.6144678545
C   C48       1.0  0.35900  0.91850  0.63182  1.0000 0.6144678545
C   C49       1.0  0.28770  0.54235  0.57030  1.0000 0.7216321183
C   C50       1.0  0.21230  0.04235  0.42970  1.0000 0.7216321183
C   C51       1.0  0.71230  0.45765  0.42970  1.0000 0.7216321183
C   C52       1.0  0.78770  0.95765  0.57030  1.0000 0.7216321183
C   C53       1.0  0.40510  0.50700  0.63650  1.0000 -0.6236490357
C   C54       1.0  0.09490  0.00700  0.36350  1.0000 -0.6236490357
C   C55       1.0  0.59490  0.49300  0.36350  1.0000 -0.6236490357
C   C56       1.0  0.90510  0.99300  0.63650  1.0000 -0.6236490357
N   N1        1.0  0.49900  0.74705  0.09393  1.0000 -0.1997118454
N   N2        1.0  0.00100  0.24705  0.90607  1.0000 -0.1997118454
N   N3        1.0  0.50100  0.25295  0.90607  1.0000 -0.1997118454
N   N4        1.0  0.99900  0.75295  0.09393  1.0000 -0.1997118454
N   N5        1.0  0.69860  0.69690  0.85696  1.0000 -0.1997118454
N   N6        1.0  0.80140  0.19690  0.14304  1.0000 -0.1997118454
N   N7        1.0  0.30140  0.30310  0.14304  1.0000 -0.1997118454
N   N8        1.0  0.19860  0.80310  0.85696  1.0000 -0.1997118454
O   O1        1.0  0.21830  0.68452  0.35717  1.0000 -0.6378512132
O   O2        1.0  0.28170  0.18452  0.64283  1.0000 -0.6378512132
O   O3        1.0  0.78170  0.31548  0.64283  1.0000 -0.6378512132
O   O4        1.0  0.71830  0.81548  0.35717  1.0000 -0.6378512132
O   O5        1.0  0.32800  0.81897  0.38065  1.0000 -0.6891365695
O   O6        1.0  0.17200  0.31897  0.61935  1.0000 -0.6891365695
O   O7        1.0  0.67200  0.18103  0.61935  1.0000 -0.6891365695
O   O8        1.0  0.82800  0.68103  0.38065  1.0000 -0.6891365695
O   O9        1.0  0.90200  0.63386  0.57476  1.0000 -0.6589168358
O   O10       1.0  0.59800  0.13386  0.42524  1.0000 -0.6589168358
O   O11       1.0  0.09800  0.36614  0.42524  1.0000 -0.6589168358
O   O12       1.0  0.40200  0.86614  0.57476  1.0000 -0.6589168358
O   O13       1.0  0.85810  0.49848  0.62915  1.0000 -0.6489661086
O   O14       1.0  0.64190  0.99848  0.37085  1.0000 -0.6489661086
O   O15       1.0  0.14190  0.50152  0.37085  1.0000 -0.6489661086
O   O16       1.0  0.35810  0.00152  0.62915  1.0000 -0.6489661086
O   O17       1.0  0.15750  0.49836  0.54984  1.0000 -0.7589103478
O   O18       1.0  0.34250  0.99836  0.45016  1.0000 -0.7589103478
O   O19       1.0  0.84250  0.50164  0.45016  1.0000 -0.7589103478
O   O20       1.0  0.65750  0.00164  0.54984  1.0000 -0.7589103478
O   O21       1.0  0.31310  0.61551  0.53502  1.0000 -0.6378512132
O   O22       1.0  0.18690  0.11551  0.46498  1.0000 -0.6378512132
O   O23       1.0  0.68690  0.38449  0.46498  1.0000 -0.6378512132
O   O24       1.0  0.81310  0.88449  0.53502  1.0000 -0.6378512132
O   O25       1.0  0.07410  0.76940  0.49726  1.0000 -0.7250325727
O   O26       1.0  0.42590  0.26940  0.50274  1.0000 -0.7246679115
O   O27       1.0  0.92590  0.23060  0.50274  1.0000 -0.7246679115
O   O28       1.0  0.57410  0.73060  0.49726  1.0000 -0.7246679115
