# DDEC6 charges by PACMAN v1.1 (https://github.com/mtap-research/PACMAN-charge/)
data_2010[Ag][nan]3[FSR]1
_chemical_formula_sum              "Ag4 H16 C24 N4 O8"
_cell_length_a       3.6519
_cell_length_b       12.1512
_cell_length_c       15.07
_cell_angle_alpha    90
_cell_angle_beta     90.982
_cell_angle_gamma    90

_symmetry_space_group_name_H-M    "P 1"
_symmetry_Int_Tables_number       1

loop_
  _symmetry_equiv_pos_as_xyz
  'x, y, z'

loop_
  _atom_site_type_symbol
  _atom_site_label
  _atom_site_symmetry_multiplicity
  _atom_site_fract_x
  _atom_site_fract_y
  _atom_site_fract_z
  _atom_site_occupancy
  _atom_site_charge
Ag  Ag1       1.0  0.39560  0.42607  0.92452  1.0000 0.4438703609
Ag  Ag2       1.0  0.60440  0.92607  0.57548  1.0000 0.4463016045
Ag  Ag3       1.0  0.60440  0.57393  0.07548  1.0000 0.4463016045
Ag  Ag4       1.0  0.39560  0.07393  0.42452  1.0000 0.4438703609
H   H1        1.0  0.07020  0.59360  0.74450  1.0000 0.1234761429
H   H2        1.0  0.92980  0.09360  0.75550  1.0000 0.1234761429
H   H3        1.0  0.92980  0.40640  0.25550  1.0000 0.1234761429
H   H4        1.0  0.07020  0.90640  0.24450  1.0000 0.1234761429
H   H5        1.0  0.30500  0.69270  0.62920  1.0000 0.1094600063
H   H6        1.0  0.69500  0.19270  0.87080  1.0000 0.1094600063
H   H7        1.0  0.69500  0.30730  0.37080  1.0000 0.1094600063
H   H8        1.0  0.30500  0.80730  0.12920  1.0000 0.1094600063
H   H9        1.0  0.41020  0.95440  0.77820  1.0000 0.0980272971
H   H10       1.0  0.58980  0.45440  0.72180  1.0000 0.0980272971
H   H11       1.0  0.58980  0.04560  0.22180  1.0000 0.0980272971
H   H12       1.0  0.41020  0.54560  0.27820  1.0000 0.0980272971
H   H13       1.0  0.17310  0.86400  0.89840  1.0000 0.13840958
H   H14       1.0  0.82690  0.36400  0.60160  1.0000 0.13840958
H   H15       1.0  0.82690  0.13600  0.10160  1.0000 0.13840958
H   H16       1.0  0.17310  0.63600  0.39840  1.0000 0.13840958
C   C1        1.0  0.93100  0.65910  0.91140  1.0000 0.5487406802
C   C2        1.0  0.06900  0.15910  0.58860  1.0000 0.5487406802
C   C3        1.0  0.06900  0.34090  0.08860  1.0000 0.5487406802
C   C4        1.0  0.93100  0.84090  0.41140  1.0000 0.5487406802
C   C5        1.0  0.09500  0.71760  0.83540  1.0000 0.0305833285
C   C6        1.0  0.90500  0.21760  0.66460  1.0000 0.0305833285
C   C7        1.0  0.90500  0.28240  0.16460  1.0000 0.0305833285
C   C8        1.0  0.09500  0.78240  0.33540  1.0000 0.0305833285
C   C9        1.0  0.13900  0.66830  0.75320  1.0000 -0.162477662
C   C10       1.0  0.86100  0.16830  0.74680  1.0000 -0.162477662
C   C11       1.0  0.86100  0.33170  0.24680  1.0000 -0.162477662
C   C12       1.0  0.13900  0.83170  0.25320  1.0000 -0.162477662
C   C13       1.0  0.28000  0.72760  0.68520  1.0000 0.0758512606
C   C14       1.0  0.72000  0.22760  0.81480  1.0000 0.0758512606
C   C15       1.0  0.72000  0.27240  0.31480  1.0000 0.0758512606
C   C16       1.0  0.28000  0.77240  0.18520  1.0000 0.0758512606
C   C17       1.0  0.34000  0.87950  0.77190  1.0000 0.0518611268
C   C18       1.0  0.66000  0.37950  0.72810  1.0000 0.0518611268
C   C19       1.0  0.66000  0.12050  0.22810  1.0000 0.0518611268
C   C20       1.0  0.34000  0.62050  0.27190  1.0000 0.0518611268
C   C21       1.0  0.19900  0.82650  0.84360  1.0000 -0.1476632405
C   C22       1.0  0.80100  0.32650  0.65640  1.0000 -0.1476632405
C   C23       1.0  0.80100  0.17350  0.15640  1.0000 -0.1476632405
C   C24       1.0  0.19900  0.67350  0.34360  1.0000 -0.1476632405
N   N1        1.0  0.38300  0.83070  0.69310  1.0000 -0.2036625344
N   N2        1.0  0.61700  0.33070  0.80690  1.0000 -0.2036625344
N   N3        1.0  0.61700  0.16930  0.30690  1.0000 -0.2036625344
N   N4        1.0  0.38300  0.66930  0.19310  1.0000 -0.2036625344
O   O1        1.0  0.88400  0.55380  0.89850  1.0000 -0.5929928469
O   O2        1.0  0.11600  0.05380  0.60150  1.0000 -0.5929928469
O   O3        1.0  0.11600  0.44620  0.10150  1.0000 -0.5929928469
O   O4        1.0  0.88400  0.94620  0.39850  1.0000 -0.5929928469
O   O5        1.0  0.83100  0.71110  0.97740  1.0000 -0.5145518232
O   O6        1.0  0.16900  0.21110  0.52260  1.0000 -0.5151410151
O   O7        1.0  0.16900  0.28890  0.02260  1.0000 -0.5145518232
O   O8        1.0  0.83100  0.78890  0.47740  1.0000 -0.5145518232
