# DDEC6 charges by PACMAN v1.1 (https://github.com/mtap-research/PACMAN-charge/)
data_2010[CdAs][cds]3[FSR]1
_chemical_formula_sum              "Cd2 As4 H36 C32 N4 O20"
_cell_length_a       4.7595
_cell_length_b       9.925
_cell_length_c       22.609
_cell_angle_alpha    90
_cell_angle_beta     91.81
_cell_angle_gamma    90

_symmetry_space_group_name_H-M    "P 1"
_symmetry_Int_Tables_number       1

loop_
  _symmetry_equiv_pos_as_xyz
  'x, y, z'

loop_
  _atom_site_type_symbol
  _atom_site_label
  _atom_site_symmetry_multiplicity
  _atom_site_fract_x
  _atom_site_fract_y
  _atom_site_fract_z
  _atom_site_occupancy
  _atom_site_charge
Cd  Cd1       1.0  0.00000  0.00000  0.50000  1.0000 1.0925827251
Cd  Cd2       1.0  0.00000  0.50000  0.00000  1.0000 1.0925827251
As  As1       1.0  0.53337  0.86009  0.59476  1.0000 1.4027761446
As  As2       1.0  0.46663  0.36009  0.90524  1.0000 1.4027761446
As  As3       1.0  0.46663  0.13991  0.40524  1.0000 1.4027761446
As  As4       1.0  0.53337  0.63991  0.09476  1.0000 1.4027761446
H   H1        1.0  0.88780  0.03110  0.86450  1.0000 0.2729406358
H   H2        1.0  0.11220  0.53110  0.63550  1.0000 0.2729406358
H   H3        1.0  0.11220  0.96890  0.13550  1.0000 0.2729406358
H   H4        1.0  0.88780  0.46890  0.36450  1.0000 0.2729406358
H   H5        1.0  0.16140  0.74830  0.57660  1.0000 0.362057619
H   H6        1.0  0.83860  0.24830  0.92340  1.0000 0.362057619
H   H7        1.0  0.83860  0.25170  0.42340  1.0000 0.362057619
H   H8        1.0  0.16140  0.75170  0.07660  1.0000 0.362057619
H   H9        1.0  0.71500  0.64380  0.90010  1.0000 0.362057619
H   H10       1.0  0.28500  0.14380  0.59990  1.0000 0.362057619
H   H11       1.0  0.28500  0.35620  0.09990  1.0000 0.362057619
H   H12       1.0  0.71500  0.85620  0.40010  1.0000 0.362057619
H   H13       1.0  0.92670  0.73340  0.67830  1.0000 0.1048981772
H   H14       1.0  0.07330  0.23340  0.82170  1.0000 0.1048981772
H   H15       1.0  0.07330  0.26660  0.32170  1.0000 0.1048981772
H   H16       1.0  0.92670  0.76660  0.17830  1.0000 0.1048981772
H   H17       1.0  0.07990  0.76510  0.77490  1.0000 0.1200867111
H   H18       1.0  0.92010  0.26510  0.72510  1.0000 0.1200867111
H   H19       1.0  0.92010  0.23490  0.22510  1.0000 0.1200867111
H   H20       1.0  0.07990  0.73490  0.27490  1.0000 0.1200867111
H   H21       1.0  0.55560  0.08130  0.78780  1.0000 0.1200867111
H   H22       1.0  0.44440  0.58130  0.71220  1.0000 0.1200867111
H   H23       1.0  0.44440  0.91870  0.21220  1.0000 0.1200867111
H   H24       1.0  0.55560  0.41870  0.28780  1.0000 0.1200867111
H   H25       1.0  0.40070  0.04770  0.69190  1.0000 0.1148984583
H   H26       1.0  0.59930  0.54770  0.80810  1.0000 0.1148984583
H   H27       1.0  0.59930  0.95230  0.30810  1.0000 0.1148984583
H   H28       1.0  0.40070  0.45230  0.19190  1.0000 0.1148984583
H   H29       1.0  0.28880  0.84770  0.85450  1.0000 0.1341362821
H   H30       1.0  0.71120  0.34770  0.64550  1.0000 0.1341362821
H   H31       1.0  0.71120  0.15230  0.14550  1.0000 0.1341362821
H   H32       1.0  0.28880  0.65230  0.35450  1.0000 0.1341362821
H   H33       1.0  0.22450  0.92570  0.91260  1.0000 0.1576054023
H   H34       1.0  0.77550  0.42570  0.58740  1.0000 0.1576054023
H   H35       1.0  0.77550  0.07430  0.08740  1.0000 0.1576054023
H   H36       1.0  0.22450  0.57430  0.41260  1.0000 0.1576054023
C   C1        1.0  0.64980  0.88820  0.67469  1.0000 -0.2416560722
C   C2        1.0  0.35020  0.38820  0.82531  1.0000 -0.2416560722
C   C3        1.0  0.35020  0.11180  0.32531  1.0000 -0.2416560722
C   C4        1.0  0.64980  0.61180  0.17469  1.0000 -0.2416560722
C   C5        1.0  0.85340  0.80360  0.70028  1.0000 -0.0870748384
C   C6        1.0  0.14660  0.30360  0.79972  1.0000 -0.0870748384
C   C7        1.0  0.14660  0.19640  0.29972  1.0000 -0.0870748384
C   C8        1.0  0.85340  0.69640  0.20028  1.0000 -0.0870748384
C   C9        1.0  0.94700  0.82350  0.75811  1.0000 -0.1976341231
C   C10       1.0  0.05300  0.32350  0.74189  1.0000 -0.1976341231
C   C11       1.0  0.05300  0.17650  0.24189  1.0000 -0.1976341231
C   C12       1.0  0.94700  0.67650  0.25811  1.0000 -0.1976341231
C   C13       1.0  0.84530  0.93010  0.79198  1.0000 0.2414264904
C   C14       1.0  0.15470  0.43010  0.70802  1.0000 0.2414264904
C   C15       1.0  0.15470  0.06990  0.20802  1.0000 0.2414264904
C   C16       1.0  0.84530  0.56990  0.29198  1.0000 0.2414264904
C   C17       1.0  0.63310  0.01230  0.76583  1.0000 -0.2098491265
C   C18       1.0  0.36690  0.51230  0.73417  1.0000 -0.2098491265
C   C19       1.0  0.36690  0.98770  0.23417  1.0000 -0.2098491265
C   C20       1.0  0.63310  0.48770  0.26583  1.0000 -0.2098491265
C   C21       1.0  0.53920  0.99180  0.70837  1.0000 -0.0719102358
C   C22       1.0  0.46080  0.49180  0.79163  1.0000 -0.0719102358
C   C23       1.0  0.46080  0.00820  0.29163  1.0000 -0.0719102358
C   C24       1.0  0.53920  0.50820  0.20837  1.0000 -0.0719102358
C   C25       1.0  0.13970  0.87340  0.88052  1.0000 -0.2197053617
C   C26       1.0  0.86030  0.37340  0.61948  1.0000 -0.2197053617
C   C27       1.0  0.86030  0.12660  0.11948  1.0000 -0.2197053617
C   C28       1.0  0.13970  0.62660  0.38052  1.0000 -0.2197053617
C   C29       1.0  0.01540  0.74630  0.90630  1.0000 0.6060483681
C   C30       1.0  0.98460  0.24630  0.59370  1.0000 0.6060483681
C   C31       1.0  0.98460  0.25370  0.09370  1.0000 0.6060483681
C   C32       1.0  0.01540  0.75370  0.40630  1.0000 0.6060483681
N   N1        1.0  0.94460  0.95850  0.84787  1.0000 -0.2922191097
N   N2        1.0  0.05540  0.45850  0.65213  1.0000 -0.2922191097
N   N3        1.0  0.05540  0.04150  0.15213  1.0000 -0.2922191097
N   N4        1.0  0.94460  0.54150  0.34787  1.0000 -0.2922191097
O   O1        1.0  0.80670  0.82260  0.55324  1.0000 -0.7818332387
O   O2        1.0  0.19330  0.32260  0.94676  1.0000 -0.7818332387
O   O3        1.0  0.19330  0.17740  0.44676  1.0000 -0.7818332387
O   O4        1.0  0.80670  0.67740  0.05324  1.0000 -0.7818332387
O   O5        1.0  0.31170  0.72140  0.59090  1.0000 -0.674576856
O   O6        1.0  0.68830  0.22140  0.90910  1.0000 -0.674576856
O   O7        1.0  0.68830  0.27860  0.40910  1.0000 -0.674576856
O   O8        1.0  0.31170  0.77860  0.09090  1.0000 -0.675291933
O   O9        1.0  0.35200  0.99150  0.56782  1.0000 -0.8092825188
O   O10       1.0  0.64800  0.49150  0.93218  1.0000 -0.8092825188
O   O11       1.0  0.64800  0.00850  0.43218  1.0000 -0.8092825188
O   O12       1.0  0.35200  0.50850  0.06782  1.0000 -0.8092825188
O   O13       1.0  0.76280  0.71650  0.88644  1.0000 -0.4519505574
O   O14       1.0  0.23720  0.21650  0.61356  1.0000 -0.4519505574
O   O15       1.0  0.23720  0.28350  0.11356  1.0000 -0.4519505574
O   O16       1.0  0.76280  0.78350  0.38644  1.0000 -0.4519505574
O   O17       1.0  0.15150  0.67910  0.94235  1.0000 -0.5074391736
O   O18       1.0  0.84850  0.17910  0.55765  1.0000 -0.5074391736
O   O19       1.0  0.84850  0.32090  0.05765  1.0000 -0.5074391736
O   O20       1.0  0.15150  0.82090  0.44235  1.0000 -0.5074391736
