# DDEC6 charges by PACMAN v1.1 (https://github.com/mtap-research/PACMAN-charge/)
data_2010[Cu][hxg]3[FSR]1
_chemical_formula_sum              "Cu24 H48 C96 N48 O56"
_cell_length_a       21.3514
_cell_length_b       21.3514
_cell_length_c       21.3514
_cell_angle_alpha    60
_cell_angle_beta     60
_cell_angle_gamma    60

_symmetry_space_group_name_H-M    "P 1"
_symmetry_Int_Tables_number       1

loop_
  _symmetry_equiv_pos_as_xyz
  'x, y, z'

loop_
  _atom_site_type_symbol
  _atom_site_label
  _atom_site_symmetry_multiplicity
  _atom_site_fract_x
  _atom_site_fract_y
  _atom_site_fract_z
  _atom_site_occupancy
  _atom_site_charge
Cu  Cu1       1.0  0.12500  0.53512  0.62500  1.0000 0.8445120016
Cu  Cu2       1.0  0.53512  0.12500  0.71488  1.0000 0.8445120016
Cu  Cu3       1.0  0.62500  0.71488  0.12500  1.0000 0.8445120016
Cu  Cu4       1.0  0.71488  0.62500  0.53512  1.0000 0.8445120016
Cu  Cu5       1.0  0.62500  0.12500  0.53512  1.0000 0.8445120016
Cu  Cu6       1.0  0.71488  0.53512  0.12500  1.0000 0.8445120016
Cu  Cu7       1.0  0.12500  0.62500  0.71488  1.0000 0.8445120016
Cu  Cu8       1.0  0.53512  0.71488  0.62500  1.0000 0.8445120016
Cu  Cu9       1.0  0.53512  0.62500  0.12500  1.0000 0.8445120016
Cu  Cu10      1.0  0.12500  0.71488  0.53512  1.0000 0.8445120016
Cu  Cu11      1.0  0.71488  0.12500  0.62500  1.0000 0.8473807164
Cu  Cu12      1.0  0.62500  0.53512  0.71488  1.0000 0.8445120016
Cu  Cu13      1.0  0.62500  0.21488  0.12500  1.0000 0.8445120016
Cu  Cu14      1.0  0.21488  0.62500  0.03512  1.0000 0.8445120016
Cu  Cu15      1.0  0.12500  0.03512  0.62500  1.0000 0.8473807164
Cu  Cu16      1.0  0.03512  0.12500  0.21488  1.0000 0.8445120016
Cu  Cu17      1.0  0.12500  0.62500  0.21488  1.0000 0.8445120016
Cu  Cu18      1.0  0.03512  0.21488  0.62500  1.0000 0.8445120016
Cu  Cu19      1.0  0.62500  0.12500  0.03512  1.0000 0.8445120016
Cu  Cu20      1.0  0.21488  0.03512  0.12500  1.0000 0.8445120016
Cu  Cu21      1.0  0.21488  0.12500  0.62500  1.0000 0.8473807164
Cu  Cu22      1.0  0.62500  0.03512  0.21488  1.0000 0.8445120016
Cu  Cu23      1.0  0.03512  0.62500  0.12500  1.0000 0.8445120016
Cu  Cu24      1.0  0.12500  0.21488  0.03512  1.0000 0.8445120016
H   H1        1.0  0.12880  0.51840  0.48140  1.0000 0.1410393678
H   H2        1.0  0.51840  0.12880  0.87140  1.0000 0.1410393678
H   H3        1.0  0.48140  0.87140  0.12880  1.0000 0.1410393678
H   H4        1.0  0.87140  0.48140  0.51840  1.0000 0.1410393678
H   H5        1.0  0.48140  0.12880  0.51840  1.0000 0.1410393678
H   H6        1.0  0.87140  0.51840  0.12880  1.0000 0.1410393678
H   H7        1.0  0.12880  0.48140  0.87140  1.0000 0.1410393678
H   H8        1.0  0.51840  0.87140  0.48140  1.0000 0.1410393678
H   H9        1.0  0.51840  0.48140  0.12880  1.0000 0.1410393678
H   H10       1.0  0.12880  0.87140  0.51840  1.0000 0.1410393678
H   H11       1.0  0.87140  0.12880  0.48140  1.0000 0.1410393678
H   H12       1.0  0.48140  0.51840  0.87140  1.0000 0.1410393678
H   H13       1.0  0.12120  0.73160  0.37860  1.0000 0.1410393678
H   H14       1.0  0.73160  0.12120  0.76860  1.0000 0.1410393678
H   H15       1.0  0.76860  0.37860  0.73160  1.0000 0.1410393678
H   H16       1.0  0.37860  0.76860  0.12120  1.0000 0.1410393678
H   H17       1.0  0.76860  0.12120  0.37860  1.0000 0.1410393678
H   H18       1.0  0.37860  0.73160  0.76860  1.0000 0.1410393678
H   H19       1.0  0.12120  0.76860  0.73160  1.0000 0.1410393678
H   H20       1.0  0.73160  0.37860  0.12120  1.0000 0.1410393678
H   H21       1.0  0.73160  0.76860  0.37860  1.0000 0.1410393678
H   H22       1.0  0.12120  0.37860  0.76860  1.0000 0.1410393678
H   H23       1.0  0.37860  0.12120  0.73160  1.0000 0.1410393678
H   H24       1.0  0.76860  0.73160  0.12120  1.0000 0.1410393678
H   H25       1.0  0.62120  0.23160  0.26860  1.0000 0.1410393678
H   H26       1.0  0.23160  0.62120  0.87860  1.0000 0.1410393678
H   H27       1.0  0.26860  0.87860  0.62120  1.0000 0.1410393678
H   H28       1.0  0.87860  0.26860  0.23160  1.0000 0.1410393678
H   H29       1.0  0.26860  0.62120  0.23160  1.0000 0.1410393678
H   H30       1.0  0.87860  0.23160  0.62120  1.0000 0.1410393678
H   H31       1.0  0.62120  0.26860  0.87860  1.0000 0.1410393678
H   H32       1.0  0.23160  0.87860  0.26860  1.0000 0.1410393678
H   H33       1.0  0.23160  0.26860  0.62120  1.0000 0.1410393678
H   H34       1.0  0.62120  0.87860  0.23160  1.0000 0.1410393678
H   H35       1.0  0.87860  0.62120  0.26860  1.0000 0.1410393678
H   H36       1.0  0.26860  0.23160  0.87860  1.0000 0.1410393678
H   H37       1.0  0.62880  0.01840  0.37140  1.0000 0.1410393678
H   H38       1.0  0.01840  0.62880  0.98140  1.0000 0.1410393678
H   H39       1.0  0.98140  0.37140  0.01840  1.0000 0.1410393678
H   H40       1.0  0.37140  0.98140  0.62880  1.0000 0.1410393678
H   H41       1.0  0.98140  0.62880  0.37140  1.0000 0.1410393678
H   H42       1.0  0.37140  0.01840  0.98140  1.0000 0.1410393678
H   H43       1.0  0.62880  0.98140  0.01840  1.0000 0.1410393678
H   H44       1.0  0.01840  0.37140  0.62880  1.0000 0.1410393678
H   H45       1.0  0.01840  0.98140  0.37140  1.0000 0.1410393678
H   H46       1.0  0.62880  0.37140  0.98140  1.0000 0.1410393678
H   H47       1.0  0.37140  0.62880  0.01840  1.0000 0.1410393678
H   H48       1.0  0.98140  0.01840  0.62880  1.0000 0.1410393678
C   C1        1.0  0.12730  0.56690  0.47090  1.0000 0.0035369702
C   C2        1.0  0.56690  0.12730  0.83490  1.0000 0.0035369702
C   C3        1.0  0.47090  0.83490  0.12730  1.0000 0.0035369702
C   C4        1.0  0.83490  0.47090  0.56690  1.0000 0.0035369702
C   C5        1.0  0.47090  0.12730  0.56690  1.0000 0.0035369702
C   C6        1.0  0.83490  0.56690  0.12730  1.0000 0.0035369702
C   C7        1.0  0.12730  0.47090  0.83490  1.0000 0.0035369702
C   C8        1.0  0.56690  0.83490  0.47090  1.0000 0.0035369702
C   C9        1.0  0.56690  0.47090  0.12730  1.0000 0.0035369702
C   C10       1.0  0.12730  0.83490  0.56690  1.0000 0.0035369702
C   C11       1.0  0.83490  0.12730  0.47090  1.0000 0.0035369702
C   C12       1.0  0.47090  0.56690  0.83490  1.0000 0.0035369702
C   C13       1.0  0.12270  0.68310  0.41510  1.0000 0.0035369702
C   C14       1.0  0.68310  0.12270  0.77910  1.0000 0.0035369702
C   C15       1.0  0.77910  0.41510  0.68310  1.0000 0.0035369702
C   C16       1.0  0.41510  0.77910  0.12270  1.0000 0.0035369702
C   C17       1.0  0.77910  0.12270  0.41510  1.0000 0.0035369702
C   C18       1.0  0.41510  0.68310  0.77910  1.0000 0.0035369702
C   C19       1.0  0.12270  0.77910  0.68310  1.0000 0.0035369702
C   C20       1.0  0.68310  0.41510  0.12270  1.0000 0.0035369702
C   C21       1.0  0.68310  0.77910  0.41510  1.0000 0.0035369702
C   C22       1.0  0.12270  0.41510  0.77910  1.0000 0.0035369702
C   C23       1.0  0.41510  0.12270  0.68310  1.0000 0.0035369702
C   C24       1.0  0.77910  0.68310  0.12270  1.0000 0.0035369702
C   C25       1.0  0.62270  0.18310  0.27910  1.0000 0.0035369702
C   C26       1.0  0.18310  0.62270  0.91510  1.0000 0.0035369702
C   C27       1.0  0.27910  0.91510  0.62270  1.0000 0.0035369702
C   C28       1.0  0.91510  0.27910  0.18310  1.0000 0.0035369702
C   C29       1.0  0.27910  0.62270  0.18310  1.0000 0.0035369702
C   C30       1.0  0.91510  0.18310  0.62270  1.0000 0.0035369702
C   C31       1.0  0.62270  0.27910  0.91510  1.0000 0.0035369702
C   C32       1.0  0.18310  0.91510  0.27910  1.0000 0.0035369702
C   C33       1.0  0.18310  0.27910  0.62270  1.0000 0.0035369702
C   C34       1.0  0.62270  0.91510  0.18310  1.0000 0.0035369702
C   C35       1.0  0.91510  0.62270  0.27910  1.0000 0.0035369702
C   C36       1.0  0.27910  0.18310  0.91510  1.0000 0.0035369702
C   C37       1.0  0.62730  0.06690  0.33490  1.0000 0.0035369702
C   C38       1.0  0.06690  0.62730  0.97090  1.0000 0.0035369702
C   C39       1.0  0.97090  0.33490  0.06690  1.0000 0.0035369702
C   C40       1.0  0.33490  0.97090  0.62730  1.0000 0.0035369702
C   C41       1.0  0.97090  0.62730  0.33490  1.0000 0.0035369702
C   C42       1.0  0.33490  0.06690  0.97090  1.0000 0.0035369702
C   C43       1.0  0.62730  0.97090  0.06690  1.0000 0.0035369702
C   C44       1.0  0.06690  0.33490  0.62730  1.0000 0.0035369702
C   C45       1.0  0.06690  0.97090  0.33490  1.0000 0.0035369702
C   C46       1.0  0.62730  0.33490  0.97090  1.0000 0.0035369702
C   C47       1.0  0.33490  0.62730  0.06690  1.0000 0.0035369702
C   C48       1.0  0.97090  0.06690  0.62730  1.0000 0.0035369702
C   C49       1.0  0.12500  0.62500  0.40460  1.0000 -0.0798922217
C   C50       1.0  0.62500  0.12500  0.84540  1.0000 -0.0798922217
C   C51       1.0  0.40460  0.84540  0.12500  1.0000 -0.0798922217
C   C52       1.0  0.84540  0.40460  0.62500  1.0000 -0.0798922217
C   C53       1.0  0.40460  0.12500  0.62500  1.0000 -0.0798922217
C   C54       1.0  0.84540  0.62500  0.12500  1.0000 -0.0798922217
C   C55       1.0  0.12500  0.40460  0.84540  1.0000 -0.0798922217
C   C56       1.0  0.62500  0.84540  0.40460  1.0000 -0.0798922217
C   C57       1.0  0.62500  0.40460  0.12500  1.0000 -0.0798922217
C   C58       1.0  0.12500  0.84540  0.62500  1.0000 -0.0798922217
C   C59       1.0  0.84540  0.12500  0.40460  1.0000 -0.0798922217
C   C60       1.0  0.40460  0.62500  0.84540  1.0000 -0.0798922217
C   C61       1.0  0.62500  0.12500  0.34540  1.0000 -0.0798922217
C   C62       1.0  0.12500  0.62500  0.90460  1.0000 -0.0798922217
C   C63       1.0  0.34540  0.90460  0.62500  1.0000 -0.0798922217
C   C64       1.0  0.90460  0.34540  0.12500  1.0000 -0.0798922217
C   C65       1.0  0.34540  0.62500  0.12500  1.0000 -0.0798922217
C   C66       1.0  0.90460  0.12500  0.62500  1.0000 -0.0798922217
C   C67       1.0  0.62500  0.34540  0.90460  1.0000 -0.0798922217
C   C68       1.0  0.12500  0.90460  0.34540  1.0000 -0.0798922217
C   C69       1.0  0.12500  0.34540  0.62500  1.0000 -0.0798922217
C   C70       1.0  0.62500  0.90460  0.12500  1.0000 -0.0798922217
C   C71       1.0  0.90460  0.62500  0.34540  1.0000 -0.0798922217
C   C72       1.0  0.34540  0.12500  0.90460  1.0000 -0.0798922217
C   C73       1.0  0.12500  0.62500  0.33440  1.0000 0.5720944989
C   C74       1.0  0.62500  0.12500  0.91560  1.0000 0.5720944989
C   C75       1.0  0.33440  0.91560  0.12500  1.0000 0.5720944989
C   C76       1.0  0.91560  0.33440  0.62500  1.0000 0.5720944989
C   C77       1.0  0.33440  0.12500  0.62500  1.0000 0.5720944989
C   C78       1.0  0.91560  0.62500  0.12500  1.0000 0.5720944989
C   C79       1.0  0.12500  0.33440  0.91560  1.0000 0.5720944989
C   C80       1.0  0.62500  0.91560  0.33440  1.0000 0.5720944989
C   C81       1.0  0.62500  0.33440  0.12500  1.0000 0.5720944989
C   C82       1.0  0.12500  0.91560  0.62500  1.0000 0.5720944989
C   C83       1.0  0.91560  0.12500  0.33440  1.0000 0.5720944989
C   C84       1.0  0.33440  0.62500  0.91560  1.0000 0.5720944989
C   C85       1.0  0.62500  0.12500  0.41560  1.0000 0.5720944989
C   C86       1.0  0.12500  0.62500  0.83440  1.0000 0.5720944989
C   C87       1.0  0.41560  0.83440  0.62500  1.0000 0.5720944989
C   C88       1.0  0.83440  0.41560  0.12500  1.0000 0.5720944989
C   C89       1.0  0.41560  0.62500  0.12500  1.0000 0.5720944989
C   C90       1.0  0.83440  0.12500  0.62500  1.0000 0.5720944989
C   C91       1.0  0.62500  0.41560  0.83440  1.0000 0.5720944989
C   C92       1.0  0.12500  0.83440  0.41560  1.0000 0.5720944989
C   C93       1.0  0.12500  0.41560  0.62500  1.0000 0.5720944989
C   C94       1.0  0.62500  0.83440  0.12500  1.0000 0.5720944989
C   C95       1.0  0.83440  0.62500  0.41560  1.0000 0.5720944989
C   C96       1.0  0.41560  0.12500  0.83440  1.0000 0.5720944989
N   N1        1.0  0.12710  0.58890  0.51950  1.0000 -0.1123612063
N   N2        1.0  0.58890  0.12710  0.76450  1.0000 -0.1123612063
N   N3        1.0  0.51950  0.76450  0.12710  1.0000 -0.1123612063
N   N4        1.0  0.76450  0.51950  0.58890  1.0000 -0.1123612063
N   N5        1.0  0.51950  0.12710  0.58890  1.0000 -0.1123612063
N   N6        1.0  0.76450  0.58890  0.12710  1.0000 -0.1123612063
N   N7        1.0  0.12710  0.51950  0.76450  1.0000 -0.1123612063
N   N8        1.0  0.58890  0.76450  0.51950  1.0000 -0.1123612063
N   N9        1.0  0.58890  0.51950  0.12710  1.0000 -0.1123612063
N   N10       1.0  0.12710  0.76450  0.58890  1.0000 -0.1123612063
N   N11       1.0  0.76450  0.12710  0.51950  1.0000 -0.1123612063
N   N12       1.0  0.51950  0.58890  0.76450  1.0000 -0.1123612063
N   N13       1.0  0.12290  0.66110  0.48550  1.0000 -0.1123612063
N   N14       1.0  0.66110  0.12290  0.73050  1.0000 -0.1123612063
N   N15       1.0  0.73050  0.48550  0.66110  1.0000 -0.1123612063
N   N16       1.0  0.48550  0.73050  0.12290  1.0000 -0.1123612063
N   N17       1.0  0.73050  0.12290  0.48550  1.0000 -0.1123612063
N   N18       1.0  0.48550  0.66110  0.73050  1.0000 -0.1123612063
N   N19       1.0  0.12290  0.73050  0.66110  1.0000 -0.1123612063
N   N20       1.0  0.66110  0.48550  0.12290  1.0000 -0.1123612063
N   N21       1.0  0.66110  0.73050  0.48550  1.0000 -0.1123612063
N   N22       1.0  0.12290  0.48550  0.73050  1.0000 -0.1123612063
N   N23       1.0  0.48550  0.12290  0.66110  1.0000 -0.1123612063
N   N24       1.0  0.73050  0.66110  0.12290  1.0000 -0.1123612063
N   N25       1.0  0.62290  0.16110  0.23050  1.0000 -0.1123612063
N   N26       1.0  0.16110  0.62290  0.98550  1.0000 -0.1123612063
N   N27       1.0  0.23050  0.98550  0.62290  1.0000 -0.1123612063
N   N28       1.0  0.98550  0.23050  0.16110  1.0000 -0.1123612063
N   N29       1.0  0.23050  0.62290  0.16110  1.0000 -0.1123612063
N   N30       1.0  0.98550  0.16110  0.62290  1.0000 -0.1123612063
N   N31       1.0  0.62290  0.23050  0.98550  1.0000 -0.1123612063
N   N32       1.0  0.16110  0.98550  0.23050  1.0000 -0.1123612063
N   N33       1.0  0.16110  0.23050  0.62290  1.0000 -0.1123612063
N   N34       1.0  0.62290  0.98550  0.16110  1.0000 -0.1123612063
N   N35       1.0  0.98550  0.62290  0.23050  1.0000 -0.1123612063
N   N36       1.0  0.23050  0.16110  0.98550  1.0000 -0.1123612063
N   N37       1.0  0.62710  0.08890  0.26450  1.0000 -0.1123612063
N   N38       1.0  0.08890  0.62710  0.01950  1.0000 -0.1123612063
N   N39       1.0  0.01950  0.26450  0.08890  1.0000 -0.1123612063
N   N40       1.0  0.26450  0.01950  0.62710  1.0000 -0.1123612063
N   N41       1.0  0.01950  0.62710  0.26450  1.0000 -0.1123612063
N   N42       1.0  0.26450  0.08890  0.01950  1.0000 -0.1123612063
N   N43       1.0  0.62710  0.01950  0.08890  1.0000 -0.1123612063
N   N44       1.0  0.08890  0.26450  0.62710  1.0000 -0.1123612063
N   N45       1.0  0.08890  0.01950  0.26450  1.0000 -0.1123612063
N   N46       1.0  0.62710  0.26450  0.01950  1.0000 -0.1123612063
N   N47       1.0  0.26450  0.62710  0.08890  1.0000 -0.1123612063
N   N48       1.0  0.01950  0.08890  0.62710  1.0000 -0.1123612063
O   O1        1.0  0.12500  0.62500  0.62500  1.0000 -0.8430896725
O   O2        1.0  0.62500  0.12500  0.62500  1.0000 -0.8430896725
O   O3        1.0  0.62500  0.62500  0.12500  1.0000 -0.8430896725
O   O4        1.0  0.62500  0.62500  0.62500  1.0000 -0.8430896725
O   O5        1.0  0.62500  0.12500  0.12500  1.0000 -0.8430896725
O   O6        1.0  0.12500  0.62500  0.12500  1.0000 -0.8430896725
O   O7        1.0  0.12500  0.12500  0.62500  1.0000 -0.8486791066
O   O8        1.0  0.12500  0.12500  0.12500  1.0000 -0.8430896725
O   O9        1.0  0.14090  0.55910  0.33270  1.0000 -0.5601201739
O   O10       1.0  0.55910  0.14090  0.96730  1.0000 -0.5601201739
O   O11       1.0  0.33270  0.96730  0.14090  1.0000 -0.5601201739
O   O12       1.0  0.96730  0.33270  0.55910  1.0000 -0.5601201739
O   O13       1.0  0.33270  0.14090  0.55910  1.0000 -0.5601201739
O   O14       1.0  0.96730  0.55910  0.14090  1.0000 -0.5601201739
O   O15       1.0  0.14090  0.33270  0.96730  1.0000 -0.5601201739
O   O16       1.0  0.55910  0.96730  0.33270  1.0000 -0.5601201739
O   O17       1.0  0.55910  0.33270  0.14090  1.0000 -0.5601201739
O   O18       1.0  0.14090  0.96730  0.55910  1.0000 -0.5601201739
O   O19       1.0  0.96730  0.14090  0.33270  1.0000 -0.5601201739
O   O20       1.0  0.33270  0.55910  0.96730  1.0000 -0.5601201739
O   O21       1.0  0.10910  0.69090  0.28270  1.0000 -0.5601201739
O   O22       1.0  0.69090  0.10910  0.91730  1.0000 -0.5601201739
O   O23       1.0  0.91730  0.28270  0.69090  1.0000 -0.5601201739
O   O24       1.0  0.28270  0.91730  0.10910  1.0000 -0.5601201739
O   O25       1.0  0.91730  0.10910  0.28270  1.0000 -0.5601201739
O   O26       1.0  0.28270  0.69090  0.91730  1.0000 -0.5601201739
O   O27       1.0  0.10910  0.91730  0.69090  1.0000 -0.5601201739
O   O28       1.0  0.69090  0.28270  0.10910  1.0000 -0.5601201739
O   O29       1.0  0.69090  0.91730  0.28270  1.0000 -0.5601201739
O   O30       1.0  0.10910  0.28270  0.91730  1.0000 -0.5601201739
O   O31       1.0  0.28270  0.10910  0.69090  1.0000 -0.5601201739
O   O32       1.0  0.91730  0.69090  0.10910  1.0000 -0.5601201739
O   O33       1.0  0.60910  0.19090  0.41730  1.0000 -0.5601201739
O   O34       1.0  0.19090  0.60910  0.78270  1.0000 -0.5601201739
O   O35       1.0  0.41730  0.78270  0.60910  1.0000 -0.5601201739
O   O36       1.0  0.78270  0.41730  0.19090  1.0000 -0.5601201739
O   O37       1.0  0.41730  0.60910  0.19090  1.0000 -0.5601201739
O   O38       1.0  0.78270  0.19090  0.60910  1.0000 -0.5601201739
O   O39       1.0  0.60910  0.41730  0.78270  1.0000 -0.5601201739
O   O40       1.0  0.19090  0.78270  0.41730  1.0000 -0.5601201739
O   O41       1.0  0.19090  0.41730  0.60910  1.0000 -0.5601201739
O   O42       1.0  0.60910  0.78270  0.19090  1.0000 -0.5601201739
O   O43       1.0  0.78270  0.60910  0.41730  1.0000 -0.5601201739
O   O44       1.0  0.41730  0.19090  0.78270  1.0000 -0.5601201739
O   O45       1.0  0.64090  0.05910  0.46730  1.0000 -0.5601201739
O   O46       1.0  0.05910  0.64090  0.83270  1.0000 -0.5601201739
O   O47       1.0  0.83270  0.46730  0.05910  1.0000 -0.5601201739
O   O48       1.0  0.46730  0.83270  0.64090  1.0000 -0.5601201739
O   O49       1.0  0.83270  0.64090  0.46730  1.0000 -0.5601201739
O   O50       1.0  0.46730  0.05910  0.83270  1.0000 -0.5601201739
O   O51       1.0  0.64090  0.83270  0.05910  1.0000 -0.5601201739
O   O52       1.0  0.05910  0.46730  0.64090  1.0000 -0.5601201739
O   O53       1.0  0.05910  0.83270  0.46730  1.0000 -0.5601201739
O   O54       1.0  0.64090  0.46730  0.83270  1.0000 -0.5601201739
O   O55       1.0  0.46730  0.64090  0.05910  1.0000 -0.5601201739
O   O56       1.0  0.83270  0.05910  0.64090  1.0000 -0.5601201739
